REMARK  Name = ZINC38653213
REMARK  8 active torsions:
REMARK  status: ('A' for Active; 'I' for Inactive)
REMARK    1  A    between atoms: C_1  and  C_2
REMARK    2  A    between atoms: C_4  and  C_31
REMARK    3  A    between atoms: C_8  and  C_12
REMARK    4  A    between atoms: C_12  and  C_14
REMARK    5  A    between atoms: C_12  and  S_15
REMARK    6  A    between atoms: S_15  and  C_16
REMARK    7  A    between atoms: C_20  and  C_23
REMARK    8  A    between atoms: N_21  and  N_22
REMARK                            x       y       z     vdW  Elec       q    Type
REMARK                         _______ _______ _______ _____ _____    ______ ____
ROOT
ATOM      1  C   UNL     1       7.614  -5.131  -0.600  0.00  0.00    +0.252 C 
ATOM      2  N   UNL     1       7.155  -5.983   0.510  0.00  0.00    -0.236 N 
ATOM      3  N   UNL     1       7.756  -5.476   1.669  0.00  0.00    -0.167 NA
ATOM      4  C   UNL     1       8.501  -4.453   1.408  0.00  0.00    +0.162 C 
ATOM      5  N   UNL     1       8.496  -4.144   0.045  0.00  0.00    -0.220 N 
ATOM      6  H   UNL     1       6.556  -6.743   0.450  0.00  0.00    +0.171 HD
ENDROOT
BRANCH   4   7
ATOM      7  C   UNL     1       9.266  -3.702   2.426  0.00  0.00    +0.019 A 
ATOM      8  C   UNL     1       9.777  -4.361   3.545  0.00  0.00    +0.011 A 
ATOM      9  C   UNL     1      10.491  -3.654   4.492  0.00  0.00    +0.002 A 
ATOM     10  C   UNL     1      10.699  -2.296   4.334  0.00  0.00    +0.020 A 
ATOM     11  C   UNL     1      10.195  -1.636   3.226  0.00  0.00    +0.042 A 
ATOM     12  C   UNL     1       9.484  -2.333   2.269  0.00  0.00    +0.031 A 
ATOM     13 CL   UNL     1      10.462   0.069   3.037  0.00  0.00    -0.084 Cl
ENDBRANCH   4   7
BRANCH   5  14
ATOM     14  N   UNL     1       9.174  -3.128  -0.568  0.00  0.00    -0.250 NA
ATOM     15  H   UNL     1       9.774  -2.648   0.085  0.00  0.00    +0.141 HD
ATOM     16  H   UNL     1       9.699  -3.470  -1.358  0.00  0.00    +0.141 HD
ENDBRANCH   5  14
BRANCH   1  17
ATOM     17  S   UNL     1       6.206  -4.304  -1.391  0.00  0.00    -0.106 S 
BRANCH  17  18
ATOM     18  C   UNL     1       5.406  -3.405  -0.034  0.00  0.00    +0.112 C 
ATOM     19  C   UNL     1       4.851  -4.404   0.983  0.00  0.00    +0.027 C 
BRANCH  18  26
ATOM     20  C   UNL     1       0.487   1.944  -0.955  0.00  0.00    +0.024 C 
ATOM     21  C   UNL     1       0.403   0.422  -0.830  0.00  0.00    +0.076 C 
ATOM     22  C   UNL     1       1.184  -0.256  -1.932  0.00  0.00    -0.045 C 
ATOM     23  C   UNL     1       2.218  -1.034  -1.577  0.00  0.00    +0.071 C 
ATOM     24  C   UNL     1       2.513  -1.167  -0.134  0.00  0.00    +0.111 C 
ATOM     25  N   UNL     1       3.510  -1.914   0.276  0.00  0.00    -0.226 NA
ATOM     26  C   UNL     1       4.279  -2.567  -0.581  0.00  0.00    +0.136 C 
ATOM     27  N   UNL     1       4.113  -2.523  -1.881  0.00  0.00    -0.160 NA
ATOM     28  C   UNL     1       3.144  -1.809  -2.463  0.00  0.00    +0.271 C 
ATOM     29  O   UNL     1       3.017  -1.791  -3.675  0.00  0.00    -0.268 OA
ATOM     30  S   UNL     1       1.287  -0.166   0.671  0.00  0.00    -0.098 S 
ATOM     31  C   UNL     1       0.814  -0.065  -3.380  0.00  0.00    +0.041 C 
ENDBRANCH  18  26
ENDBRANCH  17  18
ENDBRANCH   1  17
TORSDOF 5
