REMARK  Name = ZINC02176062
REMARK  13 active torsions:
REMARK  status: ('A' for Active; 'I' for Inactive)
REMARK    1  A    between atoms: C_1  and  C_2
REMARK    2  A    between atoms: C_5  and  S_8
REMARK    3  A    between atoms: S_8  and  N_11
REMARK    4  A    between atoms: N_11  and  C_12
REMARK    5  A    between atoms: N_11  and  C_28
REMARK    6  A    between atoms: C_12  and  C_13
REMARK    7  A    between atoms: N_15  and  N_16
REMARK    8  A    between atoms: C_17  and  C_18
REMARK    9  A    between atoms: C_21  and  O_24
REMARK   10  A    between atoms: O_24  and  C_25
REMARK   11  A    between atoms: C_25  and  C_26
REMARK   12  A    between atoms: C_31  and  C_35
REMARK   13  A    between atoms: C_32  and  C_34
REMARK                            x       y       z     vdW  Elec       q    Type
REMARK                         _______ _______ _______ _____ _____    ______ ____
ROOT
ATOM      1  N   UNL     1       0.133   0.146  -0.266  0.00  0.00    -0.194 N 
ENDROOT
BRANCH   1   2
ATOM      2  C   UNL     1       0.446  -0.698   0.802  0.00  0.00    +0.052 A 
ATOM      3  C   UNL     1       1.011  -0.177   1.960  0.00  0.00    +0.025 A 
ATOM      4  C   UNL     1       1.315  -1.013   3.015  0.00  0.00    +0.005 A 
ATOM      5  C   UNL     1       1.067  -2.370   2.917  0.00  0.00    -0.047 A 
ATOM      6  C   UNL     1       0.511  -2.894   1.765  0.00  0.00    -0.046 A 
ATOM      7  C   UNL     1       0.199  -2.062   0.708  0.00  0.00    +0.028 A 
ATOM      8  C   UNL     1       0.243  -4.373   1.663  0.00  0.00    +0.044 C 
ATOM      9  C   UNL     1       1.406  -3.281   4.069  0.00  0.00    +0.044 C 
ENDBRANCH   1   2
BRANCH   1  10
ATOM     10  S   UNL     1      -0.930   1.397  -0.048  0.00  0.00    +0.075 S 
ATOM     11  O   UNL     1      -1.484   1.686  -1.324  0.00  0.00    -0.150 OA
ATOM     12  O   UNL     1      -1.735   1.055   1.072  0.00  0.00    -0.150 OA
BRANCH  10  17
ATOM     13  C   UNL     1       2.304   6.229   1.562  0.00  0.00    +0.044 C 
ATOM     14  C   UNL     1       1.496   5.022   1.160  0.00  0.00    -0.050 A 
ATOM     15  C   UNL     1       1.357   4.697  -0.176  0.00  0.00    +0.005 A 
ATOM     16  C   UNL     1       0.616   3.590  -0.545  0.00  0.00    +0.029 A 
ATOM     17  C   UNL     1       0.014   2.808   0.422  0.00  0.00    +0.109 A 
ATOM     18  C   UNL     1       0.149   3.136   1.758  0.00  0.00    +0.029 A 
ATOM     19  C   UNL     1       0.893   4.240   2.127  0.00  0.00    +0.005 A 
ENDBRANCH  10  17
ENDBRANCH   1  10
BRANCH   1  20
ATOM     20  C   UNL     1       0.745  -0.075  -1.578  0.00  0.00    +0.228 C 
BRANCH  20  21
ATOM     21  C   UNL     1       2.090   0.602  -1.625  0.00  0.00    +0.251 C 
ATOM     22  O   UNL     1       2.498   1.210  -0.658  0.00  0.00    -0.272 OA
ATOM     23  N   UNL     1       2.841   0.533  -2.743  0.00  0.00    -0.206 N 
ATOM     24  H   UNL     1       2.515   0.047  -3.517  0.00  0.00    +0.177 HD
BRANCH  23  25
ATOM     25  N   UNL     1       4.091   1.163  -2.787  0.00  0.00    -0.188 NA
ATOM     26  C   UNL     1       4.814   1.096  -3.863  0.00  0.00    +0.138 C 
BRANCH  26  27
ATOM     27  C   UNL     1       6.130   1.759  -3.909  0.00  0.00    -0.005 A 
ATOM     28  C   UNL     1       6.599   2.464  -2.798  0.00  0.00    +0.013 A 
ATOM     29  C   UNL     1       7.831   3.079  -2.845  0.00  0.00    +0.046 A 
ATOM     30  C   UNL     1       8.603   3.006  -3.997  0.00  0.00    +0.121 A 
ATOM     31  C   UNL     1       8.139   2.309  -5.106  0.00  0.00    +0.046 A 
ATOM     32  C   UNL     1       6.910   1.688  -5.067  0.00  0.00    +0.013 A 
BRANCH  30  33
ATOM     33  O   UNL     1       9.815   3.617  -4.040  0.00  0.00    -0.488 OA
BRANCH  33  34
ATOM     34  C   UNL     1      10.232   4.316  -2.865  0.00  0.00    +0.256 C 
BRANCH  34  35
ATOM     35  C   UNL     1      11.590   4.925  -3.098  0.00  0.00    +0.006 C 
ATOM     36  C   UNL     1      11.826   6.160  -2.731  0.00  0.00    +0.007 C 
ENDBRANCH  34  35
ENDBRANCH  33  34
ENDBRANCH  30  33
ENDBRANCH  26  27
ENDBRANCH  23  25
ENDBRANCH  20  21
ENDBRANCH   1  20
TORSDOF 10
