REMARK  Name = ZINC45024208
REMARK  7 active torsions:
REMARK  status: ('A' for Active; 'I' for Inactive)
REMARK    1  A    between atoms: C_1  and  C_2
REMARK    2  A    between atoms: C_2  and  C_3
REMARK    3  A    between atoms: C_2  and  C_4
REMARK    4  A    between atoms: C_7  and  C_10
REMARK    5  A    between atoms: C_10  and  N_11
REMARK    6  A    between atoms: C_12  and  C_14
REMARK    7  A    between atoms: C_16  and  N_20
REMARK                            x       y       z     vdW  Elec       q    Type
REMARK                         _______ _______ _______ _____ _____    ______ ____
ROOT
ATOM      1  N   UNL     1       2.622  -0.965   5.782  0.00  0.00    -0.306 N 
ATOM      2  C   UNL     1       3.190  -1.206   6.980  0.00  0.00    +0.261 C 
ATOM      3  O   UNL     1       3.848  -2.216   7.150  0.00  0.00    -0.269 OA
ATOM      4  H   UNL     1       2.097  -0.161   5.646  0.00  0.00    +0.149 HD
ENDROOT
BRANCH   2   5
ATOM      5  C   UNL     1       3.014  -0.252   8.079  0.00  0.00    +0.104 A 
ATOM      6  C   UNL     1       3.540  -0.367   9.350  0.00  0.00    +0.055 A 
ATOM      7  C   UNL     1       3.127   0.761  10.072  0.00  0.00    +0.043 A 
ATOM      8  C   UNL     1       2.370   1.529   9.245  0.00  0.00    +0.106 A 
ATOM      9  N   UNL     1       2.301   0.923   8.029  0.00  0.00    -0.355 N 
ATOM     10  H   UNL     1       1.825   1.263   7.254  0.00  0.00    +0.166 HD
BRANCH   7  11
ATOM     11  N   UNL     1       3.439   1.046  11.414  0.00  0.00    -0.357 N 
ATOM     12  H   UNL     1       3.989   0.433  11.925  0.00  0.00    +0.142 HD
ATOM     13  H   UNL     1       3.103   1.857  11.828  0.00  0.00    +0.142 HD
ENDBRANCH   7  11
ENDBRANCH   2   5
BRANCH   1  14
ATOM     14  C   UNL     1       2.797  -1.919   4.683  0.00  0.00    +0.140 C 
BRANCH  14  18
ATOM     15  C   UNL     1       0.731  -0.503   1.223  0.00  0.00    -0.045 A 
ATOM     16  C   UNL     1       2.050  -0.148   1.434  0.00  0.00    +0.004 A 
ATOM     17  C   UNL     1       2.719  -0.606   2.554  0.00  0.00    +0.005 A 
ATOM     18  C   UNL     1       2.068  -1.419   3.463  0.00  0.00    -0.030 A 
ATOM     19  C   UNL     1       0.749  -1.773   3.252  0.00  0.00    +0.005 A 
ATOM     20  C   UNL     1       0.079  -1.312   2.135  0.00  0.00    +0.004 A 
BRANCH  15  22
ATOM     21  C   UNL     1      -0.019   1.526   0.010  0.00  0.00    +0.012 C 
ATOM     22  C   UNL     1       0.002  -0.004   0.002  0.00  0.00    +0.013 C 
ATOM     23  C   UNL     1       0.718  -0.497  -1.257  0.00  0.00    +0.012 C 
ENDBRANCH  15  22
ENDBRANCH  14  18
ENDBRANCH   1  14
TORSDOF 5
