REMARK  Name = ZINC09324745
REMARK  8 active torsions:
REMARK  status: ('A' for Active; 'I' for Inactive)
REMARK    1  A    between atoms: C_1  and  C_2
REMARK    2  A    between atoms: C_2  and  C_3
REMARK    3  A    between atoms: C_2  and  C_4
REMARK    4  A    between atoms: C_2  and  N_5
REMARK    5  A    between atoms: C_6  and  C_8
REMARK    6  A    between atoms: C_8  and  S_9
REMARK    7  A    between atoms: S_9  and  C_10
REMARK    8  A    between atoms: N_18  and  C_19
REMARK                            x       y       z     vdW  Elec       q    Type
REMARK                         _______ _______ _______ _____ _____    ______ ____
ROOT
ATOM      1  C   UNL     1       0.042   1.040  -2.810  0.00  0.00    +0.160 A 
ATOM      2  N   UNL     1       1.135   0.300  -2.792  0.00  0.00    -0.133 NA
ATOM      3  N   UNL     1       1.711  -0.098  -3.976  0.00  0.00    -0.125 NA
ATOM      4  C   UNL     1       1.169   0.261  -5.123  0.00  0.00    +0.190 A 
ATOM      5  S   UNL     1      -0.237   1.210  -4.566  0.00  0.00    -0.024 S 
ATOM      6  N   UNL     1       1.582  -0.026  -6.422  0.00  0.00    -0.247 N 
ATOM      7  C   UNL     1       2.683  -0.774  -6.629  0.00  0.00    +0.310 C 
ATOM      8  O   UNL     1       3.318  -1.198  -5.682  0.00  0.00    -0.252 OA
ATOM      9  N   UNL     1       3.082  -1.053  -7.886  0.00  0.00    -0.269 N 
ATOM     10  H   UNL     1       1.075   0.311  -7.177  0.00  0.00    +0.158 HD
ATOM     11  H   UNL     1       2.540  -0.772  -8.640  0.00  0.00    +0.156 HD
ENDROOT
BRANCH   9  12
ATOM     12  C   UNL     1       4.279  -1.746  -8.104  0.00  0.00    +0.036 A 
ATOM     13  C   UNL     1       5.064  -1.449  -9.210  0.00  0.00    +0.025 A 
ATOM     14  C   UNL     1       6.246  -2.131  -9.419  0.00  0.00    +0.023 A 
ATOM     15  C   UNL     1       6.644  -3.118  -8.535  0.00  0.00    +0.059 A 
ATOM     16  C   UNL     1       5.860  -3.421  -7.434  0.00  0.00    +0.061 A 
ATOM     17  C   UNL     1       4.679  -2.737  -7.217  0.00  0.00    +0.044 A 
ATOM     18 CL   UNL     1       6.362  -4.659  -6.326  0.00  0.00    -0.082 Cl
ATOM     19 CL   UNL     1       8.127  -3.978  -8.806  0.00  0.00    -0.082 Cl
ENDBRANCH   9  12
BRANCH   1  20
ATOM     20  S   UNL     1      -0.894   1.683  -1.462  0.00  0.00    -0.088 S 
BRANCH  20  21
ATOM     21  C   UNL     1      -0.009   1.092   0.008  0.00  0.00    +0.172 C 
BRANCH  21  23
ATOM     22  N   UNL     1      -0.234   1.259   2.465  0.00  0.00    -0.310 N 
ATOM     23  C   UNL     1      -0.715   1.578   1.247  0.00  0.00    +0.224 C 
ATOM     24  O   UNL     1      -1.716   2.255   1.149  0.00  0.00    -0.275 OA
ATOM     25  H   UNL     1       0.567   0.717   2.544  0.00  0.00    +0.149 HD
BRANCH  22  27
ATOM     26  C   UNL     1      -2.352   1.192   3.686  0.00  0.00    +0.031 C 
ATOM     27  C   UNL     1      -0.920   1.731   3.671  0.00  0.00    +0.026 C 
ATOM     28  C   UNL     1      -0.174   1.233   4.910  0.00  0.00    +0.031 C 
ATOM     29  C   UNL     1      -0.951   3.261   3.674  0.00  0.00    +0.031 C 
ENDBRANCH  22  27
ENDBRANCH  21  23
ENDBRANCH  20  21
ENDBRANCH   1  20
TORSDOF 5
