REMARK  Name = ZINC04905096
REMARK  9 active torsions:
REMARK  status: ('A' for Active; 'I' for Inactive)
REMARK    1  A    between atoms: C_1  and  C_2
REMARK    2  A    between atoms: C_5  and  C_26
REMARK    3  A    between atoms: C_6  and  N_8
REMARK    4  A    between atoms: N_8  and  C_9
REMARK    5  A    between atoms: C_9  and  N_11
REMARK    6  A    between atoms: N_11  and  C_12
REMARK    7  A    between atoms: C_12  and  C_13
REMARK    8  A    between atoms: C_13  and  C_14
REMARK    9  A    between atoms: C_15  and  C_25
REMARK                            x       y       z     vdW  Elec       q    Type
REMARK                         _______ _______ _______ _____ _____    ______ ____
ROOT
ATOM      1  N   UNL     1      -0.479   1.875   1.245  0.00  0.00    -0.326 N 
ATOM      2  H   UNL     1      -1.397   2.162   1.122  0.00  0.00    +0.148 HD
ENDROOT
BRANCH   1   3
ATOM      3  C   UNL     1      -0.028   1.571   2.478  0.00  0.00    +0.135 C 
ATOM      4  S   UNL     1       1.593   1.064   2.697  0.00  0.00    -0.019 S 
BRANCH   3   5
ATOM      5  N   UNL     1      -0.853   1.667   3.540  0.00  0.00    -0.297 N 
ATOM      6  H   UNL     1      -1.746   2.029   3.429  0.00  0.00    +0.154 HD
BRANCH   5  12
ATOM      7  C   UNL     1       1.433  -1.674   6.330  0.00  0.00    +0.044 C 
ATOM      8  C   UNL     1       0.689  -0.372   6.183  0.00  0.00    -0.049 A 
ATOM      9  C   UNL     1       0.432   0.407   7.297  0.00  0.00    +0.004 A 
ATOM     10  C   UNL     1      -0.250   1.602   7.167  0.00  0.00    +0.005 A 
ATOM     11  C   UNL     1      -0.678   2.023   5.922  0.00  0.00    -0.029 A 
ATOM     12  C   UNL     1      -0.421   1.244   4.802  0.00  0.00    +0.036 A 
ATOM     13  C   UNL     1       0.260   0.041   4.937  0.00  0.00    +0.027 A 
ATOM     14  C   UNL     1      -1.421   3.326   5.781  0.00  0.00    +0.045 C 
ENDBRANCH   5  12
ENDBRANCH   3   5
ENDBRANCH   1   3
BRANCH   1  15
ATOM     15  C   UNL     1       0.418   1.770   0.091  0.00  0.00    +0.108 C 
BRANCH  15  16
ATOM     16  C   UNL     1      -0.337   2.168  -1.179  0.00  0.00    +0.056 C 
BRANCH  16  17
ATOM     17  C   UNL     1       0.585   2.061  -2.366  0.00  0.00    -0.018 A 
ATOM     18  C   UNL     1       1.371   3.032  -2.856  0.00  0.00    +0.017 A 
ATOM     19  N   UNL     1       2.069   2.567  -3.937  0.00  0.00    -0.358 N 
ATOM     20  H   UNL     1       2.703   3.085  -4.456  0.00  0.00    +0.166 HD
ATOM     21  C   UNL     1       1.733   1.253  -4.181  0.00  0.00    +0.047 A 
ATOM     22  C   UNL     1       0.788   0.879  -3.207  0.00  0.00    +0.005 A 
ATOM     23  C   UNL     1       0.261  -0.413  -3.207  0.00  0.00    +0.030 A 
ATOM     24  C   UNL     1       0.671  -1.316  -4.163  0.00  0.00    +0.042 A 
ATOM     25  C   UNL     1       1.603  -0.946  -5.124  0.00  0.00    +0.022 A 
ATOM     26  C   UNL     1       2.133   0.326  -5.136  0.00  0.00    +0.027 A 
ATOM     27 CL   UNL     1       0.018  -2.925  -4.168  0.00  0.00    -0.084 Cl
ATOM     28  C   UNL     1       1.473   4.428  -2.297  0.00  0.00    +0.063 C 
ENDBRANCH  16  17
ENDBRANCH  15  16
ENDBRANCH   1  15
TORSDOF 6
