REMARK  Name = ZINC53115268
REMARK  8 active torsions:
REMARK  status: ('A' for Active; 'I' for Inactive)
REMARK    1  A    between atoms: C_1  and  C_2
REMARK    2  A    between atoms: C_7  and  C_9
REMARK    3  A    between atoms: C_7  and  N_11
REMARK    4  A    between atoms: C_9  and  O_10
REMARK    5  A    between atoms: N_11  and  C_12
REMARK    6  A    between atoms: C_14  and  N_22
REMARK    7  A    between atoms: C_16  and  S_18
REMARK    8  A    between atoms: S_18  and  N_21
REMARK                            x       y       z     vdW  Elec       q    Type
REMARK                         _______ _______ _______ _____ _____    ______ ____
ROOT
ATOM      1  C   UNL     1       1.442   2.180   2.033  0.00  0.00    +0.031 A 
ATOM      2  C   UNL     1       1.034   1.476   3.158  0.00  0.00    +0.045 A 
ATOM      3  C   UNL     1       0.466   2.153   4.228  0.00  0.00    +0.028 A 
ATOM      4  C   UNL     1       0.306   3.532   4.170  0.00  0.00    +0.051 A 
ATOM      5  C   UNL     1       0.713   4.230   3.050  0.00  0.00    +0.108 A 
ATOM      6  C   UNL     1       1.284   3.560   1.985  0.00  0.00    +0.051 A 
ENDROOT
BRANCH   5   7
ATOM      7  S   UNL     1       0.508   5.979   2.981  0.00  0.00    +0.056 S 
ATOM      8  O   UNL     1       0.468   6.329   1.604  0.00  0.00    -0.153 OA
ATOM      9  O   UNL     1      -0.544   6.300   3.880  0.00  0.00    -0.153 OA
BRANCH   7  10
ATOM     10  N   UNL     1       1.885   6.657   3.602  0.00  0.00    -0.204 NA
ATOM     11  H   UNL     1       2.184   7.524   3.286  0.00  0.00    +0.144 HD
ATOM     12  H   UNL     1       2.393   6.188   4.282  0.00  0.00    +0.144 HD
ENDBRANCH   7  10
ENDBRANCH   5   7
BRANCH   3  13
ATOM     13  N   UNL     1       0.054   1.448   5.361  0.00  0.00    -0.358 N 
ATOM     14  H   UNL     1       0.165   0.485   5.401  0.00  0.00    +0.142 HD
ATOM     15  H   UNL     1      -0.344   1.921   6.109  0.00  0.00    +0.142 HD
ENDBRANCH   3  13
BRANCH   1  16
ATOM     16  N   UNL     1       2.014   1.504   0.954  0.00  0.00    -0.336 N 
ATOM     17  H   UNL     1       2.215   1.981   0.134  0.00  0.00    +0.147 HD
BRANCH  16  23
ATOM     18  C   UNL     1      -0.175   1.031  -0.155  0.00  0.00    +0.007 C 
ATOM     19  C   UNL     1       0.136  -0.463  -0.043  0.00  0.00    -0.012 C 
ATOM     20  C   UNL     1       0.885  -0.923  -1.295  0.00  0.00    +0.003 C 
ATOM     21  C   UNL     1       2.192  -0.138  -1.425  0.00  0.00    +0.002 C 
ATOM     22  C   UNL     1       3.061  -0.387  -0.191  0.00  0.00    +0.028 C 
ATOM     23  C   UNL     1       2.312   0.073   1.061  0.00  0.00    +0.055 C 
ATOM     24  C   UNL     1       1.005  -0.712   1.191  0.00  0.00    +0.031 C 
BRANCH  23  25
ATOM     25  C   UNL     1       3.181  -0.175   2.296  0.00  0.00    +0.181 C 
BRANCH  25  26
ATOM     26  O   UNL     1       4.366   0.619   2.212  0.00  0.00    -0.393 OA
ATOM     27  H   UNL     1       4.966   0.512   2.963  0.00  0.00    +0.209 HD
ENDBRANCH  25  26
ENDBRANCH  23  25
ENDBRANCH  16  23
ENDBRANCH   1  16
TORSDOF 7
