REMARK  Name = ZINC12659963
REMARK  8 active torsions:
REMARK  status: ('A' for Active; 'I' for Inactive)
REMARK    1  A    between atoms: C_4  and  C_7
REMARK    2  A    between atoms: C_7  and  C_9
REMARK    3  A    between atoms: C_7  and  O_22
REMARK    4  A    between atoms: N_11  and  C_12
REMARK    5  A    between atoms: C_15  and  N_19
REMARK    6  A    between atoms: O_22  and  C_23
REMARK    7  A    between atoms: C_23  and  C_25
REMARK    8  A    between atoms: C_34  and  O_35
REMARK                            x       y       z     vdW  Elec       q    Type
REMARK                         _______ _______ _______ _____ _____    ______ ____
ROOT
ATOM      1  C   UNL     1       1.160   3.577   0.005  0.00  0.00    +0.292 C 
ENDROOT
BRANCH   1   5
ATOM      2  C   UNL     1       1.222  -0.694  -0.049  0.00  0.00    +0.000 A 
ATOM      3  C   UNL     1       0.015  -0.020  -0.024  0.00  0.00    +0.000 A 
ATOM      4  C   UNL     1      -0.005   1.362  -0.006  0.00  0.00    +0.008 A 
ATOM      5  C   UNL     1       1.181   2.071  -0.014  0.00  0.00    +0.002 A 
ATOM      6  C   UNL     1       2.389   1.397  -0.039  0.00  0.00    +0.008 A 
ATOM      7  C   UNL     1       2.409   0.015  -0.056  0.00  0.00    +0.000 A 
ENDBRANCH   1   5
BRANCH   1   8
ATOM      8  C   UNL     1       1.257   4.098  -1.406  0.00  0.00    +0.263 C 
ATOM      9  O   UNL     1       2.229   4.737  -1.751  0.00  0.00    -0.271 OA
ATOM     10  N   UNL     1       0.265   3.854  -2.285  0.00  0.00    -0.281 N 
ATOM     11  H   UNL     1      -0.481   3.289  -2.030  0.00  0.00    +0.155 HD
BRANCH  10  12
ATOM     12  C   UNL     1       0.311   4.416  -3.566  0.00  0.00    +0.052 A 
ATOM     13  C   UNL     1       1.530   4.582  -4.210  0.00  0.00    +0.027 A 
ATOM     14  C   UNL     1       1.572   5.137  -5.474  0.00  0.00    +0.034 A 
ATOM     15  C   UNL     1       0.402   5.527  -6.099  0.00  0.00    +0.128 A 
ATOM     16  C   UNL     1      -0.814   5.364  -5.462  0.00  0.00    +0.054 A 
ATOM     17  C   UNL     1      -0.864   4.804  -4.199  0.00  0.00    +0.064 A 
ATOM     18 CL   UNL     1      -2.391   4.592  -3.402  0.00  0.00    -0.082 Cl
BRANCH  15  19
ATOM     19  N   UNL     1       0.451   6.121  -7.454  0.00  0.00    +0.056 N 
ATOM     20  O   UNL     1       1.522   6.266  -8.017  0.00  0.00    -0.126 OA
ATOM     21  O   UNL     1      -0.579   6.465  -8.006  0.00  0.00    -0.126 OA
ENDBRANCH  15  19
ENDBRANCH  10  12
ENDBRANCH   1   8
BRANCH   1  22
ATOM     22  O   UNL     1       2.284   4.068   0.781  0.00  0.00    -0.443 OA
BRANCH  22  23
ATOM     23  C   UNL     1       2.083   4.253   2.100  0.00  0.00    +0.344 C 
ATOM     24  O   UNL     1       0.997   4.011   2.589  0.00  0.00    -0.245 OA
BRANCH  23  25
ATOM     25  C   UNL     1       3.180   4.750   2.951  0.00  0.00    +0.101 A 
ATOM     26  C   UNL     1       4.417   5.025   2.389  0.00  0.00    +0.027 A 
ATOM     27  C   UNL     1       5.456   5.496   3.204  0.00  0.00    -0.017 A 
ATOM     28  C   UNL     1       6.724   5.786   2.667  0.00  0.00    +0.008 A 
ATOM     29  C   UNL     1       7.712   6.243   3.483  0.00  0.00    +0.001 A 
ATOM     30  C   UNL     1       7.488   6.429   4.846  0.00  0.00    +0.001 A 
ATOM     31  C   UNL     1       6.275   6.160   5.401  0.00  0.00    +0.008 A 
ATOM     32  C   UNL     1       5.228   5.686   4.592  0.00  0.00    -0.014 A 
ATOM     33  C   UNL     1       3.965   5.400   5.137  0.00  0.00    +0.054 A 
ATOM     34  C   UNL     1       2.962   4.947   4.332  0.00  0.00    +0.131 A 
BRANCH  34  35
ATOM     35  O   UNL     1       1.743   4.679   4.864  0.00  0.00    -0.506 OA
ATOM     36  H   UNL     1       1.642   3.769   5.178  0.00  0.00    +0.292 HD
ENDBRANCH  34  35
ENDBRANCH  23  25
ENDBRANCH  22  23
ENDBRANCH   1  22
TORSDOF 8
