REMARK  Name = ZINC02342832
REMARK  13 active torsions:
REMARK  status: ('A' for Active; 'I' for Inactive)
REMARK    1  A    between atoms: C_1  and  C_2
REMARK    2  A    between atoms: C_2  and  N_3
REMARK    3  A    between atoms: N_3  and  C_4
REMARK    4  A    between atoms: N_3  and  C_6
REMARK    5  A    between atoms: C_4  and  C_5
REMARK    6  A    between atoms: C_9  and  N_12
REMARK    7  A    between atoms: C_13  and  C_15
REMARK    8  A    between atoms: C_15  and  S_16
REMARK    9  A    between atoms: S_16  and  C_17
REMARK   10  A    between atoms: C_20  and  C_30
REMARK   11  A    between atoms: N_21  and  C_22
REMARK   12  A    between atoms: C_25  and  O_28
REMARK   13  A    between atoms: O_28  and  C_29
REMARK                            x       y       z     vdW  Elec       q    Type
REMARK                         _______ _______ _______ _____ _____    ______ ____
ROOT
ATOM      1  C   UNL     1       3.902  -6.567  -0.616  0.00  0.00    +0.197 A 
ATOM      2  N   UNL     1       2.707  -7.114  -0.616  0.00  0.00    -0.122 NA
ATOM      3  N   UNL     1       2.806  -8.395  -0.597  0.00  0.00    -0.128 NA
ATOM      4  C   UNL     1       4.071  -8.747  -0.582  0.00  0.00    +0.172 A 
ATOM      5  N   UNL     1       4.814  -7.587  -0.599  0.00  0.00    -0.270 N 
ENDROOT
BRANCH   4   6
ATOM      6  C   UNL     1       4.598 -10.128  -0.558  0.00  0.00    +0.055 A 
ATOM      7  C   UNL     1       5.610 -10.476   0.338  0.00  0.00    +0.014 A 
ATOM      8  C   UNL     1       6.098 -11.767   0.356  0.00  0.00    +0.001 A 
ATOM      9  C   UNL     1       5.587 -12.716  -0.512  0.00  0.00    +0.003 A 
ATOM     10  C   UNL     1       4.584 -12.380  -1.403  0.00  0.00    +0.039 A 
ATOM     11  C   UNL     1       4.082 -11.092  -1.428  0.00  0.00    +0.134 A 
ATOM     12  F   UNL     1       3.098 -10.765  -2.294  0.00  0.00    -0.205 F 
ENDBRANCH   4   6
BRANCH   5  13
ATOM     13  C   UNL     1       6.213  -7.475  -0.598  0.00  0.00    +0.051 A 
ATOM     14  C   UNL     1       6.946  -7.916  -1.691  0.00  0.00    +0.030 A 
ATOM     15  C   UNL     1       8.321  -7.801  -1.692  0.00  0.00    +0.047 A 
ATOM     16  C   UNL     1       8.972  -7.255  -0.595  0.00  0.00    +0.120 A 
ATOM     17  C   UNL     1       8.241  -6.820   0.501  0.00  0.00    +0.047 A 
ATOM     18  C   UNL     1       6.864  -6.929   0.499  0.00  0.00    +0.030 A 
BRANCH  16  19
ATOM     19  O   UNL     1      10.327  -7.147  -0.593  0.00  0.00    -0.495 OA
ATOM     20  C   UNL     1      11.017  -7.615  -1.754  0.00  0.00    +0.277 C 
ENDBRANCH  16  19
ENDBRANCH   5  13
BRANCH   1  21
ATOM     21  S   UNL     1       4.263  -4.843  -0.639  0.00  0.00    -0.076 S 
BRANCH  21  22
ATOM     22  C   UNL     1       2.583  -4.170  -0.661  0.00  0.00    +0.173 C 
BRANCH  22  24
ATOM     23  N   UNL     1       1.506  -1.944  -0.702  0.00  0.00    -0.285 N 
ATOM     24  C   UNL     1       2.645  -2.665  -0.683  0.00  0.00    +0.227 C 
ATOM     25  O   UNL     1       3.719  -2.102  -0.684  0.00  0.00    -0.275 OA
ATOM     26  H   UNL     1       0.648  -2.390  -0.629  0.00  0.00    +0.155 HD
BRANCH  23  30
ATOM     27  C   UNL     1       1.673   2.207  -1.073  0.00  0.00    +0.030 A 
ATOM     28  C   UNL     1       2.623   1.415  -1.703  0.00  0.00    +0.025 A 
ATOM     29  C   UNL     1       2.568   0.041  -1.580  0.00  0.00    +0.025 A 
ATOM     30  C   UNL     1       1.562  -0.549  -0.827  0.00  0.00    +0.034 A 
ATOM     31  C   UNL     1       0.611   0.243  -0.197  0.00  0.00    +0.025 A 
ATOM     32  C   UNL     1       0.666   1.617  -0.319  0.00  0.00    +0.025 A 
BRANCH  27  33
ATOM     33  N   UNL     1       1.728   3.600  -1.198  0.00  0.00    -0.330 N 
BRANCH  33  35
ATOM     34  C   UNL     1       1.213   4.797   0.872  0.00  0.00    +0.024 C 
ATOM     35  C   UNL     1       0.725   4.435  -0.533  0.00  0.00    +0.102 C 
ENDBRANCH  33  35
BRANCH  33  36
ATOM     36  C   UNL     1       2.790   4.222  -1.993  0.00  0.00    +0.102 C 
ATOM     37  C   UNL     1       2.322   4.367  -3.442  0.00  0.00    +0.024 C 
ENDBRANCH  33  36
ENDBRANCH  27  33
ENDBRANCH  23  30
ENDBRANCH  22  24
ENDBRANCH  21  22
ENDBRANCH   1  21
TORSDOF 10
