REMARK  Name = ZINC08467988
REMARK  11 active torsions:
REMARK  status: ('A' for Active; 'I' for Inactive)
REMARK    1  A    between atoms: C_1  and  N_53
REMARK    2  A    between atoms: C_2  and  N_53
REMARK    3  A    between atoms: C_3  and  C_4
REMARK    4  A    between atoms: C_3  and  N_53
REMARK    5  A    between atoms: C_4  and  N_5
REMARK    6  A    between atoms: C_6  and  C_20
REMARK    7  A    between atoms: C_9  and  C_10
REMARK    8  A    between atoms: C_9  and  O_15
REMARK    9  A    between atoms: C_23  and  O_26
REMARK   10  A    between atoms: O_26  and  C_27
REMARK   11  A    between atoms: C_27  and  C_28
REMARK                            x       y       z     vdW  Elec       q    Type
REMARK                         _______ _______ _______ _____ _____    ______ ____
ROOT
ATOM      1  N   UNL     1       0.449   3.380   2.328  0.00  0.00    -0.285 N 
ATOM      2  C   UNL     1       1.707   2.636   2.439  0.00  0.00    +0.144 C 
ATOM      3  C   UNL     1       2.103   2.247   1.034  0.00  0.00    +0.072 C 
ATOM      4  C   UNL     1       3.230   1.532   0.653  0.00  0.00    +0.140 C 
ATOM      5  C   UNL     1       1.103   2.746   0.194  0.00  0.00    +0.249 C 
ATOM      6  O   UNL     1       1.065   2.630  -1.019  0.00  0.00    -0.282 OA
ATOM      7  C   UNL     1       0.094   3.443   1.034  0.00  0.00    +0.288 C 
ATOM      8  O   UNL     1      -0.904   3.990   0.612  0.00  0.00    -0.266 OA
ENDROOT
BRANCH   2   9
ATOM      9  C   UNL     1       1.508   1.401   3.280  0.00  0.00    -0.022 A 
ATOM     10  C   UNL     1       0.392   0.607   3.087  0.00  0.00    +0.009 A 
ATOM     11  C   UNL     1       0.210  -0.528   3.853  0.00  0.00    +0.046 A 
ATOM     12  C   UNL     1       1.142  -0.866   4.823  0.00  0.00    +0.121 A 
ATOM     13  C   UNL     1       2.258  -0.065   5.018  0.00  0.00    +0.046 A 
ATOM     14  C   UNL     1       2.438   1.066   4.246  0.00  0.00    +0.009 A 
BRANCH  12  15
ATOM     15  O   UNL     1       0.963  -1.980   5.581  0.00  0.00    -0.483 OA
BRANCH  15  16
ATOM     16  C   UNL     1      -0.209  -2.757   5.325  0.00  0.00    +0.324 C 
BRANCH  16  17
ATOM     17  C   UNL     1      -0.238  -3.943   6.254  0.00  0.00    +0.248 C 
ATOM     18  O   UNL     1       0.657  -4.107   7.056  0.00  0.00    -0.272 OA
ATOM     19  N   UNL     1      -1.258  -4.822   6.193  0.00  0.00    -0.327 N 
ATOM     20  H   UNL     1      -1.973  -4.691   5.551  0.00  0.00    +0.145 HD
ATOM     21  H   UNL     1      -1.276  -5.586   6.791  0.00  0.00    +0.145 HD
ENDBRANCH  16  17
ENDBRANCH  15  16
ENDBRANCH  12  15
ENDBRANCH   2   9
BRANCH   4  22
ATOM     22  C   UNL     1       4.211   1.192   1.616  0.00  0.00    +0.054 A 
ATOM     23  C   UNL     1       4.716  -0.062   1.950  0.00  0.00    +0.019 A 
ATOM     24  C   UNL     1       5.674  -0.106   2.929  0.00  0.00    +0.008 A 
ATOM     25  C   UNL     1       6.071   1.052   3.523  0.00  0.00    +0.046 A 
ATOM     26  S   UNL     1       5.117   2.258   2.724  0.00  0.00    -0.094 S 
ENDBRANCH   4  22
BRANCH   4  27
ATOM     27  O   UNL     1       3.392   1.160  -0.636  0.00  0.00    -0.505 OA
ATOM     28  H   UNL     1       4.251   0.658  -0.733  0.00  0.00    +0.292 HD
ENDBRANCH   4  27
BRANCH   1  29
ATOM     29  C   UNL     1      -0.303   3.955   3.447  0.00  0.00    +0.090 C 
BRANCH  29  30
ATOM     30  C   UNL     1      -1.298   2.922   3.978  0.00  0.00    -0.060 C 
BRANCH  30  33
ATOM     31  C   UNL     1      -2.905   4.605   4.646  0.00  0.00    -0.097 C 
ATOM     32  C   UNL     1      -2.845   2.470   5.785  0.00  0.00    -0.097 C 
ATOM     33  N   UNL     1      -2.033   3.509   5.118  0.00  0.00    +0.377 N 
ATOM     34  H   UNL     1      -1.356   3.887   5.791  0.00  0.00    -0.083 HD
ENDBRANCH  30  33
ENDBRANCH  29  30
ENDBRANCH   1  29
TORSDOF 9
