REMARK  Name = ZINC16430238
REMARK  15 active torsions:
REMARK  status: ('A' for Active; 'I' for Inactive)
REMARK    1  A    between atoms: C_1  and  C_2
REMARK    2  A    between atoms: C_2  and  C_3
REMARK    3  A    between atoms: C_6  and  N_9
REMARK    4  A    between atoms: C_19  and  C_20
REMARK    5  A    between atoms: C_20  and  C_22
REMARK    6  A    between atoms: C_20  and  N_24
REMARK    7  A    between atoms: C_22  and  C_23
REMARK    8  A    between atoms: N_24  and  C_25
REMARK    9  A    between atoms: C_25  and  C_26
REMARK   10  A    between atoms: C_26  and  N_74
REMARK   11  A    between atoms: C_27  and  N_74
REMARK   12  A    between atoms: C_28  and  N_74
REMARK   13  A    between atoms: C_29  and  C_31
REMARK   14  A    between atoms: C_31  and  O_32
REMARK   15  A    between atoms: O_32  and  C_33
REMARK                            x       y       z     vdW  Elec       q    Type
REMARK                         _______ _______ _______ _____ _____    ______ ____
ROOT
ATOM      1  C   UNL     1      -0.334   0.018   2.471  0.00  0.00    +0.142 C 
ENDROOT
BRANCH   1  12
ATOM      2  N   UNL     1       1.141  -1.742   1.578  0.00  0.00    -0.263 N 
ATOM      3  C   UNL     1       1.428  -2.768   0.744  0.00  0.00    +0.266 A 
ATOM      4  O   UNL     1       2.501  -3.341   0.792  0.00  0.00    -0.267 OA
ATOM      5  C   UNL     1       0.396  -3.161  -0.227  0.00  0.00    +0.065 A 
ATOM      6  C   UNL     1       0.594  -4.200  -1.133  0.00  0.00    +0.015 A 
ATOM      7  C   UNL     1      -0.407  -4.527  -2.021  0.00  0.00    +0.001 A 
ATOM      8  C   UNL     1      -1.608  -3.830  -2.019  0.00  0.00    +0.002 A 
ATOM      9  C   UNL     1      -1.824  -2.799  -1.132  0.00  0.00    +0.028 A 
ATOM     10  C   UNL     1      -0.825  -2.449  -0.222  0.00  0.00    +0.078 A 
ATOM     11  N   UNL     1      -0.995  -1.441   0.669  0.00  0.00    -0.231 NA
ATOM     12  C   UNL     1      -0.066  -1.115   1.515  0.00  0.00    +0.138 A 
BRANCH   2  16
ATOM     13  C   UNL     1       3.970  -0.501   4.375  0.00  0.00    -0.047 A 
ATOM     14  C   UNL     1       2.914  -1.302   4.770  0.00  0.00    +0.005 A 
ATOM     15  C   UNL     1       1.975  -1.714   3.845  0.00  0.00    +0.026 A 
ATOM     16  C   UNL     1       2.091  -1.324   2.518  0.00  0.00    +0.051 A 
ATOM     17  C   UNL     1       3.155  -0.524   2.123  0.00  0.00    +0.026 A 
ATOM     18  C   UNL     1       4.089  -0.111   3.053  0.00  0.00    +0.005 A 
BRANCH  13  20
ATOM     19  C   UNL     1       6.128  -1.077   5.452  0.00  0.00    +0.009 C 
ATOM     20  C   UNL     1       4.993  -0.053   5.386  0.00  0.00    +0.032 C 
ENDBRANCH  13  20
ENDBRANCH   2  16
ENDBRANCH   1  12
BRANCH   1  21
ATOM     21  N   UNL     1       0.390   1.212   2.029  0.00  0.00    -0.290 N 
ATOM     22  C   UNL     1       1.237   1.837   2.871  0.00  0.00    +0.254 C 
ATOM     23  O   UNL     1       1.399   1.411   3.995  0.00  0.00    -0.272 OA
BRANCH  21  24
ATOM     24  C   UNL     1       0.195   1.727   0.671  0.00  0.00    +0.090 C 
BRANCH  24  25
ATOM     25  C   UNL     1       1.297   1.187  -0.242  0.00  0.00    -0.060 C 
BRANCH  25  28
ATOM     26  C   UNL     1       2.259   1.402  -2.454  0.00  0.00    -0.097 C 
ATOM     27  C   UNL     1      -0.137   1.167  -2.194  0.00  0.00    -0.097 C 
ATOM     28  N   UNL     1       1.096   1.730  -1.603  0.00  0.00    +0.377 N 
ATOM     29  H   UNL     1       1.002   2.750  -1.544  0.00  0.00    -0.083 HD
ENDBRANCH  25  28
ENDBRANCH  24  25
ENDBRANCH  21  24
BRANCH  22  30
ATOM     30  C   UNL     1       1.982   3.066   2.416  0.00  0.00    +0.324 C 
BRANCH  30  31
ATOM     31  O   UNL     1       2.810   3.542   3.479  0.00  0.00    -0.483 OA
BRANCH  31  32
ATOM     32  C   UNL     1       3.554   4.652   3.232  0.00  0.00    +0.121 A 
ATOM     33  C   UNL     1       3.493   5.266   1.990  0.00  0.00    +0.045 A 
ATOM     34  C   UNL     1       4.246   6.398   1.743  0.00  0.00    +0.004 A 
ATOM     35  C   UNL     1       5.069   6.911   2.729  0.00  0.00    +0.000 A 
ATOM     36  C   UNL     1       5.136   6.296   3.966  0.00  0.00    +0.004 A 
ATOM     37  C   UNL     1       4.381   5.168   4.219  0.00  0.00    +0.045 A 
ENDBRANCH  31  32
ENDBRANCH  30  31
ENDBRANCH  22  30
ENDBRANCH   1  21
BRANCH   1  38
ATOM     38  C   UNL     1      -1.835   0.314   2.503  0.00  0.00    +0.027 C 
ATOM     39  C   UNL     1      -2.123   1.374   3.568  0.00  0.00    +0.006 C 
ENDBRANCH   1  38
TORSDOF 11
