REMARK  Name = ZINC13064789
REMARK  17 active torsions:
REMARK  status: ('A' for Active; 'I' for Inactive)
REMARK    1  A    between atoms: C_1  and  C_2
REMARK    2  A    between atoms: C_2  and  C_3
REMARK    3  A    between atoms: C_3  and  C_5
REMARK    4  A    between atoms: C_3  and  N_75
REMARK    5  A    between atoms: N_9  and  C_10
REMARK    6  A    between atoms: C_10  and  C_11
REMARK    7  A    between atoms: C_10  and  C_12
REMARK    8  A    between atoms: C_10  and  C_13
REMARK    9  A    between atoms: C_13  and  C_14
REMARK   10  A    between atoms: C_15  and  C_16
REMARK   11  A    between atoms: C_15  and  N_75
REMARK   12  A    between atoms: C_19  and  O_22
REMARK   13  A    between atoms: O_22  and  C_23
REMARK   14  A    between atoms: C_24  and  C_25
REMARK   15  A    between atoms: C_24  and  N_75
REMARK   16  A    between atoms: C_28  and  C_38
REMARK   17  A    between atoms: C_30  and  C_37
REMARK                            x       y       z     vdW  Elec       q    Type
REMARK                         _______ _______ _______ _____ _____    ______ ____
ROOT
ATOM      1  N   UNL     1       5.534   5.409  -1.875  0.00  0.00    +0.392 N 
ATOM      2  H   UNL     1       5.689   4.447  -2.199  0.00  0.00    -0.080 HD
ENDROOT
BRANCH   1   3
ATOM      3  C   UNL     1       4.228   5.882  -2.381  0.00  0.00    +0.003 C 
BRANCH   3   4
ATOM      4  C   UNL     1       3.950   5.203  -3.698  0.00  0.00    +0.139 A 
ATOM      5  N   UNL     1       4.833   4.859  -4.603  0.00  0.00    -0.115 NA
ATOM      6  N   UNL     1       4.205   4.306  -5.583  0.00  0.00    -0.023 NA
ATOM      7  N   UNL     1       2.943   4.288  -5.325  0.00  0.00    -0.043 NA
ATOM      8  N   UNL     1       2.747   4.828  -4.170  0.00  0.00    -0.225 N 
BRANCH   8   9
ATOM      9  C   UNL     1       1.456   5.002  -3.499  0.00  0.00    +0.061 C 
ATOM     10  C   UNL     1       1.374   4.058  -2.298  0.00  0.00    +0.036 C 
ATOM     11  C   UNL     1       1.320   6.449  -3.022  0.00  0.00    +0.036 C 
BRANCH   9  12
ATOM     12  C   UNL     1       0.325   4.680  -4.478  0.00  0.00    +0.026 C 
ATOM     13  C   UNL     1      -1.023   4.861  -3.778  0.00  0.00    +0.006 C 
ENDBRANCH   9  12
ENDBRANCH   8   9
ENDBRANCH   3   4
BRANCH   3  15
ATOM     14  C   UNL     1       4.402   8.091  -1.228  0.00  0.00    +0.002 C 
ATOM     15  C   UNL     1       4.251   7.398  -2.584  0.00  0.00    -0.011 C 
ENDBRANCH   3  15
ENDBRANCH   1   3
BRANCH   1  16
ATOM     16  C   UNL     1       6.618   6.270  -2.394  0.00  0.00    -0.042 C 
BRANCH  16  17
ATOM     17  C   UNL     1       6.851   5.932  -3.844  0.00  0.00    -0.064 A 
ATOM     18  C   UNL     1       7.563   4.796  -4.182  0.00  0.00    +0.005 A 
ATOM     19  C   UNL     1       7.773   4.481  -5.511  0.00  0.00    +0.046 A 
ATOM     20  C   UNL     1       7.280   5.312  -6.506  0.00  0.00    +0.120 A 
ATOM     21  C   UNL     1       6.572   6.455  -6.164  0.00  0.00    +0.046 A 
ATOM     22  C   UNL     1       6.359   6.763  -4.834  0.00  0.00    +0.005 A 
BRANCH  20  23
ATOM     23  O   UNL     1       7.491   5.008  -7.814  0.00  0.00    -0.495 OA
ATOM     24  C   UNL     1       8.228   3.816  -8.091  0.00  0.00    +0.277 C 
ENDBRANCH  20  23
ENDBRANCH  16  17
ENDBRANCH   1  16
BRANCH   1  25
ATOM     25  C   UNL     1       5.539   5.426  -0.398  0.00  0.00    -0.036 C 
BRANCH  25  26
ATOM     26  C   UNL     1       4.795   4.215   0.101  0.00  0.00    +0.001 A 
ATOM     27  C   UNL     1       5.468   3.065   0.354  0.00  0.00    +0.017 A 
ATOM     28  C   UNL     1       4.715   1.906   0.838  0.00  0.00    +0.002 A 
ATOM     29  C   UNL     1       5.354   0.693   1.115  0.00  0.00    -0.041 A 
ATOM     30  C   UNL     1       4.622  -0.370   1.564  0.00  0.00    +0.007 A 
ATOM     31  C   UNL     1       3.251  -0.258   1.747  0.00  0.00    -0.048 A 
ATOM     32  C   UNL     1       2.601   0.928   1.480  0.00  0.00    +0.029 A 
ATOM     33  C   UNL     1       3.324   2.024   1.022  0.00  0.00    +0.050 A 
ATOM     34  N   UNL     1       2.700   3.221   0.746  0.00  0.00    -0.322 N 
ATOM     35  H   UNL     1       1.741   3.301   0.874  0.00  0.00    +0.169 HD
ATOM     36  C   UNL     1       3.399   4.281   0.303  0.00  0.00    +0.251 A 
ATOM     37  O   UNL     1       2.814   5.324   0.069  0.00  0.00    -0.268 OA
ATOM     38  C   UNL     1       2.465  -1.444   2.243  0.00  0.00    +0.044 C 
ATOM     39  C   UNL     1       6.842   0.559   0.920  0.00  0.00    +0.044 C 
ENDBRANCH  25  26
ENDBRANCH   1  25
TORSDOF 10
