REMARK  Name = ZINC16930158
REMARK  6 active torsions:
REMARK  status: ('A' for Active; 'I' for Inactive)
REMARK    1  A    between atoms: C_4  and  C_7
REMARK    2  A    between atoms: C_8  and  N_21
REMARK    3  A    between atoms: C_9  and  C_15
REMARK    4  A    between atoms: N_10  and  C_12
REMARK    5  A    between atoms: C_12  and  N_14
REMARK    6  A    between atoms: N_22  and  C_23
REMARK                            x       y       z     vdW  Elec       q    Type
REMARK                         _______ _______ _______ _____ _____    ______ ____
ROOT
ATOM      1  C   UNL     1       3.838  -0.509  -0.139  0.00  0.00    +0.121 A 
ATOM      2  C   UNL     1       3.973  -1.596   0.837  0.00  0.00    +0.140 A 
ATOM      3  C   UNL     1       5.180  -2.230   0.553  0.00  0.00    +0.104 A 
ATOM      4  N   UNL     1       5.739  -1.582  -0.512  0.00  0.00    -0.209 N 
ATOM      5  N   UNL     1       4.896  -0.542  -0.915  0.00  0.00    -0.162 NA
ENDROOT
BRANCH   1   9
ATOM      6  C   UNL     1       0.604   2.236  -0.416  0.00  0.00    +0.000 A 
ATOM      7  C   UNL     1       1.146   1.933   0.820  0.00  0.00    +0.001 A 
ATOM      8  C   UNL     1       2.196   1.042   0.916  0.00  0.00    +0.010 A 
ATOM      9  C   UNL     1       2.710   0.447  -0.236  0.00  0.00    +0.004 A 
ATOM     10  C   UNL     1       2.159   0.756  -1.478  0.00  0.00    +0.010 A 
ATOM     11  C   UNL     1       1.109   1.648  -1.562  0.00  0.00    +0.001 A 
ENDBRANCH   1   9
BRANCH   3  12
ATOM     12  C   UNL     1       5.750  -3.386   1.270  0.00  0.00    +0.003 A 
ATOM     13  C   UNL     1       6.909  -3.236   2.036  0.00  0.00    +0.010 A 
ATOM     14  C   UNL     1       7.436  -4.321   2.704  0.00  0.00    +0.001 A 
ATOM     15  C   UNL     1       6.820  -5.557   2.617  0.00  0.00    +0.000 A 
ATOM     16  C   UNL     1       5.672  -5.714   1.860  0.00  0.00    +0.001 A 
ATOM     17  C   UNL     1       5.131  -4.636   1.192  0.00  0.00    +0.010 A 
ENDBRANCH   3  12
BRANCH   4  18
ATOM     18  C   UNL     1       6.916  -1.899  -1.087  0.00  0.00    +0.164 C 
ATOM     19  S   UNL     1       7.898  -3.126  -0.407  0.00  0.00    -0.014 S 
BRANCH  18  20
ATOM     20  N   UNL     1       7.321  -1.250  -2.196  0.00  0.00    -0.337 N 
ATOM     21  H   UNL     1       6.764  -0.554  -2.582  0.00  0.00    +0.144 HD
ATOM     22  H   UNL     1       8.168  -1.477  -2.610  0.00  0.00    +0.144 HD
ENDBRANCH  18  20
ENDBRANCH   4  18
BRANCH   2  23
ATOM     23  N   UNL     1       3.094  -1.919   1.822  0.00  0.00    -0.145 NA
ATOM     24  N   UNL     1       1.983  -1.272   1.935  0.00  0.00    -0.149 NA
BRANCH  24  25
ATOM     25  C   UNL     1       1.100  -1.598   2.925  0.00  0.00    +0.086 A 
ATOM     26  C   UNL     1       1.399  -2.628   3.822  0.00  0.00    +0.030 A 
ATOM     27  C   UNL     1       0.503  -2.951   4.819  0.00  0.00    +0.017 A 
ATOM     28  C   UNL     1      -0.691  -2.258   4.933  0.00  0.00    +0.018 A 
ATOM     29  C   UNL     1      -0.994  -1.237   4.048  0.00  0.00    +0.017 A 
ATOM     30  C   UNL     1      -0.104  -0.899   3.050  0.00  0.00    +0.030 A 
ATOM     31 BR   UNL     1      -1.914  -2.709   6.303  0.00  0.00    -0.050 Br
ENDBRANCH  24  25
ENDBRANCH   2  23
TORSDOF 6
