REMARK  Name = ZINC23251083
REMARK  10 active torsions:
REMARK  status: ('A' for Active; 'I' for Inactive)
REMARK    1  A    between atoms: C_1  and  C_2
REMARK    2  A    between atoms: C_3  and  C_8
REMARK    3  A    between atoms: C_5  and  C_7
REMARK    4  A    between atoms: C_8  and  C_10
REMARK    5  A    between atoms: C_8  and  N_11
REMARK    6  A    between atoms: C_12  and  C_14
REMARK    7  A    between atoms: C_21  and  C_23
REMARK    8  A    between atoms: C_23  and  C_24
REMARK    9  A    between atoms: C_24  and  O_25
REMARK   10  A    between atoms: O_25  and  C_26
REMARK                            x       y       z     vdW  Elec       q    Type
REMARK                         _______ _______ _______ _____ _____    ______ ____
ROOT
ATOM      1  N   UNL     1      -0.698   1.558   1.213  0.00  0.00    -0.303 N 
ATOM      2  C   UNL     1      -0.575   0.877   2.369  0.00  0.00    +0.245 C 
ATOM      3  O   UNL     1       0.105  -0.130   2.412  0.00  0.00    -0.270 OA
ATOM      4  H   UNL     1      -1.314   2.469   1.175  0.00  0.00    +0.150 HD
ENDROOT
BRANCH   2   5
ATOM      5  C   UNL     1      -1.266   1.353   3.584  0.00  0.00    +0.040 A 
ATOM      6  C   UNL     1      -2.045   2.516   3.535  0.00  0.00    +0.015 A 
ATOM      7  C   UNL     1      -2.692   2.961   4.648  0.00  0.00    +0.032 A 
ATOM      8  C   UNL     1      -2.572   2.263   5.854  0.00  0.00    +0.110 A 
ATOM      9  C   UNL     1      -1.788   1.098   5.913  0.00  0.00    +0.156 A 
ATOM     10  C   UNL     1      -1.138   0.646   4.779  0.00  0.00    +0.061 A 
ATOM     11  O   UNL     1      -1.865   0.656   7.188  0.00  0.00    -0.440 OA
ATOM     12  C   UNL     1      -2.651   1.498   7.875  0.00  0.00    +0.199 A 
ATOM     13  N   UNL     1      -3.075   2.453   7.101  0.00  0.00    -0.213 NA
BRANCH  12  14
ATOM     14  C   UNL     1      -2.992   1.359   9.337  0.00  0.00    +0.124 C 
BRANCH  14  15
ATOM     15  C   UNL     1      -4.261   0.518   9.486  0.00  0.00    +0.169 C 
BRANCH  15  16
ATOM     16  O   UNL     1      -4.584   0.386  10.872  0.00  0.00    -0.382 OA
ATOM     17  C   UNL     1      -5.760  -0.386  11.124  0.00  0.00    +0.194 C 
ENDBRANCH  15  16
ENDBRANCH  14  15
ENDBRANCH  12  14
ENDBRANCH   2   5
BRANCH   1  18
ATOM     18  C   UNL     1      -0.013   1.086   0.008  0.00  0.00    +0.120 C 
ATOM     19  C   UNL     1       1.423   1.615  -0.003  0.00  0.00    +0.034 C 
BRANCH  18  22
ATOM     20  C   UNL     1      -0.639  -0.696  -2.444  0.00  0.00    +0.053 C 
ATOM     21  C   UNL     1      -0.990   0.759  -2.261  0.00  0.00    +0.011 A 
ATOM     22  C   UNL     1      -0.742   1.585  -1.213  0.00  0.00    +0.071 A 
ATOM     23  N   UNL     1      -1.148   2.835  -1.291  0.00  0.00    -0.247 NA
ATOM     24  C   UNL     1      -1.784   3.283  -2.349  0.00  0.00    +0.076 A 
ATOM     25  S   UNL     1      -1.850   1.873  -3.361  0.00  0.00    -0.077 S 
ATOM     26  C   UNL     1      -2.320   4.666  -2.616  0.00  0.00    +0.073 C 
ENDBRANCH  18  22
ENDBRANCH   1  18
TORSDOF 6
