REMARK  Name = ZINC09647976
REMARK  12 active torsions:
REMARK  status: ('A' for Active; 'I' for Inactive)
REMARK    1  A    between atoms: C_1  and  C_2
REMARK    2  A    between atoms: C_2  and  C_3
REMARK    3  A    between atoms: C_6  and  N_9
REMARK    4  A    between atoms: C_10  and  C_12
REMARK    5  A    between atoms: C_12  and  C_14
REMARK    6  A    between atoms: C_12  and  O_15
REMARK    7  A    between atoms: O_15  and  C_16
REMARK    8  A    between atoms: C_16  and  C_18
REMARK    9  A    between atoms: C_21  and  O_34
REMARK   10  A    between atoms: C_22  and  S_24
REMARK   11  A    between atoms: S_24  and  N_27
REMARK   12  A    between atoms: O_34  and  C_35
REMARK                            x       y       z     vdW  Elec       q    Type
REMARK                         _______ _______ _______ _____ _____    ______ ____
ROOT
ATOM      1  C   UNL     1       4.666   0.639  -0.928  0.00  0.00    +0.061 A 
ATOM      2  C   UNL     1       4.634  -0.674  -0.448  0.00  0.00    +0.018 A 
ATOM      3  C   UNL     1       5.726  -1.494  -0.620  0.00  0.00    +0.048 A 
ATOM      4  C   UNL     1       6.864  -1.016  -1.260  0.00  0.00    +0.146 A 
ATOM      5  C   UNL     1       6.902   0.290  -1.734  0.00  0.00    +0.148 A 
ATOM      6  C   UNL     1       5.812   1.116  -1.571  0.00  0.00    +0.047 A 
ENDROOT
BRANCH   5   7
ATOM      7  S   UNL     1       8.347   0.890  -2.544  0.00  0.00    +0.064 S 
ATOM      8  O   UNL     1       8.701  -0.083  -3.517  0.00  0.00    -0.153 OA
ATOM      9  O   UNL     1       8.089   2.246  -2.882  0.00  0.00    -0.153 OA
BRANCH   7  10
ATOM     10  N   UNL     1       9.566   0.905  -1.424  0.00  0.00    -0.176 NA
ATOM     11  C   UNL     1       9.768   2.101  -0.636  0.00  0.00    +0.109 C 
ATOM     12  C   UNL     1      10.742   3.051  -1.364  0.00  0.00    +0.017 C 
ATOM     13  C   UNL     1      12.107   2.505  -1.332  0.00  0.00    +0.001 C 
ATOM     14  C   UNL     1      12.268   1.172  -2.056  0.00  0.00    +0.001 C 
ATOM     15  C   UNL     1      11.897   0.048  -1.120  0.00  0.00    +0.017 C 
ATOM     16  C   UNL     1      10.405  -0.300  -1.275  0.00  0.00    +0.109 C 
ENDBRANCH   7  10
ENDBRANCH   5   7
BRANCH   1  17
ATOM     17  C   UNL     1       3.497   1.520  -0.751  0.00  0.00    +0.340 C 
ATOM     18  O   UNL     1       3.528   2.662  -1.165  0.00  0.00    -0.245 OA
BRANCH  17  19
ATOM     19  O   UNL     1       2.393   1.058  -0.131  0.00  0.00    -0.449 OA
BRANCH  19  20
ATOM     20  C   UNL     1       1.280   1.980   0.007  0.00  0.00    +0.259 C 
ATOM     21  C   UNL     1       1.416   2.748   1.324  0.00  0.00    +0.062 C 
BRANCH  20  23
ATOM     22  N   UNL     1      -1.191   1.867   0.018  0.00  0.00    -0.282 N 
ATOM     23  C   UNL     1      -0.014   1.209   0.007  0.00  0.00    +0.258 C 
ATOM     24  O   UNL     1       0.002  -0.004  -0.008  0.00  0.00    -0.271 OA
ATOM     25  H   UNL     1      -1.205   2.833   0.098  0.00  0.00    +0.155 HD
BRANCH  22  29
ATOM     26  C   UNL     1      -4.764  -0.252  -0.292  0.00  0.00    -0.048 A 
ATOM     27  C   UNL     1      -3.696  -0.798   0.395  0.00  0.00    +0.005 A 
ATOM     28  C   UNL     1      -2.510  -0.099   0.499  0.00  0.00    +0.023 A 
ATOM     29  C   UNL     1      -2.391   1.155  -0.086  0.00  0.00    +0.034 A 
ATOM     30  C   UNL     1      -3.468   1.704  -0.769  0.00  0.00    +0.023 A 
ATOM     31  C   UNL     1      -4.650   0.997  -0.875  0.00  0.00    +0.005 A 
BRANCH  26  33
ATOM     32  C   UNL     1      -6.964  -0.665   0.776  0.00  0.00    +0.009 C 
ATOM     33  C   UNL     1      -6.057  -1.018  -0.404  0.00  0.00    +0.032 C 
ENDBRANCH  26  33
ENDBRANCH  22  29
ENDBRANCH  20  23
ENDBRANCH  19  20
ENDBRANCH  17  19
ENDBRANCH   1  17
BRANCH   4  34
ATOM     34  O   UNL     1       7.940  -1.826  -1.423  0.00  0.00    -0.493 OA
ATOM     35  C   UNL     1       7.833  -3.157  -0.912  0.00  0.00    +0.277 C 
ENDBRANCH   4  34
TORSDOF 9
