REMARK  Name = ZINC31161115
REMARK  7 active torsions:
REMARK  status: ('A' for Active; 'I' for Inactive)
REMARK    1  A    between atoms: C_1  and  C_2
REMARK    2  A    between atoms: C_4  and  O_32
REMARK    3  A    between atoms: C_6  and  O_31
REMARK    4  A    between atoms: C_9  and  C_12
REMARK    5  A    between atoms: C_19  and  C_21
REMARK    6  A    between atoms: C_27  and  O_30
REMARK    7  A    between atoms: C_28  and  O_29
REMARK                            x       y       z     vdW  Elec       q    Type
REMARK                         _______ _______ _______ _____ _____    ______ ____
ROOT
ATOM      1  C   UNL     1       1.560  -2.284   2.478  0.00  0.00    +0.030 A 
ATOM      2  C   UNL     1       1.585  -1.424   3.558  0.00  0.00    +0.057 A 
ATOM      3  C   UNL     1       2.288  -1.766   4.704  0.00  0.00    +0.143 A 
ATOM      4  C   UNL     1       2.971  -2.993   4.755  0.00  0.00    +0.109 A 
ATOM      5  C   UNL     1       3.711  -3.336   5.983  0.00  0.00    +0.197 A 
ATOM      6  O   UNL     1       4.322  -4.387   6.083  0.00  0.00    -0.287 OA
ATOM      7  C   UNL     1       3.684  -2.397   7.042  0.00  0.00    +0.098 A 
ATOM      8  C   UNL     1       2.992  -1.236   6.891  0.00  0.00    +0.139 A 
ATOM      9  O   UNL     1       2.322  -0.936   5.768  0.00  0.00    -0.454 OA
ATOM     10  C   UNL     1       2.942  -3.860   3.659  0.00  0.00    +0.173 A 
ATOM     11  C   UNL     1       2.228  -3.499   2.523  0.00  0.00    +0.165 A 
ENDROOT
BRANCH   1  17
ATOM     12  C   UNL     1      -0.019   1.526   0.010  0.00  0.00    +0.040 C 
ATOM     13  C   UNL     1       0.002  -0.004   0.002  0.00  0.00    +0.147 C 
ATOM     14  C   UNL     1      -1.434  -0.534   0.013  0.00  0.00    +0.171 C 
ATOM     15  C   UNL     1      -1.405  -2.065   0.066  0.00  0.00    +0.148 C 
ATOM     16  C   UNL     1      -0.612  -2.507   1.299  0.00  0.00    +0.070 C 
ATOM     17  C   UNL     1       0.793  -1.901   1.238  0.00  0.00    +0.155 C 
ATOM     18  O   UNL     1       0.693  -0.478   1.160  0.00  0.00    -0.366 OA
BRANCH  15  19
ATOM     19  O   UNL     1      -2.740  -2.566   0.149  0.00  0.00    -0.389 OA
ATOM     20  H   UNL     1      -2.797  -3.531   0.185  0.00  0.00    +0.210 HD
ENDBRANCH  15  19
BRANCH  14  21
ATOM     21  O   UNL     1      -2.110  -0.109  -1.172  0.00  0.00    -0.387 OA
ATOM     22  H   UNL     1      -2.161   0.852  -1.272  0.00  0.00    +0.210 HD
ENDBRANCH  14  21
ENDBRANCH   1  17
BRANCH   8  23
ATOM     23  C   UNL     1       2.976  -0.269   8.007  0.00  0.00    +0.017 A 
ATOM     24  C   UNL     1       3.668  -0.549   9.188  0.00  0.00    +0.011 A 
ATOM     25  C   UNL     1       3.649   0.359  10.226  0.00  0.00    +0.001 A 
ATOM     26  C   UNL     1       2.947   1.545  10.100  0.00  0.00    +0.000 A 
ATOM     27  C   UNL     1       2.259   1.828   8.933  0.00  0.00    +0.001 A 
ATOM     28  C   UNL     1       2.274   0.932   7.885  0.00  0.00    +0.011 A 
ENDBRANCH   8  23
BRANCH  11  29
ATOM     29  O   UNL     1       2.188  -4.337   1.452  0.00  0.00    -0.503 OA
ATOM     30  H   UNL     1       2.899  -4.194   0.813  0.00  0.00    +0.292 HD
ENDBRANCH  11  29
BRANCH  10  31
ATOM     31  O   UNL     1       3.602  -5.046   3.705  0.00  0.00    -0.503 OA
ATOM     32  H   UNL     1       3.071  -5.779   4.045  0.00  0.00    +0.292 HD
ENDBRANCH  10  31
TORSDOF 6
