REMARK  Name = ZINC40401402
REMARK  12 active torsions:
REMARK  status: ('A' for Active; 'I' for Inactive)
REMARK    1  A    between atoms: C_1  and  C_2
REMARK    2  A    between atoms: C_7  and  C_8
REMARK    3  A    between atoms: C_8  and  N_9
REMARK    4  A    between atoms: N_9  and  C_10
REMARK    5  A    between atoms: N_9  and  C_22
REMARK    6  A    between atoms: C_10  and  C_11
REMARK    7  A    between atoms: C_11  and  C_12
REMARK    8  A    between atoms: C_22  and  C_23
REMARK    9  A    between atoms: C_25  and  C_28
REMARK   10  A    between atoms: N_30  and  C_31
REMARK   11  A    between atoms: C_31  and  C_32
REMARK   12  A    between atoms: C_31  and  C_33
REMARK                            x       y       z     vdW  Elec       q    Type
REMARK                         _______ _______ _______ _____ _____    ______ ____
ROOT
ATOM      1  N   UNL     1      -1.318   0.589   2.751  0.00  0.00    +0.388 N 
ATOM      2  H   UNL     1      -1.611   1.030   1.892  0.00  0.00    -0.081 HD
ENDROOT
BRANCH   1   3
ATOM      3  C   UNL     1       0.046   0.066   2.593  0.00  0.00    -0.042 C 
BRANCH   3  10
ATOM      4  C   UNL     1       0.229   1.195  -0.060  0.00  0.00    +0.044 C 
ATOM      5  C   UNL     1       0.189  -0.300   0.121  0.00  0.00    -0.049 A 
ATOM      6  C   UNL     1       0.245  -1.132  -0.981  0.00  0.00    +0.003 A 
ATOM      7  C   UNL     1       0.207  -2.504  -0.815  0.00  0.00    +0.000 A 
ATOM      8  C   UNL     1       0.115  -3.044   0.454  0.00  0.00    +0.000 A 
ATOM      9  C   UNL     1       0.059  -2.212   1.557  0.00  0.00    +0.002 A 
ATOM     10  C   UNL     1       0.101  -0.840   1.391  0.00  0.00    -0.061 A 
ENDBRANCH   3  10
ENDBRANCH   1   3
BRANCH   1  11
ATOM     11  C   UNL     1      -1.343   1.573   3.841  0.00  0.00    -0.073 C 
BRANCH  11  12
ATOM     12  C   UNL     1      -0.488   2.782   3.455  0.00  0.00    +0.019 C 
BRANCH  12  13
ATOM     13  C   UNL     1      -0.513   3.792   4.573  0.00  0.00    -0.024 A 
ATOM     14  C   UNL     1      -1.335   4.849   4.676  0.00  0.00    +0.087 A 
ATOM     15  N   UNL     1      -1.065   5.540   5.826  0.00  0.00    -0.360 N 
ATOM     16  H   UNL     1      -1.529   6.340   6.117  0.00  0.00    +0.165 HD
ATOM     17  C   UNL     1      -0.036   4.929   6.508  0.00  0.00    +0.047 A 
ATOM     18  C   UNL     1       0.351   3.805   5.756  0.00  0.00    +0.003 A 
ATOM     19  C   UNL     1       1.382   2.982   6.212  0.00  0.00    +0.010 A 
ATOM     20  C   UNL     1       2.010   3.272   7.391  0.00  0.00    +0.001 A 
ATOM     21  C   UNL     1       1.629   4.378   8.139  0.00  0.00    +0.002 A 
ATOM     22  C   UNL     1       0.620   5.209   7.702  0.00  0.00    +0.026 A 
ENDBRANCH  12  13
ENDBRANCH  11  12
ENDBRANCH   1  11
BRANCH   1  23
ATOM     23  C   UNL     1      -2.232  -0.517   3.069  0.00  0.00    +0.019 C 
BRANCH  23  24
ATOM     24  C   UNL     1      -3.649  -0.005   3.095  0.00  0.00    +0.179 A 
ATOM     25  N   UNL     1      -4.421   0.124   2.058  0.00  0.00    -0.210 NA
ATOM     26  C   UNL     1      -5.622   0.612   2.472  0.00  0.00    +0.163 A 
ATOM     27  C   UNL     1      -5.543   0.776   3.821  0.00  0.00    +0.230 A 
ATOM     28  O   UNL     1      -4.314   0.383   4.192  0.00  0.00    -0.449 OA
BRANCH  26  29
ATOM     29  C   UNL     1      -6.788   0.909   1.620  0.00  0.00    +0.266 C 
ATOM     30  O   UNL     1      -7.775   1.431   2.102  0.00  0.00    -0.268 OA
ATOM     31  N   UNL     1      -6.759   0.602   0.308  0.00  0.00    -0.308 N 
ATOM     32  H   UNL     1      -6.003   0.120  -0.061  0.00  0.00    +0.149 HD
BRANCH  31  33
ATOM     33  C   UNL     1      -7.871   0.997  -0.560  0.00  0.00    +0.067 C 
ATOM     34  C   UNL     1      -7.374   1.116  -2.002  0.00  0.00    +0.027 C 
ATOM     35  C   UNL     1      -8.975  -0.060  -0.487  0.00  0.00    +0.027 C 
ENDBRANCH  31  33
ENDBRANCH  26  29
ENDBRANCH  23  24
ENDBRANCH   1  23
TORSDOF 9
