REMARK  Name = ZINC36145498
REMARK  16 active torsions:
REMARK  status: ('A' for Active; 'I' for Inactive)
REMARK    1  A    between atoms: C_1  and  O_2
REMARK    2  A    between atoms: O_2  and  C_3
REMARK    3  A    between atoms: C_3  and  C_4
REMARK    4  A    between atoms: C_4  and  N_5
REMARK    5  A    between atoms: N_5  and  C_6
REMARK    6  A    between atoms: N_5  and  C_12
REMARK    7  A    between atoms: C_6  and  C_7
REMARK    8  A    between atoms: C_12  and  C_13
REMARK    9  A    between atoms: C_16  and  C_18
REMARK   10  A    between atoms: C_18  and  C_19
REMARK   11  A    between atoms: C_18  and  C_27
REMARK   12  A    between atoms: C_18  and  O_35
REMARK   13  A    between atoms: C_22  and  O_25
REMARK   14  A    between atoms: O_25  and  C_26
REMARK   15  A    between atoms: C_30  and  O_33
REMARK   16  A    between atoms: O_33  and  C_34
REMARK                            x       y       z     vdW  Elec       q    Type
REMARK                         _______ _______ _______ _____ _____    ______ ____
ROOT
ATOM      1  C   UNL     1       1.919  -5.080  -4.205  0.00  0.00    +0.174 C 
ENDROOT
BRANCH   1   2
ATOM      2  C   UNL     1       0.630  -5.854  -4.114  0.00  0.00    -0.004 A 
ATOM      3  C   UNL     1       0.595  -7.184  -4.491  0.00  0.00    +0.011 A 
ATOM      4  C   UNL     1      -0.586  -7.896  -4.409  0.00  0.00    +0.046 A 
ATOM      5  C   UNL     1      -1.738  -7.276  -3.948  0.00  0.00    +0.120 A 
ATOM      6  C   UNL     1      -1.700  -5.941  -3.570  0.00  0.00    +0.046 A 
ATOM      7  C   UNL     1      -0.515  -5.235  -3.649  0.00  0.00    +0.011 A 
BRANCH   5   8
ATOM      8  O   UNL     1      -2.901  -7.974  -3.867  0.00  0.00    -0.495 OA
ATOM      9  C   UNL     1      -4.047  -7.271  -3.383  0.00  0.00    +0.277 C 
ENDBRANCH   5   8
ENDBRANCH   1   2
BRANCH   1  10
ATOM     10  C   UNL     1       1.696  -3.824  -5.007  0.00  0.00    -0.004 A 
ATOM     11  C   UNL     1       1.104  -2.724  -4.414  0.00  0.00    +0.011 A 
ATOM     12  C   UNL     1       0.897  -1.571  -5.147  0.00  0.00    +0.046 A 
ATOM     13  C   UNL     1       1.284  -1.518  -6.478  0.00  0.00    +0.120 A 
ATOM     14  C   UNL     1       1.878  -2.623  -7.070  0.00  0.00    +0.046 A 
ATOM     15  C   UNL     1       2.088  -3.771  -6.332  0.00  0.00    +0.011 A 
BRANCH  13  16
ATOM     16  O   UNL     1       1.082  -0.385  -7.201  0.00  0.00    -0.495 OA
ATOM     17  C   UNL     1       1.505  -0.402  -8.566  0.00  0.00    +0.277 C 
ENDBRANCH  13  16
ENDBRANCH   1  10
BRANCH   1  21
ATOM     18  C   UNL     1       2.350  -4.191  -0.690  0.00  0.00    +0.089 A 
ATOM     19  C   UNL     1       3.642  -4.220  -1.063  0.00  0.00    +0.043 A 
ATOM     20  C   UNL     1       3.665  -4.557  -2.435  0.00  0.00    +0.048 A 
ATOM     21  C   UNL     1       2.385  -4.715  -2.819  0.00  0.00    +0.146 A 
ATOM     22  O   UNL     1       1.593  -4.498  -1.756  0.00  0.00    -0.463 OA
BRANCH  18  23
ATOM     23  C   UNL     1       1.838  -3.876   0.692  0.00  0.00    -0.002 C 
BRANCH  23  24
ATOM     24  N   UNL     1       1.599  -2.431   0.807  0.00  0.00    +0.391 N 
ATOM     25  H   UNL     1       2.441  -1.930   0.566  0.00  0.00    -0.081 HD
BRANCH  24  26
ATOM     26  C   UNL     1       0.517  -2.039  -0.107  0.00  0.00    -0.049 C 
BRANCH  26  27
ATOM     27  C   UNL     1       0.373  -0.516  -0.103  0.00  0.00    +0.141 C 
BRANCH  27  29
ATOM     28  C   UNL     1       1.520   1.504  -0.694  0.00  0.00    +0.193 C 
ATOM     29  O   UNL     1       1.552   0.076  -0.651  0.00  0.00    -0.385 OA
ENDBRANCH  27  29
ENDBRANCH  26  27
ENDBRANCH  24  26
BRANCH  24  30
ATOM     30  C   UNL     1       1.215  -2.107   2.188  0.00  0.00    -0.002 C 
BRANCH  30  31
ATOM     31  C   UNL     1       2.376  -2.378   3.109  0.00  0.00    +0.089 A 
ATOM     32  C   UNL     1       3.384  -1.529   3.375  0.00  0.00    +0.042 A 
ATOM     33  C   UNL     1       4.245  -2.187   4.283  0.00  0.00    +0.041 A 
ATOM     34  C   UNL     1       3.712  -3.399   4.518  0.00  0.00    +0.195 A 
ATOM     35  O   UNL     1       2.576  -3.507   3.808  0.00  0.00    -0.470 OA
ENDBRANCH  30  31
ENDBRANCH  24  30
ENDBRANCH  23  24
ENDBRANCH  18  23
ENDBRANCH   1  21
BRANCH   1  36
ATOM     36  O   UNL     1       2.913  -5.883  -4.846  0.00  0.00    -0.372 OA
ATOM     37  H   UNL     1       3.771  -5.447  -4.938  0.00  0.00    +0.212 HD
ENDBRANCH   1  36
TORSDOF 13
