REMARK  Name = ZINC58914313
REMARK  11 active torsions:
REMARK  status: ('A' for Active; 'I' for Inactive)
REMARK    1  A    between atoms: C_1  and  C_2
REMARK    2  A    between atoms: C_4  and  C_15
REMARK    3  A    between atoms: C_5  and  C_14
REMARK    4  A    between atoms: N_6  and  C_7
REMARK    5  A    between atoms: N_16  and  N_17
REMARK    6  A    between atoms: C_18  and  C_20
REMARK    7  A    between atoms: C_20  and  N_21
REMARK    8  A    between atoms: N_21  and  C_22
REMARK    9  A    between atoms: N_21  and  S_28
REMARK   10  A    between atoms: C_22  and  C_23
REMARK   11  A    between atoms: S_28  and  C_31
REMARK                            x       y       z     vdW  Elec       q    Type
REMARK                         _______ _______ _______ _____ _____    ______ ____
ROOT
ATOM      1  N   UNL     1      -0.170  -4.642   0.446  0.00  0.00    -0.206 N 
ATOM      2  C   UNL     1      -0.258  -5.867   1.001  0.00  0.00    +0.248 C 
ATOM      3  O   UNL     1      -0.359  -6.848   0.294  0.00  0.00    -0.273 OA
ATOM      4  H   UNL     1      -0.089  -3.858   1.011  0.00  0.00    +0.177 HD
ENDROOT
BRANCH   1   6
ATOM      5  C   UNL     1      -0.227  -3.318  -1.480  0.00  0.00    +0.140 C 
ATOM      6  N   UNL     1      -0.196  -4.501  -0.948  0.00  0.00    -0.188 NA
BRANCH   5  10
ATOM      7  C   UNL     1      -1.521  -0.302   2.430  0.00  0.00    +0.064 C 
ATOM      8  C   UNL     1      -1.008  -0.817   1.110  0.00  0.00    +0.022 A 
ATOM      9  C   UNL     1      -1.024  -2.102   0.711  0.00  0.00    +0.032 A 
ATOM     10  C   UNL     1      -0.429  -2.132  -0.629  0.00  0.00    +0.016 A 
ATOM     11  C   UNL     1      -0.099  -0.841  -0.930  0.00  0.00    +0.030 A 
ATOM     12  N   UNL     1      -0.457  -0.054   0.120  0.00  0.00    -0.316 N 
ATOM     13  C   UNL     1       0.545  -0.370  -2.208  0.00  0.00    +0.064 C 
BRANCH  12  14
ATOM     14  C   UNL     1      -0.281   1.336   0.180  0.00  0.00    +0.065 A 
ATOM     15  C   UNL     1       0.896   1.867   0.688  0.00  0.00    +0.027 A 
ATOM     16  C   UNL     1       1.066   3.237   0.745  0.00  0.00    +0.002 A 
ATOM     17  C   UNL     1       0.065   4.079   0.297  0.00  0.00    +0.002 A 
ATOM     18  C   UNL     1      -1.109   3.554  -0.209  0.00  0.00    +0.022 A 
ATOM     19  C   UNL     1      -1.283   2.184  -0.275  0.00  0.00    +0.065 A 
ATOM     20 CL   UNL     1      -2.755   1.524  -0.918  0.00  0.00    -0.081 Cl
ENDBRANCH  12  14
ENDBRANCH   5  10
ENDBRANCH   1   6
BRANCH   2  21
ATOM     21  C   UNL     1      -0.230  -6.018   2.500  0.00  0.00    +0.207 C 
BRANCH  21  22
ATOM     22  N   UNL     1      -0.340  -7.437   2.850  0.00  0.00    -0.160 NA
BRANCH  22  23
ATOM     23  S   UNL     1      -1.819  -8.089   3.208  0.00  0.00    +0.062 S 
ATOM     24  O   UNL     1      -1.574  -9.233   4.015  0.00  0.00    -0.153 OA
ATOM     25  O   UNL     1      -2.644  -7.015   3.639  0.00  0.00    -0.153 OA
BRANCH  23  26
ATOM     26  C   UNL     1      -2.508  -8.678   1.696  0.00  0.00    +0.106 A 
ATOM     27  C   UNL     1      -3.287  -7.841   0.920  0.00  0.00    +0.028 A 
ATOM     28  C   UNL     1      -3.828  -8.303  -0.266  0.00  0.00    +0.002 A 
ATOM     29  C   UNL     1      -3.588  -9.601  -0.675  0.00  0.00    +0.000 A 
ATOM     30  C   UNL     1      -2.808 -10.438   0.101  0.00  0.00    +0.002 A 
ATOM     31  C   UNL     1      -2.264  -9.975   1.284  0.00  0.00    +0.028 A 
ENDBRANCH  23  26
ENDBRANCH  22  23
BRANCH  22  32
ATOM     32  C   UNL     1       0.859  -8.278   2.884  0.00  0.00    +0.184 C 
BRANCH  32  33
ATOM     33  C   UNL     1       1.528  -8.146   4.228  0.00  0.00    +0.120 A 
ATOM     34  C   UNL     1       1.285  -8.915   5.305  0.00  0.00    +0.046 A 
ATOM     35  C   UNL     1       2.127  -8.446   6.340  0.00  0.00    +0.041 A 
ATOM     36  C   UNL     1       2.833  -7.420   5.833  0.00  0.00    +0.195 A 
ATOM     37  O   UNL     1       2.470  -7.246   4.552  0.00  0.00    -0.466 OA
ENDBRANCH  32  33
ENDBRANCH  22  32
ENDBRANCH  21  22
ENDBRANCH   2  21
TORSDOF 9
