REMARK  Name = ZINC11591815
REMARK  9 active torsions:
REMARK  status: ('A' for Active; 'I' for Inactive)
REMARK    1  A    between atoms: C_1  and  C_2
REMARK    2  A    between atoms: C_2  and  C_3
REMARK    3  A    between atoms: C_6  and  N_9
REMARK    4  A    between atoms: C_12  and  C_15
REMARK    5  A    between atoms: C_15  and  S_16
REMARK    6  A    between atoms: S_16  and  C_17
REMARK    7  A    between atoms: C_20  and  C_23
REMARK    8  A    between atoms: N_21  and  N_22
REMARK    9  A    between atoms: C_28  and  C_30
REMARK                            x       y       z     vdW  Elec       q    Type
REMARK                         _______ _______ _______ _____ _____    ______ ____
ROOT
ATOM      1  N   UNL     1       8.190   3.786  -2.292  0.00  0.00    -0.219 N 
ATOM      2  C   UNL     1       7.461   3.284  -1.219  0.00  0.00    +0.172 A 
ATOM      3  N   UNL     1       6.195   2.917  -1.177  0.00  0.00    -0.228 NA
ATOM      4  C   UNL     1       5.653   2.457  -0.066  0.00  0.00    +0.061 A 
ATOM      5  C   UNL     1       6.428   2.373   1.043  0.00  0.00    +0.072 A 
ATOM      6  S   UNL     1       7.984   2.980   0.408  0.00  0.00    -0.060 S 
ATOM      7  C   UNL     1       7.629   3.853  -3.516  0.00  0.00    +0.223 C 
ATOM      8  O   UNL     1       6.461   3.561  -3.664  0.00  0.00    -0.275 OA
ATOM      9  C   UNL     1       8.453   4.289  -4.700  0.00  0.00    +0.110 C 
ENDROOT
BRANCH   1  13
ATOM     10  C   UNL     1      12.109   5.085  -1.723  0.00  0.00    -0.048 A 
ATOM     11  C   UNL     1      11.059   5.801  -1.179  0.00  0.00    +0.005 A 
ATOM     12  C   UNL     1       9.759   5.373  -1.365  0.00  0.00    +0.024 A 
ATOM     13  C   UNL     1       9.507   4.223  -2.101  0.00  0.00    +0.043 A 
ATOM     14  C   UNL     1      10.564   3.503  -2.642  0.00  0.00    +0.024 A 
ATOM     15  C   UNL     1      11.861   3.939  -2.457  0.00  0.00    +0.005 A 
BRANCH  10  17
ATOM     16  C   UNL     1      14.092   4.925  -0.243  0.00  0.00    +0.009 C 
ATOM     17  C   UNL     1      13.526   5.555  -1.517  0.00  0.00    +0.032 C 
ENDBRANCH  10  17
ENDBRANCH   1  13
BRANCH   4  18
ATOM     18  C   UNL     1       4.205   2.041  -0.029  0.00  0.00    +0.133 C 
BRANCH  18  19
ATOM     19  S   UNL     1       4.072   0.286  -0.453  0.00  0.00    -0.078 S 
BRANCH  19  20
ATOM     20  C   UNL     1       2.326   0.075  -0.336  0.00  0.00    +0.209 A 
ATOM     21  N   UNL     1       1.449   1.001  -0.020  0.00  0.00    -0.121 NA
ATOM     22  N   UNL     1       0.263   0.508  -0.027  0.00  0.00    -0.126 NA
ATOM     23  C   UNL     1       0.308  -0.766  -0.349  0.00  0.00    +0.188 A 
ATOM     24  N   UNL     1       1.632  -1.082  -0.557  0.00  0.00    -0.223 N 
BRANCH  23  25
ATOM     25  C   UNL     1      -0.839  -1.681  -0.466  0.00  0.00    +0.058 A 
ATOM     26  C   UNL     1      -2.176  -1.385  -0.542  0.00  0.00    +0.019 A 
ATOM     27  C   UNL     1      -3.077  -2.421  -0.651  0.00  0.00    +0.008 A 
ATOM     28  C   UNL     1      -2.617  -3.699  -0.670  0.00  0.00    +0.046 A 
ATOM     29  S   UNL     1      -0.852  -3.465  -0.538  0.00  0.00    -0.093 S 
ENDBRANCH  23  25
BRANCH  24  30
ATOM     30  N   UNL     1       2.146  -2.298  -0.910  0.00  0.00    -0.295 N 
ATOM     31  H   UNL     1       2.193  -2.393  -1.913  0.00  0.00    +0.163 HD
ATOM     32  H   UNL     1       3.052  -2.443  -0.490  0.00  0.00    +0.163 HD
ENDBRANCH  24  30
ENDBRANCH  19  20
ENDBRANCH  18  19
ENDBRANCH   4  18
TORSDOF 7
