REMARK  Name = ZINC01217812
REMARK  6 active torsions:
REMARK  status: ('A' for Active; 'I' for Inactive)
REMARK    1  A    between atoms: C_1  and  C_2
REMARK    2  A    between atoms: C_2  and  C_3
REMARK    3  A    between atoms: C_10  and  N_15
REMARK    4  A    between atoms: C_11  and  C_12
REMARK    5  A    between atoms: C_16  and  C_18
REMARK    6  A    between atoms: C_20  and  N_25
REMARK                            x       y       z     vdW  Elec       q    Type
REMARK                         _______ _______ _______ _____ _____    ______ ____
ROOT
ATOM      1  C   UNL     1       3.958  -1.296   0.339  0.00  0.00    -0.006 C 
ATOM      2  C   UNL     1       4.465  -0.117  -0.497  0.00  0.00    +0.008 C 
ATOM      3  C   UNL     1       3.798   1.178  -0.029  0.00  0.00    +0.037 C 
ATOM      4  C   UNL     1       2.288   0.974  -0.015  0.00  0.00    -0.023 A 
ATOM      5  C   UNL     1       1.753  -0.266  -0.016  0.00  0.00    -0.004 A 
ATOM      6  S   UNL     1       0.002  -0.004   0.002  0.00  0.00    -0.077 S 
ATOM      7  C   UNL     1      -0.021   1.728   0.011  0.00  0.00    +0.085 A 
ATOM      8  C   UNL     1       1.326   2.063   0.001  0.00  0.00    +0.068 A 
ATOM      9  C   UNL     1       2.492  -1.569  -0.028  0.00  0.00    +0.046 C 
ENDROOT
BRANCH   8  10
ATOM     10  C   UNL     1       1.762   3.463   0.004  0.00  0.00    +0.244 C 
ATOM     11  O   UNL     1       1.953   4.038   1.060  0.00  0.00    -0.270 OA
ATOM     12  N   UNL     1       1.950   4.113  -1.161  0.00  0.00    -0.325 N 
ATOM     13  H   UNL     1       1.798   3.655  -2.002  0.00  0.00    +0.145 HD
ATOM     14  H   UNL     1       2.239   5.039  -1.159  0.00  0.00    +0.145 HD
ENDBRANCH   8  10
BRANCH   7  15
ATOM     15  N   UNL     1      -1.119   2.574   0.022  0.00  0.00    -0.275 N 
ATOM     16  C   UNL     1      -2.365   2.062   0.026  0.00  0.00    +0.250 C 
ATOM     17  O   UNL     1      -2.526   0.857   0.020  0.00  0.00    -0.270 OA
ATOM     18  H   UNL     1      -0.990   3.536   0.026  0.00  0.00    +0.156 HD
BRANCH  16  19
ATOM     19  C   UNL     1      -3.535   2.964   0.036  0.00  0.00    +0.057 A 
ATOM     20  C   UNL     1      -3.353   4.348   0.042  0.00  0.00    +0.047 A 
ATOM     21  C   UNL     1      -4.449   5.185   0.052  0.00  0.00    +0.127 A 
ATOM     22  C   UNL     1      -5.728   4.656   0.056  0.00  0.00    +0.034 A 
ATOM     23  C   UNL     1      -5.917   3.286   0.050  0.00  0.00    +0.023 A 
ATOM     24  C   UNL     1      -4.828   2.436   0.035  0.00  0.00    +0.053 A 
ATOM     25 CL   UNL     1      -5.067   0.716   0.020  0.00  0.00    -0.083 Cl
BRANCH  21  26
ATOM     26  N   UNL     1      -4.257   6.652   0.058  0.00  0.00    +0.056 N 
ATOM     27  O   UNL     1      -3.133   7.120   0.055  0.00  0.00    -0.126 OA
ATOM     28  O   UNL     1      -5.224   7.393   0.067  0.00  0.00    -0.126 OA
ENDBRANCH  21  26
ENDBRANCH  16  19
ENDBRANCH   7  15
BRANCH   1  30
ATOM     29  C   UNL     1       4.377  -3.678   0.966  0.00  0.00    +0.004 C 
ATOM     30  C   UNL     1       4.803  -2.536   0.041  0.00  0.00    +0.000 C 
ENDBRANCH   1  30
TORSDOF 5
