REMARK  Name = ZINC16840974
REMARK  8 active torsions:
REMARK  status: ('A' for Active; 'I' for Inactive)
REMARK    1  A    between atoms: C_1  and  C_2
REMARK    2  A    between atoms: C_2  and  C_3
REMARK    3  A    between atoms: C_3  and  C_4
REMARK    4  A    between atoms: C_4  and  N_5
REMARK    5  A    between atoms: C_10  and  C_14
REMARK    6  A    between atoms: C_21  and  S_22
REMARK    7  A    between atoms: S_22  and  C_23
REMARK    8  A    between atoms: C_23  and  C_24
REMARK                            x       y       z     vdW  Elec       q    Type
REMARK                         _______ _______ _______ _____ _____    ______ ____
ROOT
ATOM      1  N   UNL     1      -0.698   1.558   1.213  0.00  0.00    -0.286 N 
ATOM      2  C   UNL     1      -0.345   2.738   1.767  0.00  0.00    +0.279 A 
ATOM      3  O   UNL     1       0.541   3.417   1.275  0.00  0.00    -0.265 OA
ATOM      4  C   UNL     1      -1.024   3.170   2.923  0.00  0.00    +0.131 A 
ATOM      5  C   UNL     1      -2.028   2.352   3.451  0.00  0.00    +0.104 A 
ATOM      6  C   UNL     1      -2.538   3.051   4.632  0.00  0.00    +0.026 A 
ATOM      7  C   UNL     1      -1.830   4.210   4.738  0.00  0.00    +0.093 A 
ATOM      8  N   UNL     1      -0.929   4.287   3.725  0.00  0.00    -0.355 N 
ATOM      9  H   UNL     1      -0.309   5.020   3.587  0.00  0.00    +0.166 HD
ATOM     10  N   UNL     1      -2.327   1.187   2.852  0.00  0.00    -0.221 NA
ATOM     11  C   UNL     1      -1.687   0.800   1.772  0.00  0.00    +0.173 A 
ENDROOT
BRANCH   6  12
ATOM     12  C   UNL     1      -3.616   2.588   5.539  0.00  0.00    -0.014 A 
ATOM     13  C   UNL     1      -4.836   2.164   5.015  0.00  0.00    +0.008 A 
ATOM     14  C   UNL     1      -5.834   1.729   5.863  0.00  0.00    +0.001 A 
ATOM     15  C   UNL     1      -5.630   1.723   7.231  0.00  0.00    +0.000 A 
ATOM     16  C   UNL     1      -4.423   2.148   7.757  0.00  0.00    +0.001 A 
ATOM     17  C   UNL     1      -3.416   2.580   6.918  0.00  0.00    +0.008 A 
ENDBRANCH   6  12
BRANCH   1  18
ATOM     18  C   UNL     1      -0.013   1.086   0.008  0.00  0.00    +0.127 C 
BRANCH  18  19
ATOM     19  C   UNL     1      -0.753   1.593  -1.232  0.00  0.00    +0.021 C 
BRANCH  19  21
ATOM     20  C   UNL     1      -0.777   1.606  -3.730  0.00  0.00    +0.004 C 
ATOM     21  C   UNL     1      -0.037   1.099  -2.490  0.00  0.00    -0.002 C 
ENDBRANCH  19  21
ENDBRANCH  18  19
ENDBRANCH   1  18
BRANCH  11  22
ATOM     22  S   UNL     1      -2.115  -0.737   1.024  0.00  0.00    -0.078 S 
BRANCH  22  23
ATOM     23  C   UNL     1      -3.427  -1.278   2.148  0.00  0.00    +0.173 C 
BRANCH  23  24
ATOM     24  C   UNL     1      -3.961  -2.611   1.692  0.00  0.00    +0.226 C 
ATOM     25  O   UNL     1      -3.500  -3.144   0.705  0.00  0.00    -0.275 OA
ATOM     26  N   UNL     1      -4.951  -3.212   2.382  0.00  0.00    -0.301 N 
ATOM     27  C   UNL     1      -5.516  -2.583   3.583  0.00  0.00    +0.108 C 
ATOM     28  C   UNL     1      -7.040  -2.490   3.415  0.00  0.00    +0.019 C 
ATOM     29  C   UNL     1      -7.600  -3.882   3.113  0.00  0.00    +0.003 C 
ATOM     30  C   UNL     1      -7.002  -4.401   1.804  0.00  0.00    +0.019 C 
ATOM     31  C   UNL     1      -5.481  -4.513   1.950  0.00  0.00    +0.108 C 
ENDBRANCH  23  24
ENDBRANCH  22  23
ENDBRANCH  11  22
TORSDOF 7
