REMARK  Name = ZINC01641855
REMARK  10 active torsions:
REMARK  status: ('A' for Active; 'I' for Inactive)
REMARK    1  A    between atoms: C_1  and  N_2
REMARK    2  A    between atoms: C_3  and  O_5
REMARK    3  A    between atoms: O_5  and  N_6
REMARK    4  A    between atoms: C_13  and  C_14
REMARK    5  A    between atoms: C_13  and  N_67
REMARK    6  A    between atoms: C_14  and  C_15
REMARK    7  A    between atoms: C_15  and  C_16
REMARK    8  A    between atoms: C_16  and  C_18
REMARK    9  A    between atoms: N_25  and  C_29
REMARK   10  A    between atoms: N_27  and  C_28
REMARK                            x       y       z     vdW  Elec       q    Type
REMARK                         _______ _______ _______ _____ _____    ______ ____
ROOT
ATOM      1  N   UNL     1      -0.933  -0.933   0.216  0.00  0.00    -0.060 NA
ATOM      2  C   UNL     1       0.020  -0.108  -0.070  0.00  0.00    +0.162 C 
ATOM      3  C   UNL     1       1.393  -0.477  -0.577  0.00  0.00    +0.092 C 
ATOM      4  C   UNL     1       1.286  -1.184  -1.927  0.00  0.00    +0.015 C 
ATOM      5  C   UNL     1       2.687  -1.579  -2.403  0.00  0.00    -0.076 C 
ATOM      6  C   UNL     1       3.479  -1.766  -0.119  0.00  0.00    -0.076 C 
ATOM      7  C   UNL     1       2.105  -1.377   0.432  0.00  0.00    +0.015 C 
ATOM      8  N   UNL     1       2.133   0.792  -0.730  0.00  0.00    -0.301 N 
ATOM      9  C   UNL     1       1.350   1.767   0.064  0.00  0.00    +0.215 C 
ATOM     10  N   UNL     1      -0.035   1.267   0.033  0.00  0.00    -0.301 N 
ATOM     11  C   UNL     1      -1.251   2.083   0.094  0.00  0.00    +0.132 C 
ATOM     12  N   UNL     1       3.296  -2.480  -1.401  0.00  0.00    +0.380 N 
ATOM     13  H   UNL     1       2.671  -3.281  -1.250  0.00  0.00    -0.082 HD
ENDROOT
BRANCH   8  14
ATOM     14  C   UNL     1       3.434   0.675  -0.237  0.00  0.00    +0.032 A 
ATOM     15  C   UNL     1       3.652   0.546   1.129  0.00  0.00    +0.023 A 
ATOM     16  C   UNL     1       4.940   0.426   1.613  0.00  0.00    +0.002 A 
ATOM     17  C   UNL     1       6.013   0.445   0.740  0.00  0.00    +0.000 A 
ATOM     18  C   UNL     1       5.800   0.578  -0.620  0.00  0.00    +0.002 A 
ATOM     19  C   UNL     1       4.514   0.693  -1.111  0.00  0.00    +0.023 A 
ENDBRANCH   8  14
BRANCH   1  20
ATOM     20  O   UNL     1      -2.002  -0.511   0.620  0.00  0.00    -0.298 OA
BRANCH  20  23
ATOM     21  C   UNL     1      -5.192  -2.015   1.654  0.00  0.00    +0.131 C 
ATOM     22  N   UNL     1      -4.158  -1.023   1.349  0.00  0.00    -0.282 N 
ATOM     23  C   UNL     1      -2.952  -1.423   0.899  0.00  0.00    +0.426 C 
ATOM     24  O   UNL     1      -2.722  -2.606   0.746  0.00  0.00    -0.224 OA
ATOM     25  H   UNL     1      -4.341  -0.079   1.472  0.00  0.00    +0.152 HD
ENDBRANCH  20  23
ENDBRANCH   1  20
BRANCH  12  26
ATOM     26  C   UNL     1       4.598  -2.974  -1.894  0.00  0.00    -0.078 C 
BRANCH  26  27
ATOM     27  C   UNL     1       4.437  -3.461  -3.335  0.00  0.00    -0.011 C 
BRANCH  27  28
ATOM     28  C   UNL     1       5.775  -4.001  -3.844  0.00  0.00    +0.078 C 
BRANCH  28  29
ATOM     29  C   UNL     1       5.616  -4.480  -5.264  0.00  0.00    +0.163 C 
ATOM     30  O   UNL     1       4.539  -4.398  -5.815  0.00  0.00    -0.292 OA
BRANCH  29  31
ATOM     31  C   UNL     1       6.767  -5.048  -5.981  0.00  0.00    +0.018 A 
ATOM     32  C   UNL     1       8.013  -5.140  -5.351  0.00  0.00    +0.014 A 
ATOM     33  C   UNL     1       9.085  -5.678  -6.026  0.00  0.00    +0.039 A 
ATOM     34  C   UNL     1       8.936  -6.117  -7.333  0.00  0.00    +0.123 A 
ATOM     35  C   UNL     1       7.705  -6.024  -7.967  0.00  0.00    +0.039 A 
ATOM     36  C   UNL     1       6.623  -5.494  -7.300  0.00  0.00    +0.014 A 
ATOM     37  F   UNL     1       9.994  -6.639  -7.993  0.00  0.00    -0.205 F 
ENDBRANCH  29  31
ENDBRANCH  28  29
ENDBRANCH  27  28
ENDBRANCH  26  27
ENDBRANCH  12  26
TORSDOF 8
