REMARK  Name = ZINC16635742
REMARK  11 active torsions:
REMARK  status: ('A' for Active; 'I' for Inactive)
REMARK    1  A    between atoms: C_1  and  C_2
REMARK    2  A    between atoms: C_9  and  N_15
REMARK    3  A    between atoms: C_10  and  C_11
REMARK    4  A    between atoms: C_11  and  O_13
REMARK    5  A    between atoms: O_13  and  C_14
REMARK    6  A    between atoms: C_16  and  C_18
REMARK    7  A    between atoms: C_18  and  N_57
REMARK    8  A    between atoms: C_19  and  N_57
REMARK    9  A    between atoms: C_20  and  C_21
REMARK   10  A    between atoms: C_20  and  N_57
REMARK   11  A    between atoms: N_23  and  C_24
REMARK                            x       y       z     vdW  Elec       q    Type
REMARK                         _______ _______ _______ _____ _____    ______ ____
ROOT
ATOM      1  N   UNL     1      -0.792  -9.883  -2.682  0.00  0.00    -0.281 N 
ATOM      2  C   UNL     1      -2.115  -9.792  -2.921  0.00  0.00    +0.201 C 
ATOM      3  O   UNL     1      -2.521  -9.716  -4.061  0.00  0.00    -0.278 OA
ATOM      4  H   UNL     1      -0.467  -9.944  -1.770  0.00  0.00    +0.155 HD
ENDROOT
BRANCH   1  12
ATOM      5  C   UNL     1       3.923  -9.982  -8.922  0.00  0.00    +0.008 C 
ATOM      6  C   UNL     1       3.338 -10.295  -7.544  0.00  0.00    -0.009 C 
ATOM      7  C   UNL     1       4.134  -9.552  -6.467  0.00  0.00    +0.008 C 
ATOM      8  C   UNL     1       3.720 -10.046  -5.080  0.00  0.00    +0.037 C 
ATOM      9  C   UNL     1       2.204  -9.960  -4.961  0.00  0.00    -0.021 A 
ATOM     10  C   UNL     1       1.424  -9.864  -6.060  0.00  0.00    -0.004 A 
ATOM     11  S   UNL     1      -0.231  -9.793  -5.436  0.00  0.00    -0.077 S 
ATOM     12  C   UNL     1       0.105  -9.889  -3.739  0.00  0.00    +0.086 A 
ATOM     13  C   UNL     1       1.490  -9.974  -3.695  0.00  0.00    +0.091 A 
ATOM     14  C   UNL     1       1.876  -9.829  -7.487  0.00  0.00    +0.046 C 
BRANCH  13  15
ATOM     15  C   UNL     1       2.205 -10.075  -2.421  0.00  0.00    +0.342 C 
ATOM     16  O   UNL     1       2.566  -9.067  -1.844  0.00  0.00    -0.245 OA
BRANCH  15  17
ATOM     17  O   UNL     1       2.464 -11.286  -1.887  0.00  0.00    -0.464 OA
ATOM     18  C   UNL     1       3.177 -11.310  -0.622  0.00  0.00    +0.280 C 
ENDBRANCH  15  17
ENDBRANCH  13  15
ENDBRANCH   1  12
BRANCH   2  19
ATOM     19  C   UNL     1      -3.090  -9.786  -1.771  0.00  0.00    +0.019 C 
BRANCH  19  21
ATOM     20  C   UNL     1      -4.676  -8.380  -2.941  0.00  0.00    -0.095 C 
ATOM     21  N   UNL     1      -4.463  -9.700  -2.311  0.00  0.00    +0.389 N 
ATOM     22  H   UNL     1      -4.589 -10.432  -3.020  0.00  0.00    -0.081 HD
BRANCH  21  23
ATOM     23  C   UNL     1      -5.446  -9.907  -1.227  0.00  0.00    +0.019 C 
BRANCH  23  24
ATOM     24  C   UNL     1      -6.819 -10.035  -1.834  0.00  0.00    +0.201 C 
ATOM     25  O   UNL     1      -6.962  -9.945  -3.035  0.00  0.00    -0.278 OA
ATOM     26  N   UNL     1      -7.889 -10.249  -1.042  0.00  0.00    -0.285 N 
ATOM     27  H   UNL     1      -7.767 -10.393  -0.091  0.00  0.00    +0.155 HD
BRANCH  26  28
ATOM     28  C   UNL     1      -9.176 -10.262  -1.593  0.00  0.00    +0.070 A 
ATOM     29  C   UNL     1      -9.903  -9.082  -1.693  0.00  0.00    +0.064 A 
ATOM     30  C   UNL     1     -11.172  -9.099  -2.241  0.00  0.00    +0.022 A 
ATOM     31  C   UNL     1     -11.722 -10.289  -2.680  0.00  0.00    +0.003 A 
ATOM     32  C   UNL     1     -11.003 -11.466  -2.578  0.00  0.00    +0.022 A 
ATOM     33  C   UNL     1      -9.732 -11.456  -2.035  0.00  0.00    +0.064 A 
ATOM     34 CL   UNL     1      -8.831 -12.934  -1.906  0.00  0.00    -0.082 Cl
ATOM     35 CL   UNL     1      -9.216  -7.588  -1.135  0.00  0.00    -0.082 Cl
ENDBRANCH  26  28
ENDBRANCH  23  24
ENDBRANCH  21  23
ENDBRANCH  19  21
ENDBRANCH   2  19
TORSDOF 8
