REMARK  Name = ZINC16425063
REMARK  12 active torsions:
REMARK  status: ('A' for Active; 'I' for Inactive)
REMARK    1  A    between atoms: C_1  and  C_2
REMARK    2  A    between atoms: C_2  and  C_3
REMARK    3  A    between atoms: C_3  and  N_4
REMARK    4  A    between atoms: N_4  and  C_5
REMARK    5  A    between atoms: C_5  and  C_7
REMARK    6  A    between atoms: C_5  and  C_9
REMARK    7  A    between atoms: C_7  and  C_8
REMARK    8  A    between atoms: N_19  and  C_20
REMARK    9  A    between atoms: C_23  and  O_26
REMARK   10  A    between atoms: O_26  and  C_27
REMARK   11  A    between atoms: C_27  and  C_28
REMARK   12  A    between atoms: C_29  and  C_31
REMARK                            x       y       z     vdW  Elec       q    Type
REMARK                         _______ _______ _______ _____ _____    ______ ____
ROOT
ATOM      1  C   UNL     1      -3.552   1.701   0.105  0.00  0.00    +0.138 A 
ATOM      2  N   UNL     1      -3.881   1.172  -1.034  0.00  0.00    -0.231 NA
ATOM      3  C   UNL     1      -3.812  -0.167  -1.242  0.00  0.00    +0.078 A 
ATOM      4  C   UNL     1      -4.172  -0.738  -2.465  0.00  0.00    +0.028 A 
ATOM      5  C   UNL     1      -4.087  -2.101  -2.632  0.00  0.00    +0.002 A 
ATOM      6  C   UNL     1      -3.648  -2.919  -1.599  0.00  0.00    +0.001 A 
ATOM      7  C   UNL     1      -3.288  -2.380  -0.383  0.00  0.00    +0.015 A 
ATOM      8  C   UNL     1      -3.366  -1.002  -0.193  0.00  0.00    +0.065 A 
ATOM      9  C   UNL     1      -2.995  -0.370   1.082  0.00  0.00    +0.266 A 
ATOM     10  O   UNL     1      -2.603  -1.033   2.025  0.00  0.00    -0.267 OA
ATOM     11  N   UNL     1      -3.107   0.976   1.166  0.00  0.00    -0.263 N 
ENDROOT
BRANCH  11  12
ATOM     12  C   UNL     1      -2.767   1.628   2.360  0.00  0.00    +0.051 A 
ATOM     13  C   UNL     1      -1.662   2.467   2.402  0.00  0.00    +0.030 A 
ATOM     14  C   UNL     1      -1.331   3.114   3.576  0.00  0.00    +0.047 A 
ATOM     15  C   UNL     1      -2.099   2.921   4.715  0.00  0.00    +0.121 A 
ATOM     16  C   UNL     1      -3.200   2.077   4.675  0.00  0.00    +0.047 A 
ATOM     17  C   UNL     1      -3.532   1.430   3.502  0.00  0.00    +0.030 A 
BRANCH  15  18
ATOM     18  O   UNL     1      -1.773   3.558   5.871  0.00  0.00    -0.492 OA
BRANCH  18  19
ATOM     19  C   UNL     1      -2.608   3.313   7.004  0.00  0.00    +0.225 C 
ATOM     20  C   UNL     1      -2.089   4.111   8.202  0.00  0.00    +0.048 C 
ENDBRANCH  18  19
ENDBRANCH  15  18
ENDBRANCH  11  12
BRANCH   1  21
ATOM     21  C   UNL     1      -3.662   3.197   0.257  0.00  0.00    +0.143 C 
BRANCH  21  22
ATOM     22  N   UNL     1      -5.070   3.593   0.177  0.00  0.00    -0.287 N 
ATOM     23  C   UNL     1      -5.673   4.159   1.242  0.00  0.00    +0.248 C 
ATOM     24  O   UNL     1      -5.027   4.415   2.240  0.00  0.00    -0.270 OA
BRANCH  23  25
ATOM     25  C   UNL     1      -7.114   4.467   1.196  0.00  0.00    +0.045 A 
ATOM     26  C   UNL     1      -7.623   5.296   0.207  0.00  0.00    +0.014 A 
ATOM     27  C   UNL     1      -8.980   5.586   0.156  0.00  0.00    +0.001 A 
ATOM     28  C   UNL     1      -9.846   5.076   1.077  0.00  0.00    +0.008 A 
ATOM     29  C   UNL     1      -9.374   4.236   2.099  0.00  0.00    -0.017 A 
ATOM     30  C   UNL     1      -7.994   3.924   2.165  0.00  0.00    -0.006 A 
ATOM     31  C   UNL     1      -7.524   3.087   3.186  0.00  0.00    +0.009 A 
ATOM     32  C   UNL     1      -8.399   2.583   4.102  0.00  0.00    +0.001 A 
ATOM     33  C   UNL     1      -9.756   2.888   4.039  0.00  0.00    +0.001 A 
ATOM     34  C   UNL     1     -10.247   3.698   3.061  0.00  0.00    +0.008 A 
ENDBRANCH  23  25
BRANCH  22  35
ATOM     35  C   UNL     1      -5.824   3.374  -1.060  0.00  0.00    +0.108 C 
BRANCH  35  37
ATOM     36  C   UNL     1      -7.314   1.783  -2.280  0.00  0.00    +0.005 C 
ATOM     37  C   UNL     1      -6.633   2.081  -0.943  0.00  0.00    +0.016 C 
ENDBRANCH  35  37
ENDBRANCH  22  35
ENDBRANCH  21  22
BRANCH  21  38
ATOM     38  C   UNL     1      -2.875   3.882  -0.862  0.00  0.00    +0.027 C 
ATOM     39  C   UNL     1      -2.883   5.396  -0.637  0.00  0.00    +0.006 C 
ENDBRANCH  21  38
ENDBRANCH   1  21
TORSDOF 9
