REMARK  Name = ZINC49392638
REMARK  8 active torsions:
REMARK  status: ('A' for Active; 'I' for Inactive)
REMARK    1  A    between atoms: C_4  and  N_11
REMARK    2  A    between atoms: C_5  and  C_7
REMARK    3  A    between atoms: C_7  and  C_8
REMARK    4  A    between atoms: C_12  and  C_14
REMARK    5  A    between atoms: N_16  and  C_17
REMARK    6  A    between atoms: C_17  and  C_18
REMARK    7  A    between atoms: C_23  and  C_24
REMARK    8  A    between atoms: C_24  and  N_25
REMARK                            x       y       z     vdW  Elec       q    Type
REMARK                         _______ _______ _______ _____ _____    ______ ____
ROOT
ATOM      1  C   UNL     1       6.070  -0.693  -0.277  0.00  0.00    +0.300 C 
ATOM      2  O   UNL     1       6.084  -1.906  -0.284  0.00  0.00    -0.265 OA
ATOM      3  N   UNL     1       7.223  -0.005  -0.387  0.00  0.00    -0.303 N 
ATOM      4  H   UNL     1       7.212   0.965  -0.382  0.00  0.00    +0.149 HD
ENDROOT
BRANCH   1   6
ATOM      5  N   UNL     1       3.620  -0.649  -0.037  0.00  0.00    -0.277 N 
ATOM      6  C   UNL     1       4.774   0.038  -0.147  0.00  0.00    +0.303 C 
ATOM      7  O   UNL     1       4.760   1.252  -0.141  0.00  0.00    -0.265 OA
ATOM      8  H   UNL     1       3.636  -1.617   0.023  0.00  0.00    +0.155 HD
BRANCH   5  12
ATOM      9  C   UNL     1      -0.015   1.381   0.041  0.00  0.00    +0.000 A 
ATOM     10  C   UNL     1       1.104   1.946   0.627  0.00  0.00    +0.002 A 
ATOM     11  C   UNL     1       2.311   1.275   0.603  0.00  0.00    +0.023 A 
ATOM     12  C   UNL     1       2.401   0.032  -0.011  0.00  0.00    +0.037 A 
ATOM     13  C   UNL     1       1.275  -0.532  -0.598  0.00  0.00    -0.017 A 
ATOM     14  C   UNL     1       0.071   0.144  -0.570  0.00  0.00    +0.006 A 
BRANCH  13  15
ATOM     15  C   UNL     1       1.368  -1.881  -1.265  0.00  0.00    +0.132 C 
BRANCH  15  16
ATOM     16  C   UNL     1       1.195  -2.965  -0.233  0.00  0.00    +0.215 C 
ATOM     17  O   UNL     1       1.014  -2.672   0.930  0.00  0.00    -0.276 OA
ATOM     18  N   UNL     1       1.241  -4.260  -0.602  0.00  0.00    -0.329 N 
ATOM     19  H   UNL     1       1.385  -4.495  -1.532  0.00  0.00    +0.145 HD
ATOM     20  H   UNL     1       1.129  -4.958   0.063  0.00  0.00    +0.145 HD
ENDBRANCH  15  16
ENDBRANCH  13  15
ENDBRANCH   5  12
ENDBRANCH   1   6
BRANCH   3  21
ATOM     21  C   UNL     1       8.495  -0.722  -0.514  0.00  0.00    +0.140 C 
BRANCH  21  22
ATOM     22  C   UNL     1       9.623   0.271  -0.621  0.00  0.00    -0.029 A 
ATOM     23  C   UNL     1      10.159   0.580  -1.858  0.00  0.00    +0.005 A 
ATOM     24  C   UNL     1      11.194   1.490  -1.955  0.00  0.00    +0.000 A 
ATOM     25  C   UNL     1      11.693   2.093  -0.816  0.00  0.00    +0.000 A 
ATOM     26  C   UNL     1      11.158   1.786   0.421  0.00  0.00    +0.002 A 
ATOM     27  C   UNL     1      10.119   0.878   0.518  0.00  0.00    -0.059 A 
BRANCH  27  28
ATOM     28  C   UNL     1       9.531   0.547   1.865  0.00  0.00    -0.043 C 
BRANCH  28  29
ATOM     29  N   UNL     1      10.090  -0.725   2.344  0.00  0.00    +0.382 N 
ATOM     30  C   UNL     1      11.531  -0.562   2.667  0.00  0.00    -0.078 C 
ATOM     31  C   UNL     1      11.810  -1.733   3.643  0.00  0.00    -0.020 C 
ATOM     32  C   UNL     1      10.511  -1.804   4.478  0.00  0.00    -0.020 C 
ATOM     33  C   UNL     1       9.436  -1.126   3.608  0.00  0.00    -0.078 C 
ATOM     34  H   UNL     1       9.968  -1.444   1.646  0.00  0.00    -0.081 HD
ENDBRANCH  28  29
ENDBRANCH  27  28
ENDBRANCH  21  22
ENDBRANCH   3  21
TORSDOF 8
