REMARK  Name = ZINC38831568
REMARK  9 active torsions:
REMARK  status: ('A' for Active; 'I' for Inactive)
REMARK    1  A    between atoms: C_4  and  S_7
REMARK    2  A    between atoms: S_7  and  N_10
REMARK    3  A    between atoms: N_13  and  C_16
REMARK    4  A    between atoms: C_16  and  C_17
REMARK    5  A    between atoms: C_20  and  C_23
REMARK    6  A    between atoms: N_25  and  C_26
REMARK    7  A    between atoms: C_26  and  C_27
REMARK    8  A    between atoms: C_31  and  C_33
REMARK    9  A    between atoms: C_33  and  N_34
REMARK                            x       y       z     vdW  Elec       q    Type
REMARK                         _______ _______ _______ _____ _____    ______ ____
ROOT
ATOM      1  C   UNL     1       3.732  -2.007   6.473  0.00  0.00    -0.033 A 
ATOM      2  C   UNL     1       2.608  -2.815   6.464  0.00  0.00    +0.005 A 
ATOM      3  C   UNL     1       2.589  -3.984   7.196  0.00  0.00    +0.013 A 
ATOM      4  C   UNL     1       3.707  -4.351   7.948  0.00  0.00    +0.037 A 
ATOM      5  C   UNL     1       4.837  -3.532   7.953  0.00  0.00    +0.013 A 
ATOM      6  C   UNL     1       4.845  -2.368   7.211  0.00  0.00    +0.005 A 
ENDROOT
BRANCH   4   7
ATOM      7  C   UNL     1       3.693  -5.602   8.736  0.00  0.00    +0.244 C 
ATOM      8  O   UNL     1       2.708  -6.313   8.730  0.00  0.00    -0.270 OA
ATOM      9  N   UNL     1       4.774  -5.954   9.460  0.00  0.00    -0.307 N 
ATOM     10  H   UNL     1       5.561  -5.386   9.465  0.00  0.00    +0.149 HD
BRANCH   9  11
ATOM     11  C   UNL     1       4.761  -7.193  10.241  0.00  0.00    +0.139 C 
BRANCH  11  12
ATOM     12  C   UNL     1       6.079  -7.352  10.954  0.00  0.00    -0.030 A 
ATOM     13  C   UNL     1       7.122  -8.018  10.337  0.00  0.00    +0.005 A 
ATOM     14  C   UNL     1       8.331  -8.164  10.990  0.00  0.00    +0.001 A 
ATOM     15  C   UNL     1       8.498  -7.644  12.261  0.00  0.00    +0.002 A 
ATOM     16  C   UNL     1       7.455  -6.978  12.877  0.00  0.00    -0.064 A 
ATOM     17  C   UNL     1       6.247  -6.828  12.221  0.00  0.00    +0.007 A 
BRANCH  16  18
ATOM     18  C   UNL     1       7.636  -6.411  14.261  0.00  0.00    -0.043 C 
BRANCH  18  19
ATOM     19  N   UNL     1       8.136  -5.033  14.165  0.00  0.00    +0.382 N 
ATOM     20  C   UNL     1       7.085  -4.146  13.604  0.00  0.00    -0.078 C 
ATOM     21  C   UNL     1       7.518  -2.737  14.082  0.00  0.00    -0.020 C 
ATOM     22  C   UNL     1       8.066  -3.007  15.502  0.00  0.00    -0.020 C 
ATOM     23  C   UNL     1       8.433  -4.503  15.514  0.00  0.00    -0.078 C 
ATOM     24  H   UNL     1       8.963  -5.002  13.589  0.00  0.00    -0.081 HD
ENDBRANCH  18  19
ENDBRANCH  16  18
ENDBRANCH  11  12
ENDBRANCH   9  11
ENDBRANCH   4   7
BRANCH   1  25
ATOM     25  C   UNL     1       3.745  -0.732   5.670  0.00  0.00    +0.119 C 
BRANCH  25  29
ATOM     26  N   UNL     1       4.378  -1.079   1.536  0.00  0.00    -0.174 NA
ATOM     27  C   UNL     1       5.191  -0.087   2.255  0.00  0.00    +0.125 C 
ATOM     28  C   UNL     1       4.500   0.238   3.584  0.00  0.00    +0.102 C 
ATOM     29  N   UNL     1       4.249  -1.010   4.318  0.00  0.00    -0.296 NA
ATOM     30  C   UNL     1       3.326  -1.884   3.582  0.00  0.00    +0.102 C 
ATOM     31  C   UNL     1       3.964  -2.293   2.255  0.00  0.00    +0.125 C 
BRANCH  26  32
ATOM     32  S   UNL     1       3.934  -0.832  -0.041  0.00  0.00    +0.061 S 
ATOM     33  O   UNL     1       3.674  -2.114  -0.595  0.00  0.00    -0.153 OA
ATOM     34  O   UNL     1       4.890   0.060  -0.597  0.00  0.00    -0.153 OA
BRANCH  32  38
ATOM     35  C   UNL     1      -0.017   1.378   0.010  0.00  0.00    +0.000 A 
ATOM     36  C   UNL     1       1.171   2.086   0.002  0.00  0.00    +0.002 A 
ATOM     37  C   UNL     1       2.377   1.411  -0.013  0.00  0.00    +0.028 A 
ATOM     38  C   UNL     1       2.396   0.029  -0.020  0.00  0.00    +0.105 A 
ATOM     39  C   UNL     1       1.208  -0.679  -0.012  0.00  0.00    +0.028 A 
ATOM     40  C   UNL     1       0.002  -0.004   0.002  0.00  0.00    +0.002 A 
ENDBRANCH  32  38
ENDBRANCH  26  32
ENDBRANCH  25  29
ENDBRANCH   1  25
TORSDOF 9
