REMARK  Name = ZINC04853072
REMARK  6 active torsions:
REMARK  status: ('A' for Active; 'I' for Inactive)
REMARK    1  A    between atoms: C_1  and  C_2
REMARK    2  A    between atoms: C_2  and  N_3
REMARK    3  A    between atoms: N_3  and  C_4
REMARK    4  A    between atoms: N_3  and  C_10
REMARK    5  A    between atoms: N_14  and  C_18
REMARK    6  A    between atoms: C_21  and  C_24
REMARK                            x       y       z     vdW  Elec       q    Type
REMARK                         _______ _______ _______ _____ _____    ______ ____
ROOT
ATOM      1  C   UNL     1      -1.490   2.268  -0.131  0.00  0.00    +0.228 C 
ATOM      2  C   UNL     1      -0.456   1.197   0.185  0.00  0.00    +0.258 C 
ATOM      3  O   UNL     1      -0.740   0.019   0.243  0.00  0.00    -0.272 OA
ATOM      4  N   UNL     1       0.774   1.638   0.388  0.00  0.00    -0.199 N 
ATOM      5  C   UNL     1       1.112   2.940   0.329  0.00  0.00    +0.287 C 
ATOM      6  O   UNL     1       2.207   3.438   0.500  0.00  0.00    -0.262 OA
ATOM      7  S   UNL     1      -0.426   3.764  -0.058  0.00  0.00    -0.035 S 
ENDROOT
BRANCH   4   8
ATOM      8  C   UNL     1       1.777   0.703   0.680  0.00  0.00    +0.045 A 
ATOM      9  C   UNL     1       1.841   0.122   1.939  0.00  0.00    +0.024 A 
ATOM     10  C   UNL     1       2.826  -0.804   2.222  0.00  0.00    +0.005 A 
ATOM     11  C   UNL     1       3.756  -1.143   1.256  0.00  0.00    -0.050 A 
ATOM     12  C   UNL     1       3.698  -0.561   0.002  0.00  0.00    +0.005 A 
ATOM     13  C   UNL     1       2.711   0.361  -0.288  0.00  0.00    +0.024 A 
ATOM     14  C   UNL     1       4.834  -2.148   1.569  0.00  0.00    +0.044 C 
ENDBRANCH   4   8
BRANCH   1  15
ATOM     15  N   UNL     1      -2.058   2.081  -1.468  0.00  0.00    -0.310 N 
BRANCH  15  16
ATOM     16  C   UNL     1      -3.295   1.451  -1.620  0.00  0.00    +0.031 A 
ATOM     17  C   UNL     1      -3.933   0.895  -0.518  0.00  0.00    +0.023 A 
ATOM     18  C   UNL     1      -5.158   0.276  -0.670  0.00  0.00    +0.002 A 
ATOM     19  C   UNL     1      -5.746   0.200  -1.920  0.00  0.00    +0.000 A 
ATOM     20  C   UNL     1      -5.111   0.748  -3.020  0.00  0.00    +0.002 A 
ATOM     21  C   UNL     1      -3.889   1.373  -2.873  0.00  0.00    +0.023 A 
ENDBRANCH  15  16
BRANCH  15  23
ATOM     22  C   UNL     1      -0.412   1.445  -3.161  0.00  0.00    +0.024 C 
ATOM     23  C   UNL     1      -1.329   2.556  -2.647  0.00  0.00    +0.103 C 
ENDBRANCH  15  23
ENDBRANCH   1  15
TORSDOF 4
