REMARK  Name = ZINC21986505
REMARK  5 active torsions:
REMARK  status: ('A' for Active; 'I' for Inactive)
REMARK    1  A    between atoms: N_9  and  C_10
REMARK    2  A    between atoms: C_13  and  C_21
REMARK    3  A    between atoms: C_15  and  O_20
REMARK    4  A    between atoms: C_17  and  O_19
REMARK    5  A    between atoms: C_21  and  O_22
REMARK                            x       y       z     vdW  Elec       q    Type
REMARK                         _______ _______ _______ _____ _____    ______ ____
ROOT
ATOM      1  C   UNL     1       1.708   2.933   0.009  0.00  0.00    +0.202 A 
ATOM      2  N   UNL     1       3.004   3.044  -0.002  0.00  0.00    -0.231 NA
ATOM      3  C   UNL     1       3.562   1.809  -0.030  0.00  0.00    +0.147 A 
ATOM      4  C   UNL     1       4.880   1.321  -0.058  0.00  0.00    +0.150 A 
ATOM      5  N   UNL     1       5.069   0.006  -0.082  0.00  0.00    -0.185 NA
ATOM      6  C   UNL     1       4.046  -0.833  -0.081  0.00  0.00    +0.313 A 
ATOM      7  N   UNL     1       2.794  -0.420  -0.057  0.00  0.00    -0.182 NA
ATOM      8  C   UNL     1       2.510   0.879  -0.031  0.00  0.00    +0.168 A 
ATOM      9  N   UNL     1       1.353   1.616  -0.002  0.00  0.00    -0.309 N 
ATOM     10  F   UNL     1       4.293  -2.160  -0.108  0.00  0.00    -0.161 F 
ATOM     11  N   UNL     1       5.956   2.191  -0.058  0.00  0.00    -0.341 N 
ATOM     12  H   UNL     1       6.983   1.796  -0.079  0.00  0.00    +0.144 HD
ATOM     13  H   UNL     1       5.785   3.278  -0.037  0.00  0.00    +0.144 HD
ENDROOT
BRANCH   9  14
ATOM     14  C   UNL     1      -0.013   1.086   0.008  0.00  0.00    +0.122 C 
ATOM     15  C   UNL     1      -0.812   1.624  -1.205  0.00  0.00    +0.036 C 
ATOM     16  C   UNL     1      -2.283   1.493  -0.725  0.00  0.00    +0.048 C 
ATOM     17  C   UNL     1      -2.229   1.867   0.770  0.00  0.00    +0.150 C 
ATOM     18  C   UNL     1      -0.786   1.609   1.236  0.00  0.00    +0.166 C 
BRANCH  18  19
ATOM     19  O   UNL     1      -0.197   2.824   1.704  0.00  0.00    -0.387 OA
ATOM     20  H   UNL     1      -0.622   3.340   2.578  0.00  0.00    +0.210 HD
ENDBRANCH  18  19
BRANCH  17  21
ATOM     21  O   UNL     1      -3.137   1.051   1.512  0.00  0.00    -0.389 OA
ATOM     22  H   UNL     1      -3.230   1.181   2.601  0.00  0.00    +0.210 HD
ENDBRANCH  17  21
BRANCH  16  23
ATOM     23  C   UNL     1      -3.183   2.466  -1.489  0.00  0.00    +0.162 C 
BRANCH  23  24
ATOM     24  O   UNL     1      -4.534   2.308  -1.052  0.00  0.00    -0.395 OA
ATOM     25  H   UNL     1      -5.330   2.927  -1.492  0.00  0.00    +0.209 HD
ENDBRANCH  23  24
ENDBRANCH  16  23
ENDBRANCH   9  14
TORSDOF 5
