REMARK  Name = ZINC13065565
REMARK  11 active torsions:
REMARK  status: ('A' for Active; 'I' for Inactive)
REMARK    1  A    between atoms: C_1  and  C_2
REMARK    2  A    between atoms: C_6  and  C_8
REMARK    3  A    between atoms: C_8  and  C_9
REMARK    4  A    between atoms: C_9  and  N_66
REMARK    5  A    between atoms: C_10  and  C_11
REMARK    6  A    between atoms: C_10  and  N_66
REMARK    7  A    between atoms: C_17  and  C_23
REMARK    8  A    between atoms: C_24  and  C_25
REMARK    9  A    between atoms: C_24  and  N_66
REMARK   10  A    between atoms: N_29  and  C_30
REMARK   11  A    between atoms: C_30  and  C_31
REMARK                            x       y       z     vdW  Elec       q    Type
REMARK                         _______ _______ _______ _____ _____    ______ ____
ROOT
ATOM      1  N   UNL     1       1.764  -2.812  -1.498  0.00  0.00    +0.387 N 
ATOM      2  H   UNL     1       0.923  -2.695  -2.077  0.00  0.00    -0.081 HD
ENDROOT
BRANCH   1   3
ATOM      3  C   UNL     1       2.935  -2.309  -2.247  0.00  0.00    -0.073 C 
BRANCH   3   4
ATOM      4  C   UNL     1       2.872  -2.850  -3.677  0.00  0.00    +0.016 C 
BRANCH   4  10
ATOM      5  C   UNL     1       7.591  -3.725  -5.098  0.00  0.00    +0.044 C 
ATOM      6  C   UNL     1       6.366  -2.846  -5.108  0.00  0.00    -0.050 A 
ATOM      7  C   UNL     1       6.377  -1.653  -5.807  0.00  0.00    +0.003 A 
ATOM      8  C   UNL     1       5.253  -0.848  -5.817  0.00  0.00    +0.001 A 
ATOM      9  C   UNL     1       4.118  -1.238  -5.131  0.00  0.00    +0.003 A 
ATOM     10  C   UNL     1       4.109  -2.428  -4.428  0.00  0.00    -0.049 A 
ATOM     11  C   UNL     1       5.232  -3.234  -4.419  0.00  0.00    +0.007 A 
ENDBRANCH   4  10
ENDBRANCH   3   4
ENDBRANCH   1   3
BRANCH   1  12
ATOM     12  C   UNL     1       1.939  -4.246  -1.189  0.00  0.00    -0.037 C 
BRANCH  12  13
ATOM     13  C   UNL     1       0.593  -4.837  -0.857  0.00  0.00    +0.001 A 
ATOM     14  C   UNL     1      -0.148  -5.421  -1.831  0.00  0.00    +0.017 A 
ATOM     15  C   UNL     1      -1.449  -5.989  -1.475  0.00  0.00    -0.001 A 
ATOM     16  C   UNL     1      -2.256  -6.609  -2.435  0.00  0.00    +0.010 A 
ATOM     17  C   UNL     1      -3.467  -7.125  -2.071  0.00  0.00    +0.001 A 
ATOM     18  C   UNL     1      -3.905  -7.039  -0.757  0.00  0.00    +0.005 A 
ATOM     19  C   UNL     1      -3.128  -6.432   0.206  0.00  0.00    -0.026 A 
ATOM     20  C   UNL     1      -1.891  -5.900  -0.141  0.00  0.00    +0.052 A 
ATOM     21  N   UNL     1      -1.092  -5.288   0.801  0.00  0.00    -0.322 N 
ATOM     22  H   UNL     1      -1.398  -5.227   1.720  0.00  0.00    +0.169 HD
ATOM     23  C   UNL     1       0.104  -4.774   0.466  0.00  0.00    +0.251 A 
ATOM     24  O   UNL     1       0.784  -4.240   1.325  0.00  0.00    -0.268 OA
ATOM     25  C   UNL     1      -3.617  -6.346   1.629  0.00  0.00    +0.046 C 
ENDBRANCH  12  13
ENDBRANCH   1  12
BRANCH   1  26
ATOM     26  C   UNL     1       1.596  -2.042  -0.247  0.00  0.00    +0.001 C 
BRANCH  26  27
ATOM     27  C   UNL     1       1.271  -0.612  -0.595  0.00  0.00    +0.135 A 
ATOM     28  N   UNL     1       2.128   0.345  -0.853  0.00  0.00    -0.115 NA
ATOM     29  N   UNL     1       1.462   1.419  -1.104  0.00  0.00    -0.023 NA
ATOM     30  N   UNL     1       0.202   1.171  -1.013  0.00  0.00    -0.044 NA
ATOM     31  N   UNL     1       0.043  -0.070  -0.701  0.00  0.00    -0.227 N 
BRANCH  31  32
ATOM     32  C   UNL     1      -1.233  -0.760  -0.499  0.00  0.00    +0.182 C 
BRANCH  32  33
ATOM     33  C   UNL     1      -1.791  -1.185  -1.833  0.00  0.00    -0.026 A 
ATOM     34  C   UNL     1      -2.542  -0.297  -2.582  0.00  0.00    +0.008 A 
ATOM     35  C   UNL     1      -3.050  -0.683  -3.808  0.00  0.00    +0.038 A 
ATOM     36  C   UNL     1      -2.815  -1.963  -4.282  0.00  0.00    +0.123 A 
ATOM     37  C   UNL     1      -2.067  -2.853  -3.529  0.00  0.00    +0.038 A 
ATOM     38  C   UNL     1      -1.556  -2.462  -2.306  0.00  0.00    +0.008 A 
ATOM     39  F   UNL     1      -3.315  -2.343  -5.478  0.00  0.00    -0.205 F 
ENDBRANCH  32  33
ENDBRANCH  31  32
ENDBRANCH  26  27
ENDBRANCH   1  26
TORSDOF 9
