REMARK  Name = ZINC12713611
REMARK  10 active torsions:
REMARK  status: ('A' for Active; 'I' for Inactive)
REMARK    1  A    between atoms: C_1  and  C_2
REMARK    2  A    between atoms: C_2  and  C_3
REMARK    3  A    between atoms: C_2  and  C_4
REMARK    4  A    between atoms: C_2  and  N_5
REMARK    5  A    between atoms: C_6  and  C_8
REMARK    6  A    between atoms: C_8  and  C_10
REMARK    7  A    between atoms: C_8  and  N_17
REMARK    8  A    between atoms: N_17  and  C_18
REMARK    9  A    between atoms: C_28  and  C_30
REMARK   10  A    between atoms: C_30  and  N_31
REMARK                            x       y       z     vdW  Elec       q    Type
REMARK                         _______ _______ _______ _____ _____    ______ ____
ROOT
ATOM      1  N   UNL     1      -5.477   3.481  -1.607  0.00  0.00    -0.253 N 
ATOM      2  C   UNL     1      -4.146   3.571  -1.414  0.00  0.00    +0.242 C 
ATOM      3  O   UNL     1      -3.391   3.522  -2.362  0.00  0.00    -0.273 OA
ENDROOT
BRANCH   1   4
ATOM      4  C   UNL     1      -6.344   3.456  -0.509  0.00  0.00    +0.041 A 
ATOM      5  C   UNL     1      -6.838   4.644   0.006  0.00  0.00    +0.024 A 
ATOM      6  C   UNL     1      -7.698   4.617   1.086  0.00  0.00    +0.002 A 
ATOM      7  C   UNL     1      -8.050   3.409   1.653  0.00  0.00    +0.004 A 
ATOM      8  C   UNL     1      -7.551   2.215   1.146  0.00  0.00    -0.042 A 
ATOM      9  C   UNL     1      -6.700   2.236   0.065  0.00  0.00    -0.023 A 
ATOM     10  C   UNL     1      -6.129   0.981  -0.542  0.00  0.00    +0.037 C 
ATOM     11  C   UNL     1      -6.255  -0.191   0.429  0.00  0.00    +0.005 C 
ATOM     12  C   UNL     1      -7.708  -0.263   0.914  0.00  0.00    +0.005 C 
ATOM     13  C   UNL     1      -7.973   0.936   1.821  0.00  0.00    +0.035 C 
ENDBRANCH   1   4
BRANCH   1  14
ATOM     14  C   UNL     1      -6.017   3.409  -2.967  0.00  0.00    +0.200 C 
BRANCH  14  15
ATOM     15  C   UNL     1      -5.773   4.717  -3.674  0.00  0.00    +0.017 A 
ATOM     16  C   UNL     1      -4.815   5.592  -3.199  0.00  0.00    +0.009 A 
ATOM     17  C   UNL     1      -4.588   6.790  -3.850  0.00  0.00    +0.001 A 
ATOM     18  C   UNL     1      -5.326   7.119  -4.972  0.00  0.00    +0.003 A 
ATOM     19  C   UNL     1      -6.289   6.249  -5.446  0.00  0.00    +0.039 A 
ATOM     20  C   UNL     1      -6.514   5.046  -4.797  0.00  0.00    +0.129 A 
ATOM     21  F   UNL     1      -7.455   4.194  -5.259  0.00  0.00    -0.205 F 
ENDBRANCH  14  15
BRANCH  14  23
ATOM     22  N   UNL     1      -5.671   2.043  -5.000  0.00  0.00    -0.309 N 
ATOM     23  C   UNL     1      -5.333   2.296  -3.720  0.00  0.00    +0.239 C 
ATOM     24  O   UNL     1      -4.480   1.630  -3.175  0.00  0.00    -0.273 OA
ATOM     25  H   UNL     1      -6.353   2.576  -5.437  0.00  0.00    +0.149 HD
BRANCH  22  27
ATOM     26  C   UNL     1      -5.254  -0.367  -5.015  0.00  0.00    +0.031 C 
ATOM     27  C   UNL     1      -5.007   0.961  -5.732  0.00  0.00    +0.026 C 
ATOM     28  C   UNL     1      -5.570   0.886  -7.153  0.00  0.00    +0.031 C 
ATOM     29  C   UNL     1      -3.503   1.236  -5.794  0.00  0.00    +0.031 C 
ENDBRANCH  22  27
ENDBRANCH  14  23
ENDBRANCH   1  14
BRANCH   2  30
ATOM     30  C   UNL     1      -3.597   3.734  -0.020  0.00  0.00    +0.242 C 
BRANCH  30  31
ATOM     31  N   UNL     1      -2.135   3.808  -0.077  0.00  0.00    -0.235 N 
ATOM     32  C   UNL     1      -1.255   2.755  -0.005  0.00  0.00    +0.090 A 
ATOM     33  C   UNL     1      -1.404   1.378   0.128  0.00  0.00    +0.029 A 
ATOM     34  C   UNL     1      -0.298   0.576   0.173  0.00  0.00    +0.002 A 
ATOM     35  C   UNL     1       0.976   1.123   0.076  0.00  0.00    +0.002 A 
ATOM     36  C   UNL     1       1.149   2.469  -0.060  0.00  0.00    +0.032 A 
ATOM     37  C   UNL     1       0.031   3.314  -0.104  0.00  0.00    +0.113 A 
ATOM     38  N   UNL     1      -0.111   4.648  -0.228  0.00  0.00    -0.129 NA
ATOM     39  N   UNL     1      -1.357   4.967  -0.216  0.00  0.00    -0.064 NA
ENDBRANCH  30  31
ENDBRANCH   2  30
TORSDOF 7
