REMARK  Name = ZINC40347946
REMARK  9 active torsions:
REMARK  status: ('A' for Active; 'I' for Inactive)
REMARK    1  A    between atoms: C_1  and  C_2
REMARK    2  A    between atoms: C_2  and  C_3
REMARK    3  A    between atoms: C_3  and  N_4
REMARK    4  A    between atoms: N_4  and  C_5
REMARK    5  A    between atoms: N_4  and  S_10
REMARK    6  A    between atoms: C_5  and  C_6
REMARK    7  A    between atoms: N_8  and  C_9
REMARK    8  A    between atoms: S_10  and  C_13
REMARK    9  A    between atoms: C_16  and  N_20
REMARK                            x       y       z     vdW  Elec       q    Type
REMARK                         _______ _______ _______ _____ _____    ______ ____
ROOT
ATOM      1  S   UNL     1      -0.394  -2.824   2.063  0.00  0.00    +0.063 S 
ATOM      2  O   UNL     1       0.164  -4.100   2.346  0.00  0.00    -0.153 OA
ATOM      3  O   UNL     1      -0.878  -1.961   3.082  0.00  0.00    -0.153 OA
ENDROOT
BRANCH   1   4
ATOM      4  C   UNL     1      -1.736  -3.097   0.954  0.00  0.00    +0.133 A 
ATOM      5  C   UNL     1      -2.760  -2.171   0.870  0.00  0.00    +0.047 A 
ATOM      6  C   UNL     1      -3.815  -2.382   0.001  0.00  0.00    +0.040 A 
ATOM      7  C   UNL     1      -3.844  -3.525  -0.788  0.00  0.00    +0.027 A 
ATOM      8  C   UNL     1      -2.814  -4.452  -0.701  0.00  0.00    +0.040 A 
ATOM      9  C   UNL     1      -1.760  -4.233   0.165  0.00  0.00    +0.047 A 
ATOM     10 BR   UNL     1      -0.353  -5.492   0.279  0.00  0.00    -0.048 Br
ATOM     11 BR   UNL     1      -2.719  -0.615   1.944  0.00  0.00    -0.048 Br
BRANCH   7  12
ATOM     12  N   UNL     1      -4.909  -3.742  -1.666  0.00  0.00    -0.358 N 
ATOM     13  H   UNL     1      -5.628  -3.094  -1.726  0.00  0.00    +0.142 HD
ATOM     14  H   UNL     1      -4.928  -4.540  -2.216  0.00  0.00    +0.142 HD
ENDBRANCH   7  12
ENDBRANCH   1   4
BRANCH   1  15
ATOM     15  N   UNL     1       0.762  -1.976   1.234  0.00  0.00    -0.168 NA
BRANCH  15  16
ATOM     16  C   UNL     1       0.742  -0.511   1.242  0.00  0.00    +0.110 C 
BRANCH  16  18
ATOM     17  C   UNL     1      -0.019   1.526   0.010  0.00  0.00    +0.005 C 
ATOM     18  C   UNL     1       0.002  -0.004   0.002  0.00  0.00    +0.014 C 
ENDBRANCH  16  18
ENDBRANCH  15  16
BRANCH  15  19
ATOM     19  C   UNL     1       1.804  -2.690   0.492  0.00  0.00    +0.205 C 
BRANCH  19  20
ATOM     20  C   UNL     1       3.033  -2.822   1.354  0.00  0.00    +0.229 C 
ATOM     21  O   UNL     1       3.038  -2.365   2.477  0.00  0.00    -0.274 OA
ATOM     22  N   UNL     1       4.127  -3.449   0.877  0.00  0.00    -0.317 N 
ATOM     23  C   UNL     1       5.322  -3.577   1.715  0.00  0.00    +0.128 C 
ATOM     24  H   UNL     1       4.123  -3.815  -0.022  0.00  0.00    +0.148 HD
ENDBRANCH  19  20
ENDBRANCH  15  19
ENDBRANCH   1  15
TORSDOF 7
