REMARK  Name = ZINC01556849
REMARK  3 active torsions:
REMARK  status: ('A' for Active; 'I' for Inactive)
REMARK    1  A    between atoms: C_6  and  S_7
REMARK    2  A    between atoms: S_7  and  C_8
REMARK    3  A    between atoms: C_10  and  N_15
REMARK                            x       y       z     vdW  Elec       q    Type
REMARK                         _______ _______ _______ _____ _____    ______ ____
ROOT
ATOM      1  C   UNL     1       2.309  -0.057  -0.048  0.00  0.00    +0.108 A 
ATOM      2  C   UNL     1       2.328   1.335  -0.023  0.00  0.00    +0.078 A 
ATOM      3  C   UNL     1       1.114   2.014  -0.030  0.00  0.00    +0.122 A 
ATOM      4  N   UNL     1      -0.019   1.315  -0.061  0.00  0.00    -0.200 NA
ATOM      5  C   UNL     1       0.001  -0.009  -0.084  0.00  0.00    +0.215 A 
ATOM      6  N   UNL     1       1.137  -0.689  -0.077  0.00  0.00    -0.208 NA
ATOM      7  N   UNL     1      -1.198  -0.700  -0.114  0.00  0.00    -0.327 N 
ATOM      8  H   UNL     1      -2.037  -0.215  -0.119  0.00  0.00    +0.145 HD
ATOM      9  H   UNL     1      -1.198  -1.670  -0.132  0.00  0.00    +0.145 HD
ENDROOT
BRANCH   3  10
ATOM     10  N   UNL     1       1.084   3.400  -0.007  0.00  0.00    -0.343 N 
ATOM     11  H   UNL     1       0.233   3.867  -0.013  0.00  0.00    +0.144 HD
ATOM     12  H   UNL     1       1.913   3.903   0.015  0.00  0.00    +0.144 HD
ENDBRANCH   3  10
BRANCH   1  13
ATOM     13  S   UNL     1       3.816  -0.970  -0.040  0.00  0.00    -0.070 S 
BRANCH  13  19
ATOM     14  C   UNL     1       2.904  -3.135   1.363  0.00  0.00    +0.016 A 
ATOM     15  C   UNL     1       2.400  -4.416   1.475  0.00  0.00    +0.021 A 
ATOM     16  C   UNL     1       2.183  -5.178   0.341  0.00  0.00    +0.041 A 
ATOM     17  C   UNL     1       2.463  -4.657  -0.910  0.00  0.00    +0.021 A 
ATOM     18  C   UNL     1       2.962  -3.374  -1.030  0.00  0.00    +0.016 A 
ATOM     19  C   UNL     1       3.181  -2.607   0.108  0.00  0.00    +0.014 A 
ATOM     20 CL   UNL     1       1.556  -6.790   0.486  0.00  0.00    -0.084 Cl
ENDBRANCH  13  19
ENDBRANCH   1  13
TORSDOF 3
