REMARK  Name = ZINC51123765
REMARK  6 active torsions:
REMARK  status: ('A' for Active; 'I' for Inactive)
REMARK    1  A    between atoms: C_1  and  C_2
REMARK    2  A    between atoms: C_2  and  C_3
REMARK    3  A    between atoms: C_9  and  N_11
REMARK    4  A    between atoms: C_12  and  C_14
REMARK    5  A    between atoms: C_19  and  N_20
REMARK    6  A    between atoms: N_20  and  N_21
REMARK                            x       y       z     vdW  Elec       q    Type
REMARK                         _______ _______ _______ _____ _____    ______ ____
ROOT
ATOM      1  N   UNL     1      -0.771  -2.447  -1.425  0.00  0.00    -0.308 N 
ATOM      2  C   UNL     1      -1.136  -3.661  -0.967  0.00  0.00    +0.248 C 
ATOM      3  O   UNL     1      -0.297  -4.421  -0.524  0.00  0.00    -0.270 OA
ATOM      4  H   UNL     1      -1.440  -1.840  -1.778  0.00  0.00    +0.149 HD
ENDROOT
BRANCH   2   5
ATOM      5  C   UNL     1      -2.553  -4.066  -1.004  0.00  0.00    +0.079 A 
ATOM      6  C   UNL     1      -3.545  -3.159  -1.395  0.00  0.00    +0.033 A 
ATOM      7  C   UNL     1      -4.860  -3.589  -1.413  0.00  0.00    +0.037 A 
ATOM      8  C   UNL     1      -5.156  -4.891  -1.048  0.00  0.00    +0.128 A 
ATOM      9  N   UNL     1      -4.207  -5.731  -0.682  0.00  0.00    -0.237 NA
ATOM     10  C   UNL     1      -2.933  -5.373  -0.653  0.00  0.00    +0.144 A 
ATOM     11 BR   UNL     1      -6.242  -2.408  -1.932  0.00  0.00    -0.049 Br
BRANCH  10  12
ATOM     12  N   UNL     1      -1.970  -6.289  -0.268  0.00  0.00    -0.267 N 
ATOM     13  H   UNL     1      -1.047  -6.008  -0.164  0.00  0.00    +0.167 HD
BRANCH  12  14
ATOM     14  N   UNL     1      -2.318  -7.589  -0.035  0.00  0.00    -0.255 NA
ATOM     15  H   UNL     1      -2.774  -7.991  -0.840  0.00  0.00    +0.140 HD
ATOM     16  H   UNL     1      -1.515  -8.135   0.236  0.00  0.00    +0.140 HD
ENDBRANCH  12  14
ENDBRANCH  10  12
ENDBRANCH   2   5
BRANCH   1  22
ATOM     17  C   UNL     1       0.730  -0.517  -1.349  0.00  0.00    +0.009 C 
ATOM     18  C   UNL     1       2.200  -0.096  -1.311  0.00  0.00    +0.005 C 
ATOM     19  C   UNL     1       2.913  -0.619  -2.560  0.00  0.00    +0.000 C 
ATOM     20  C   UNL     1       2.820  -2.145  -2.599  0.00  0.00    +0.002 C 
ATOM     21  C   UNL     1       1.350  -2.566  -2.637  0.00  0.00    +0.022 C 
ATOM     22  C   UNL     1       0.637  -2.044  -1.388  0.00  0.00    +0.076 C 
BRANCH  17  24
ATOM     23  C   UNL     1       0.001   1.536  -0.126  0.00  0.00    +0.004 C 
ATOM     24  C   UNL     1       0.017   0.006  -0.101  0.00  0.00    +0.002 C 
ENDBRANCH  17  24
ENDBRANCH   1  22
TORSDOF 5
