REMARK  Name = ZINC18956945
REMARK  13 active torsions:
REMARK  status: ('A' for Active; 'I' for Inactive)
REMARK    1  A    between atoms: C_1  and  C_2
REMARK    2  A    between atoms: C_2  and  C_3
REMARK    3  A    between atoms: C_3  and  C_4
REMARK    4  A    between atoms: C_4  and  C_5
REMARK    5  A    between atoms: C_5  and  C_6
REMARK    6  A    between atoms: C_6  and  C_8
REMARK    7  A    between atoms: C_6  and  N_9
REMARK    8  A    between atoms: C_10  and  C_12
REMARK    9  A    between atoms: C_12  and  S_13
REMARK   10  A    between atoms: S_13  and  C_14
REMARK   11  A    between atoms: N_27  and  C_28
REMARK   12  A    between atoms: C_32  and  O_34
REMARK   13  A    between atoms: O_34  and  C_35
REMARK                            x       y       z     vdW  Elec       q    Type
REMARK                         _______ _______ _______ _____ _____    ______ ____
ROOT
ATOM      1  C   UNL     1      -2.680   7.594  -0.155  0.00  0.00    +0.198 A 
ATOM      2  N   UNL     1      -3.337   6.461  -0.231  0.00  0.00    -0.120 NA
ATOM      3  N   UNL     1      -2.519   5.471  -0.170  0.00  0.00    -0.109 NA
ATOM      4  C   UNL     1      -1.287   5.910  -0.064  0.00  0.00    +0.245 A 
ATOM      5  N   UNL     1      -1.352   7.279  -0.054  0.00  0.00    -0.255 N 
ATOM      6  C   UNL     1      -0.198   8.047   0.042  0.00  0.00    +0.064 A 
ATOM      7  C   UNL     1      -0.254   9.432   0.047  0.00  0.00    +0.027 A 
ATOM      8  C   UNL     1       0.911  10.168   0.142  0.00  0.00    +0.002 A 
ATOM      9  C   UNL     1       2.140   9.533   0.234  0.00  0.00    +0.001 A 
ATOM     10  C   UNL     1       2.215   8.156   0.230  0.00  0.00    +0.015 A 
ATOM     11  C   UNL     1       1.046   7.403   0.134  0.00  0.00    +0.064 A 
ATOM     12  C   UNL     1       1.085   5.929   0.127  0.00  0.00    +0.268 A 
ATOM     13  O   UNL     1       2.146   5.339   0.205  0.00  0.00    -0.267 OA
ATOM     14  N   UNL     1      -0.074   5.245   0.031  0.00  0.00    -0.245 N 
ENDROOT
BRANCH  14  15
ATOM     15  C   UNL     1      -0.051   3.846   0.023  0.00  0.00    +0.056 A 
ATOM     16  C   UNL     1       0.056   3.159  -1.180  0.00  0.00    +0.026 A 
ATOM     17  C   UNL     1       0.084   1.778  -1.187  0.00  0.00    +0.006 A 
ATOM     18  C   UNL     1      -0.006   1.076  -0.000  0.00  0.00    +0.046 A 
ATOM     19  C   UNL     1      -0.113   1.757   1.204  0.00  0.00    +0.122 A 
ATOM     20  C   UNL     1      -0.136   3.143   1.216  0.00  0.00    +0.072 A 
BRANCH  19  21
ATOM     21  O   UNL     1      -0.195   1.065   2.371  0.00  0.00    -0.495 OA
ATOM     22  C   UNL     1      -0.165  -0.361   2.284  0.00  0.00    +0.277 C 
ENDBRANCH  19  21
ENDBRANCH  14  15
BRANCH   1  23
ATOM     23  S   UNL     1      -3.373   9.213  -0.198  0.00  0.00    -0.076 S 
BRANCH  23  24
ATOM     24  C   UNL     1      -5.158   8.922  -0.340  0.00  0.00    +0.173 C 
BRANCH  24  26
ATOM     25  N   UNL     1      -7.224  10.275  -0.492  0.00  0.00    -0.312 N 
ATOM     26  C   UNL     1      -5.880  10.244  -0.387  0.00  0.00    +0.224 C 
ATOM     27  O   UNL     1      -5.253  11.280  -0.330  0.00  0.00    -0.275 OA
ATOM     28  H   UNL     1      -7.726   9.446  -0.537  0.00  0.00    +0.149 HD
BRANCH  25  29
ATOM     29  C   UNL     1      -7.926  11.560  -0.538  0.00  0.00    +0.070 C 
ATOM     30  C   UNL     1      -7.948  12.078  -1.977  0.00  0.00    +0.028 C 
BRANCH  29  31
ATOM     31  C   UNL     1      -9.361  11.375  -0.040  0.00  0.00    +0.022 C 
BRANCH  31  32
ATOM     32  C   UNL     1      -9.341  10.977   1.437  0.00  0.00    +0.002 C 
BRANCH  32  33
ATOM     33  C   UNL     1     -10.776  10.792   1.935  0.00  0.00    -0.000 C 
BRANCH  33  35
ATOM     34  C   UNL     1     -12.191  10.210   3.910  0.00  0.00    +0.004 C 
ATOM     35  C   UNL     1     -10.756  10.394   3.412  0.00  0.00    -0.003 C 
ENDBRANCH  33  35
ENDBRANCH  32  33
ENDBRANCH  31  32
ENDBRANCH  29  31
ENDBRANCH  25  29
ENDBRANCH  24  26
ENDBRANCH  23  24
ENDBRANCH   1  23
TORSDOF 10
