REMARK  Name = ZINC38696255
REMARK  2 active torsions:
REMARK  status: ('A' for Active; 'I' for Inactive)
REMARK    1  A    between atoms: C_4  and  C_16
REMARK    2  A    between atoms: N_17  and  N_18
REMARK                            x       y       z     vdW  Elec       q    Type
REMARK                         _______ _______ _______ _____ _____    ______ ____
ROOT
ATOM      1  C   UNL     1       2.518   5.037   1.224  0.00  0.00    +0.120 C 
ATOM      2  N   UNL     1       2.693   6.298   1.091  0.00  0.00    -0.193 NA
ENDROOT
BRANCH   1   6
ATOM      3  C   UNL     1      -0.419   1.449   0.375  0.00  0.00    +0.059 A 
ATOM      4  C   UNL     1       0.845   2.164   0.188  0.00  0.00    -0.003 A 
ATOM      5  C   UNL     1       0.886   3.523   0.218  0.00  0.00    +0.001 C 
ATOM      6  C   UNL     1       2.234   4.184   0.015  0.00  0.00    +0.141 C 
ATOM      7  C   UNL     1       3.427   3.280  -0.204  0.00  0.00    +0.229 C 
ATOM      8  O   UNL     1       4.533   3.758  -0.371  0.00  0.00    -0.274 OA
ATOM      9  N   UNL     1       3.262   1.969  -0.212  0.00  0.00    -0.284 N 
ATOM     10  C   UNL     1       2.076   1.383  -0.034  0.00  0.00    +0.044 A 
ATOM     11  C   UNL     1       1.978  -0.014  -0.057  0.00  0.00    +0.073 A 
ATOM     12  C   UNL     1       0.762  -0.640   0.124  0.00  0.00    +0.168 A 
ATOM     13  C   UNL     1      -0.426   0.091   0.338  0.00  0.00    +0.167 A 
ATOM     14  O   UNL     1      -1.458  -0.795   0.479  0.00  0.00    -0.453 OA
ATOM     15  C   UNL     1      -0.971  -2.038  -0.060  0.00  0.00    +0.466 C 
ATOM     16  O   UNL     1       0.452  -1.969   0.138  0.00  0.00    -0.453 OA
ATOM     17  H   UNL     1       4.039   1.407  -0.353  0.00  0.00    +0.155 HD
ENDBRANCH   1   6
BRANCH   2  18
ATOM     18  N   UNL     1       2.957   7.092   2.216  0.00  0.00    -0.221 N 
ATOM     19  C   UNL     1       3.146   8.454   2.072  0.00  0.00    +0.150 A 
ATOM     20  C   UNL     1       3.747   9.213   3.115  0.00  0.00    +0.052 A 
ATOM     21  C   UNL     1       4.233   8.756   4.418  0.00  0.00    -0.025 A 
ATOM     22  C   UNL     1       4.767   9.688   5.233  0.00  0.00    -0.004 A 
ATOM     23  S   UNL     1       4.658  11.210   4.330  0.00  0.00    -0.073 S 
ATOM     24  C   UNL     1       3.890  10.591   2.856  0.00  0.00    +0.114 A 
ATOM     25  N   UNL     1       3.487  11.124   1.719  0.00  0.00    -0.228 NA
ATOM     26  C   UNL     1       2.936  10.369   0.788  0.00  0.00    +0.224 A 
ATOM     27  N   UNL     1       2.777   9.069   0.959  0.00  0.00    -0.219 NA
ATOM     28  C   UNL     1       5.330   9.478   6.606  0.00  0.00    +0.043 C 
ATOM     29  C   UNL     1       4.875   8.102   7.111  0.00  0.00    +0.005 C 
ATOM     30  C   UNL     1       5.124   7.068   6.009  0.00  0.00    +0.005 C 
ATOM     31  C   UNL     1       4.149   7.295   4.853  0.00  0.00    +0.037 C 
ATOM     32  H   UNL     1       3.006   6.685   3.095  0.00  0.00    +0.176 HD
ENDBRANCH   2  18
TORSDOF 2
