REMARK  Name = ZINC35026508
REMARK  8 active torsions:
REMARK  status: ('A' for Active; 'I' for Inactive)
REMARK    1  A    between atoms: C_1  and  C_2
REMARK    2  A    between atoms: C_2  and  C_3
REMARK    3  A    between atoms: C_3  and  C_5
REMARK    4  A    between atoms: C_3  and  N_17
REMARK    5  A    between atoms: N_15  and  C_16
REMARK    6  A    between atoms: N_17  and  C_18
REMARK    7  A    between atoms: C_18  and  C_19
REMARK    8  A    between atoms: N_22  and  C_23
REMARK                            x       y       z     vdW  Elec       q    Type
REMARK                         _______ _______ _______ _____ _____    ______ ____
ROOT
ATOM      1  N   UNL     1      -1.675   0.135  -0.970  0.00  0.00    -0.276 N 
ATOM      2  C   UNL     1      -2.559   1.150  -0.904  0.00  0.00    +0.307 C 
ATOM      3  O   UNL     1      -2.765   1.708   0.157  0.00  0.00    -0.252 OA
ATOM      4  N   UNL     1      -3.216   1.545  -2.012  0.00  0.00    -0.269 N 
ATOM      5  H   UNL     1      -3.110   1.052  -2.841  0.00  0.00    +0.156 HD
ENDROOT
BRANCH   4   6
ATOM      6  C   UNL     1      -4.049   2.665  -1.968  0.00  0.00    +0.042 A 
ATOM      7  C   UNL     1      -3.860   3.635  -1.008  0.00  0.00    +0.024 A 
ATOM      8  C   UNL     1      -4.685   4.754  -0.955  0.00  0.00    +0.002 A 
ATOM      9  C   UNL     1      -5.699   4.923  -1.848  0.00  0.00    +0.008 A 
ATOM     10  C   UNL     1      -5.926   3.957  -2.843  0.00  0.00    -0.016 A 
ATOM     11  C   UNL     1      -5.089   2.816  -2.910  0.00  0.00    +0.003 A 
ATOM     12  C   UNL     1      -5.312   1.855  -3.909  0.00  0.00    +0.010 A 
ATOM     13  C   UNL     1      -6.325   2.033  -4.801  0.00  0.00    +0.001 A 
ATOM     14  C   UNL     1      -7.145   3.159  -4.740  0.00  0.00    +0.001 A 
ATOM     15  C   UNL     1      -6.965   4.105  -3.778  0.00  0.00    +0.008 A 
ENDBRANCH   4   6
BRANCH   1  16
ATOM     16  C   UNL     1      -1.427  -0.538  -2.248  0.00  0.00    +0.107 C 
ATOM     17  C   UNL     1      -2.466  -1.642  -2.452  0.00  0.00    +0.024 C 
ENDBRANCH   1  16
BRANCH   1  18
ATOM     18  C   UNL     1      -0.961  -0.294   0.235  0.00  0.00    +0.143 C 
BRANCH  18  19
ATOM     19  C   UNL     1      -1.167  -1.773   0.441  0.00  0.00    +0.133 A 
ATOM     20  N   UNL     1      -0.191  -2.578   0.148  0.00  0.00    -0.232 NA
ATOM     21  C   UNL     1      -0.304  -3.920   0.307  0.00  0.00    +0.078 A 
ATOM     22  C   UNL     1       0.745  -4.786  -0.007  0.00  0.00    +0.028 A 
ATOM     23  C   UNL     1       0.587  -6.142   0.171  0.00  0.00    +0.002 A 
ATOM     24  C   UNL     1      -0.605  -6.661   0.660  0.00  0.00    +0.001 A 
ATOM     25  C   UNL     1      -1.655  -5.827   0.977  0.00  0.00    +0.015 A 
ATOM     26  C   UNL     1      -1.515  -4.451   0.804  0.00  0.00    +0.065 A 
ATOM     27  C   UNL     1      -2.600  -3.513   1.126  0.00  0.00    +0.262 A 
ATOM     28  O   UNL     1      -3.668  -3.905   1.557  0.00  0.00    -0.267 OA
ATOM     29  N   UNL     1      -2.363  -2.195   0.928  0.00  0.00    -0.298 N 
ATOM     30  C   UNL     1      -3.407  -1.215   1.238  0.00  0.00    +0.154 C 
ENDBRANCH  18  19
BRANCH  18  32
ATOM     31  C   UNL     1       0.759   1.507   0.034  0.00  0.00    +0.006 C 
ATOM     32  C   UNL     1       0.533  -0.005   0.073  0.00  0.00    +0.027 C 
ENDBRANCH  18  32
ENDBRANCH   1  18
TORSDOF 5
