REMARK  Name = ZINC51114936
REMARK  8 active torsions:
REMARK  status: ('A' for Active; 'I' for Inactive)
REMARK    1  A    between atoms: C_1  and  C_2
REMARK    2  A    between atoms: C_4  and  C_8
REMARK    3  A    between atoms: C_5  and  C_7
REMARK    4  A    between atoms: C_8  and  C_10
REMARK    5  A    between atoms: C_8  and  N_11
REMARK    6  A    between atoms: C_12  and  C_14
REMARK    7  A    between atoms: C_19  and  N_20
REMARK    8  A    between atoms: N_20  and  N_21
REMARK                            x       y       z     vdW  Elec       q    Type
REMARK                         _______ _______ _______ _____ _____    ______ ____
ROOT
ATOM      1  N   UNL     1      -3.084  -2.596  -0.628  0.00  0.00    -0.305 N 
ATOM      2  C   UNL     1      -4.050  -3.367  -1.168  0.00  0.00    +0.248 C 
ATOM      3  O   UNL     1      -3.923  -4.576  -1.186  0.00  0.00    -0.270 OA
ATOM      4  H   UNL     1      -3.185  -1.632  -0.613  0.00  0.00    +0.150 HD
ENDROOT
BRANCH   2   5
ATOM      5  C   UNL     1      -5.258  -2.743  -1.736  0.00  0.00    +0.079 A 
ATOM      6  C   UNL     1      -5.475  -1.366  -1.612  0.00  0.00    +0.033 A 
ATOM      7  C   UNL     1      -6.626  -0.829  -2.164  0.00  0.00    +0.037 A 
ATOM      8  C   UNL     1      -7.521  -1.660  -2.816  0.00  0.00    +0.128 A 
ATOM      9  N   UNL     1      -7.298  -2.955  -2.921  0.00  0.00    -0.237 NA
ATOM     10  C   UNL     1      -6.211  -3.519  -2.417  0.00  0.00    +0.144 A 
ATOM     11 BR   UNL     1      -6.973   1.025  -2.027  0.00  0.00    -0.049 Br
BRANCH  10  12
ATOM     12  N   UNL     1      -6.016  -4.882  -2.557  0.00  0.00    -0.267 N 
ATOM     13  H   UNL     1      -5.265  -5.311  -2.117  0.00  0.00    +0.167 HD
BRANCH  12  14
ATOM     14  N   UNL     1      -6.879  -5.622  -3.313  0.00  0.00    -0.255 NA
ATOM     15  H   UNL     1      -6.943  -5.256  -4.251  0.00  0.00    +0.140 HD
ATOM     16  H   UNL     1      -6.610  -6.594  -3.321  0.00  0.00    +0.140 HD
ENDBRANCH  12  14
ENDBRANCH  10  12
ENDBRANCH   2   5
BRANCH   1  17
ATOM     17  C   UNL     1      -1.883  -3.216  -0.063  0.00  0.00    +0.101 C 
ATOM     18  C   UNL     1      -2.156  -3.632   1.384  0.00  0.00    +0.033 C 
BRANCH  17  22
ATOM     19  C   UNL     1       0.036   1.500  -0.143  0.00  0.00    +0.051 C 
ATOM     20  C   UNL     1       0.048  -0.007  -0.130  0.00  0.00    -0.013 A 
ATOM     21  C   UNL     1      -0.997  -0.869  -0.101  0.00  0.00    +0.016 A 
ATOM     22  C   UNL     1      -0.746  -2.228  -0.095  0.00  0.00    -0.017 A 
ATOM     23  C   UNL     1       0.539  -2.658  -0.117  0.00  0.00    -0.008 A 
ATOM     24  S   UNL     1       1.444  -1.120  -0.156  0.00  0.00    -0.098 S 
ATOM     25  C   UNL     1       1.067  -4.070  -0.116  0.00  0.00    +0.052 C 
ENDBRANCH  17  22
ENDBRANCH   1  17
TORSDOF 5
