REMARK  Name = ZINC23454587
REMARK  13 active torsions:
REMARK  status: ('A' for Active; 'I' for Inactive)
REMARK    1  A    between atoms: C_1  and  C_2
REMARK    2  A    between atoms: C_2  and  C_3
REMARK    3  A    between atoms: C_2  and  C_4
REMARK    4  A    between atoms: C_2  and  C_33
REMARK    5  A    between atoms: C_4  and  N_5
REMARK    6  A    between atoms: C_6  and  C_8
REMARK    7  A    between atoms: N_12  and  C_13
REMARK    8  A    between atoms: C_16  and  C_19
REMARK    9  A    between atoms: C_21  and  C_29
REMARK   10  A    between atoms: C_23  and  C_25
REMARK   11  A    between atoms: C_33  and  N_34
REMARK   12  A    between atoms: N_34  and  C_35
REMARK   13  A    between atoms: N_34  and  C_36
REMARK                            x       y       z     vdW  Elec       q    Type
REMARK                         _______ _______ _______ _____ _____    ______ ____
ROOT
ATOM      1  C   UNL     1      -2.407  -1.040  -0.477  0.00  0.00    +0.048 A 
ATOM      2  C   UNL     1      -1.153  -0.981  -1.072  0.00  0.00    +0.027 A 
ATOM      3  C   UNL     1      -0.207  -1.942  -0.788  0.00  0.00    +0.010 A 
ATOM      4  C   UNL     1      -0.514  -2.982   0.089  0.00  0.00    -0.018 A 
ATOM      5  C   UNL     1      -1.775  -3.043   0.680  0.00  0.00    +0.010 A 
ATOM      6  C   UNL     1      -2.715  -2.076   0.397  0.00  0.00    +0.027 A 
ENDROOT
BRANCH   4   7
ATOM      7  C   UNL     1       0.500  -4.022   0.392  0.00  0.00    -0.017 A 
ATOM      8  C   UNL     1       0.197  -5.059   1.272  0.00  0.00    +0.021 A 
ATOM      9  C   UNL     1       1.142  -6.026   1.547  0.00  0.00    +0.056 A 
ATOM     10  C   UNL     1       2.392  -5.962   0.958  0.00  0.00    +0.024 A 
ATOM     11  C   UNL     1       2.700  -4.932   0.087  0.00  0.00    +0.056 A 
ATOM     12  C   UNL     1       1.761  -3.962  -0.199  0.00  0.00    +0.021 A 
BRANCH  11  13
ATOM     13  C   UNL     1       4.064  -4.869  -0.550  0.00  0.00    +0.417 C 
ATOM     14  F   UNL     1       4.926  -4.126   0.264  0.00  0.00    -0.166 F 
ATOM     15  F   UNL     1       4.569  -6.165  -0.702  0.00  0.00    -0.166 F 
ATOM     16  F   UNL     1       3.965  -4.258  -1.805  0.00  0.00    -0.166 F 
ENDBRANCH  11  13
BRANCH   9  17
ATOM     17  C   UNL     1       0.814  -7.151   2.494  0.00  0.00    +0.417 C 
ATOM     18  F   UNL     1       1.923  -7.996   2.617  0.00  0.00    -0.166 F 
ATOM     19  F   UNL     1       0.489  -6.624   3.749  0.00  0.00    -0.166 F 
ATOM     20  F   UNL     1      -0.273  -7.878   1.997  0.00  0.00    -0.166 F 
ENDBRANCH   9  17
ENDBRANCH   4   7
BRANCH   1  25
ATOM     21  C   UNL     1      -3.219   1.306  -0.594  0.00  0.00    +0.128 A 
ATOM     22  C   UNL     1      -4.394   1.871  -1.005  0.00  0.00    +0.143 A 
ATOM     23  N   UNL     1      -5.205   0.887  -1.395  0.00  0.00    -0.243 NA
ATOM     24  C   UNL     1      -4.603  -0.266  -1.252  0.00  0.00    +0.204 A 
ATOM     25  N   UNL     1      -3.364  -0.059  -0.763  0.00  0.00    -0.295 N 
BRANCH  21  27
ATOM     26  N   UNL     1      -2.062   3.347   0.069  0.00  0.00    -0.310 N 
ATOM     27  C   UNL     1      -2.037   2.008  -0.082  0.00  0.00    +0.262 C 
ATOM     28  O   UNL     1      -1.035   1.382   0.207  0.00  0.00    -0.269 OA
ATOM     29  H   UNL     1      -2.990   3.906  -0.123  0.00  0.00    +0.149 HD
BRANCH  26  30
ATOM     30  C   UNL     1      -0.852   4.060   0.488  0.00  0.00    +0.109 C 
BRANCH  30  32
ATOM     31  C   UNL     1      -1.595   5.978  -0.930  0.00  0.00    +0.010 C 
ATOM     32  C   UNL     1      -1.113   5.567   0.463  0.00  0.00    -0.034 C 
ATOM     33  C   UNL     1      -2.185   5.916   1.497  0.00  0.00    +0.010 C 
BRANCH  32  34
ATOM     34  C   UNL     1       0.180   6.314   0.797  0.00  0.00    -0.072 C 
BRANCH  34  35
ATOM     35  N   UNL     1      -0.037   7.759   0.646  0.00  0.00    +0.376 N 
ATOM     36  C   UNL     1      -0.569   8.344   1.884  0.00  0.00    -0.097 C 
ATOM     37  C   UNL     1       1.199   8.437   0.233  0.00  0.00    -0.097 C 
ATOM     38  H   UNL     1      -0.785   7.908  -0.147  0.00  0.00    -0.083 HD
ENDBRANCH  34  35
ENDBRANCH  32  34
ENDBRANCH  30  32
ENDBRANCH  26  30
ENDBRANCH  21  27
ENDBRANCH   1  25
TORSDOF 9
