REMARK  Name = ZINC34774195
REMARK  9 active torsions:
REMARK  status: ('A' for Active; 'I' for Inactive)
REMARK    1  A    between atoms: C_1  and  C_2
REMARK    2  A    between atoms: C_2  and  C_3
REMARK    3  A    between atoms: C_3  and  S_4
REMARK    4  A    between atoms: S_4  and  C_5
REMARK    5  A    between atoms: C_9  and  C_14
REMARK    6  A    between atoms: N_23  and  C_26
REMARK    7  A    between atoms: C_26  and  C_27
REMARK    8  A    between atoms: C_30  and  C_34
REMARK    9  A    between atoms: C_32  and  C_33
REMARK                            x       y       z     vdW  Elec       q    Type
REMARK                         _______ _______ _______ _____ _____    ______ ____
ROOT
ATOM      1  C   UNL     1      -3.836  -2.641  -0.963  0.00  0.00    +0.191 A 
ATOM      2  N   UNL     1      -4.067  -3.947  -0.902  0.00  0.00    -0.206 NA
ATOM      3  C   UNL     1      -4.060  -4.609   0.243  0.00  0.00    +0.134 A 
ATOM      4  C   UNL     1      -3.798  -3.908   1.451  0.00  0.00    +0.055 A 
ATOM      5  C   UNL     1      -3.736  -4.408   2.822  0.00  0.00    +0.002 A 
ATOM      6  C   UNL     1      -3.466  -3.537   3.821  0.00  0.00    +0.056 A 
ATOM      7  S   UNL     1      -3.276  -1.979   2.976  0.00  0.00    -0.076 S 
ATOM      8  C   UNL     1      -3.562  -2.525   1.313  0.00  0.00    +0.115 A 
ATOM      9  N   UNL     1      -3.581  -1.937   0.132  0.00  0.00    -0.215 NA
ATOM     10  N   UNL     1      -4.306  -5.970   0.265  0.00  0.00    -0.318 N 
ATOM     11  C   UNL     1      -5.665  -6.497   0.063  0.00  0.00    +0.088 C 
ATOM     12  C   UNL     1      -5.608  -7.585  -1.015  0.00  0.00    -0.059 C 
ATOM     13  N   UNL     1      -4.616  -8.598  -0.634  0.00  0.00    +0.384 N 
ATOM     14  C   UNL     1      -3.275  -7.999  -0.607  0.00  0.00    -0.059 C 
ATOM     15  C   UNL     1      -3.215  -6.932   0.485  0.00  0.00    +0.088 C 
ATOM     16  H   UNL     1      -4.840  -8.960   0.280  0.00  0.00    -0.081 HD
ENDROOT
BRANCH   5  17
ATOM     17  C   UNL     1      -3.965  -5.843   3.112  0.00  0.00    -0.017 A 
ATOM     18  C   UNL     1      -5.179  -6.440   2.775  0.00  0.00    +0.008 A 
ATOM     19  C   UNL     1      -5.387  -7.777   3.048  0.00  0.00    +0.001 A 
ATOM     20  C   UNL     1      -4.393  -8.524   3.654  0.00  0.00    +0.000 A 
ATOM     21  C   UNL     1      -3.187  -7.938   3.991  0.00  0.00    +0.001 A 
ATOM     22  C   UNL     1      -2.966  -6.603   3.718  0.00  0.00    +0.008 A 
ENDBRANCH   5  17
BRANCH   1  23
ATOM     23  S   UNL     1      -3.862  -1.830  -2.526  0.00  0.00    -0.086 S 
BRANCH  23  24
ATOM     24  C   UNL     1      -3.494  -0.099  -2.129  0.00  0.00    +0.077 C 
BRANCH  24  26
ATOM     25  C   UNL     1      -3.175   2.190  -3.080  0.00  0.00    +0.004 C 
ATOM     26  C   UNL     1      -3.485   0.729  -3.415  0.00  0.00    +0.008 C 
ENDBRANCH  24  26
ENDBRANCH  23  24
ENDBRANCH   1  23
BRANCH  13  27
ATOM     27  C   UNL     1      -4.640  -9.695  -1.611  0.00  0.00    -0.043 C 
BRANCH  27  28
ATOM     28  C   UNL     1      -3.712 -10.792  -1.157  0.00  0.00    -0.061 A 
ATOM     29  C   UNL     1      -2.447 -10.897  -1.704  0.00  0.00    +0.002 A 
ATOM     30  C   UNL     1      -1.595 -11.903  -1.288  0.00  0.00    +0.003 A 
ATOM     31  C   UNL     1      -2.009 -12.804  -0.324  0.00  0.00    -0.050 A 
ATOM     32  C   UNL     1      -3.273 -12.698   0.224  0.00  0.00    +0.007 A 
ATOM     33  C   UNL     1      -4.123 -11.690  -0.190  0.00  0.00    -0.049 A 
ATOM     34  C   UNL     1      -5.500 -11.571   0.412  0.00  0.00    +0.044 C 
ATOM     35  C   UNL     1      -1.081 -13.902   0.129  0.00  0.00    +0.044 C 
ENDBRANCH  27  28
ENDBRANCH  13  27
TORSDOF 6
