REMARK  Name = ZINC65760805
REMARK  10 active torsions:
REMARK  status: ('A' for Active; 'I' for Inactive)
REMARK    1  A    between atoms: C_1  and  C_2
REMARK    2  A    between atoms: C_4  and  C_25
REMARK    3  A    between atoms: N_6  and  C_8
REMARK    4  A    between atoms: C_8  and  C_9
REMARK    5  A    between atoms: C_9  and  C_10
REMARK    6  A    between atoms: C_9  and  N_11
REMARK    7  A    between atoms: C_12  and  C_14
REMARK    8  A    between atoms: C_14  and  C_15
REMARK    9  A    between atoms: C_15  and  C_16
REMARK   10  A    between atoms: C_15  and  N_21
REMARK                            x       y       z     vdW  Elec       q    Type
REMARK                         _______ _______ _______ _____ _____    ______ ____
ROOT
ATOM      1  N   UNL     1      -0.809  -2.567   3.493  0.00  0.00    -0.314 N 
ATOM      2  C   UNL     1      -1.836  -1.959   4.117  0.00  0.00    +0.215 C 
ATOM      3  O   UNL     1      -1.630  -0.999   4.829  0.00  0.00    -0.276 OA
ATOM      4  H   UNL     1      -0.974  -3.335   2.923  0.00  0.00    +0.149 HD
ENDROOT
BRANCH   1   5
ATOM      5  C   UNL     1       0.557  -2.069   3.673  0.00  0.00    +0.053 C 
ATOM      6  C   UNL     1       1.159  -2.678   4.941  0.00  0.00    +0.026 C 
BRANCH   5   7
ATOM      7  C   UNL     1       1.408  -2.463   2.464  0.00  0.00    -0.057 C 
BRANCH   7  13
ATOM      8  C   UNL     1      -0.019   1.526   0.010  0.00  0.00    +0.005 C 
ATOM      9  C   UNL     1       0.002  -0.004   0.002  0.00  0.00    -0.031 C 
ATOM     10  C   UNL     1       0.724  -0.499  -1.255  0.00  0.00    +0.003 C 
ATOM     11  C   UNL     1       0.808  -2.027  -1.215  0.00  0.00    -0.031 C 
ATOM     12  C   UNL     1       1.518  -2.460   0.070  0.00  0.00    -0.076 C 
ATOM     13  N   UNL     1       0.765  -1.980   1.235  0.00  0.00    +0.381 N 
ATOM     14  C   UNL     1       0.742  -0.512   1.241  0.00  0.00    -0.076 C 
ATOM     15  C   UNL     1       1.595  -2.527  -2.428  0.00  0.00    +0.005 C 
ATOM     16  H   UNL     1      -0.180  -2.330   1.191  0.00  0.00    -0.082 HD
ENDBRANCH   7  13
ENDBRANCH   5   7
ENDBRANCH   1   5
BRANCH   2  17
ATOM     17  C   UNL     1      -3.241  -2.471   3.932  0.00  0.00    +0.123 C 
BRANCH  17  18
ATOM     18  C   UNL     1      -4.210  -1.610   4.744  0.00  0.00    +0.120 C 
BRANCH  18  19
ATOM     19  N   UNL     1      -3.925  -1.768   6.172  0.00  0.00    -0.292 N 
ATOM     20  C   UNL     1      -4.260  -0.792   7.039  0.00  0.00    +0.298 C 
ATOM     21  O   UNL     1      -4.798   0.221   6.635  0.00  0.00    -0.253 OA
ATOM     22  N   UNL     1      -3.998  -0.938   8.353  0.00  0.00    -0.313 N 
ATOM     23  H   UNL     1      -3.495  -2.576   6.494  0.00  0.00    +0.151 HD
ATOM     24  H   UNL     1      -3.568  -1.746   8.675  0.00  0.00    +0.146 HD
ATOM     25  H   UNL     1      -4.239  -0.235   8.976  0.00  0.00    +0.146 HD
ENDBRANCH  18  19
BRANCH  18  26
ATOM     26  C   UNL     1      -5.625  -2.044   4.463  0.00  0.00    +0.010 A 
ATOM     27  C   UNL     1      -6.540  -1.487   3.632  0.00  0.00    +0.013 A 
ATOM     28  C   UNL     1      -7.792  -2.063   3.531  0.00  0.00    +0.008 A 
ATOM     29  C   UNL     1      -8.069  -3.168   4.266  0.00  0.00    +0.045 A 
ATOM     30  S   UNL     1      -6.530  -3.430   5.132  0.00  0.00    -0.100 S 
ENDBRANCH  18  26
ENDBRANCH  17  18
ENDBRANCH   2  17
TORSDOF 7
