REMARK  Name = ZINC62965390
REMARK  6 active torsions:
REMARK  status: ('A' for Active; 'I' for Inactive)
REMARK    1  A    between atoms: C_1  and  N_2
REMARK    2  A    between atoms: N_2  and  C_3
REMARK    3  A    between atoms: N_2  and  C_4
REMARK    4  A    between atoms: N_8  and  S_10
REMARK    5  A    between atoms: S_10  and  C_13
REMARK    6  A    between atoms: C_14  and  N_21
REMARK                            x       y       z     vdW  Elec       q    Type
REMARK                         _______ _______ _______ _____ _____    ______ ____
ROOT
ATOM      1  S   UNL     1       0.459  -4.721   3.507  0.00  0.00    +0.064 S 
ATOM      2  O   UNL     1       0.984  -5.726   2.651  0.00  0.00    -0.153 OA
ATOM      3  O   UNL     1       0.702  -4.708   4.907  0.00  0.00    -0.153 OA
ENDROOT
BRANCH   1   4
ATOM      4  C   UNL     1      -1.290  -4.746   3.299  0.00  0.00    +0.140 A 
ATOM      5  C   UNL     1      -2.117  -4.261   4.305  0.00  0.00    +0.053 A 
ATOM      6  C   UNL     1      -3.495  -4.283   4.138  0.00  0.00    +0.040 A 
ATOM      7  C   UNL     1      -4.041  -4.786   2.972  0.00  0.00    +0.021 A 
ATOM      8  C   UNL     1      -3.216  -5.269   1.973  0.00  0.00    +0.032 A 
ATOM      9  C   UNL     1      -1.842  -5.244   2.134  0.00  0.00    +0.047 A 
ATOM     10 BR   UNL     1      -0.717  -5.897   0.761  0.00  0.00    -0.048 Br
ATOM     11 BR   UNL     1      -5.918  -4.816   2.744  0.00  0.00    -0.050 Br
BRANCH   5  12
ATOM     12  N   UNL     1      -1.563  -3.753   5.482  0.00  0.00    -0.356 N 
ATOM     13  H   UNL     1      -0.645  -3.440   5.490  0.00  0.00    +0.142 HD
ATOM     14  H   UNL     1      -2.095  -3.714   6.292  0.00  0.00    +0.142 HD
ENDBRANCH   5  12
ENDBRANCH   1   4
BRANCH   1  18
ATOM     15  C   UNL     1       1.815  -1.519   1.449  0.00  0.00    -0.052 C 
ATOM     16  C   UNL     1       1.065  -0.889   2.652  0.00  0.00    +0.003 C 
ATOM     17  C   UNL     1       1.146  -2.027   3.700  0.00  0.00    +0.108 C 
ATOM     18  N   UNL     1       1.000  -3.270   2.920  0.00  0.00    -0.178 NA
ATOM     19  C   UNL     1       1.421  -3.009   1.532  0.00  0.00    +0.094 C 
BRANCH  15  21
ATOM     20  C   UNL     1       1.694   0.500   0.159  0.00  0.00    -0.096 C 
ATOM     21  N   UNL     1       1.356  -0.930   0.184  0.00  0.00    +0.379 N 
ATOM     22  C   UNL     1       2.015  -1.608  -0.940  0.00  0.00    -0.096 C 
ATOM     23  H   UNL     1       0.357  -1.040   0.104  0.00  0.00    -0.082 HD
ENDBRANCH  15  21
ENDBRANCH   1  18
TORSDOF 4
