REMARK  Name = ZINC36541399
REMARK  13 active torsions:
REMARK  status: ('A' for Active; 'I' for Inactive)
REMARK    1  A    between atoms: C_1  and  C_2
REMARK    2  A    between atoms: C_2  and  C_3
REMARK    3  A    between atoms: C_2  and  C_4
REMARK    4  A    between atoms: C_2  and  N_5
REMARK    5  A    between atoms: C_6  and  C_8
REMARK    6  A    between atoms: C_8  and  C_10
REMARK    7  A    between atoms: C_8  and  N_19
REMARK    8  A    between atoms: C_13  and  N_16
REMARK    9  A    between atoms: N_19  and  C_20
REMARK   10  A    between atoms: C_27  and  C_29
REMARK   11  A    between atoms: C_29  and  C_31
REMARK   12  A    between atoms: C_29  and  O_37
REMARK   13  A    between atoms: O_37  and  C_38
REMARK                            x       y       z     vdW  Elec       q    Type
REMARK                         _______ _______ _______ _____ _____    ______ ____
ROOT
ATOM      1  N   UNL     1       4.092  -0.252  -2.961  0.00  0.00    -0.252 N 
ATOM      2  C   UNL     1       4.400   0.794  -3.753  0.00  0.00    +0.254 C 
ATOM      3  O   UNL     1       3.525   1.371  -4.363  0.00  0.00    -0.272 OA
ENDROOT
BRANCH   1   4
ATOM      4  C   UNL     1       5.088  -0.868  -2.195  0.00  0.00    +0.056 A 
ATOM      5  C   UNL     1       5.846  -1.897  -2.737  0.00  0.00    +0.025 A 
ATOM      6  C   UNL     1       6.829  -2.503  -1.979  0.00  0.00    +0.002 A 
ATOM      7  C   UNL     1       7.059  -2.085  -0.681  0.00  0.00    +0.002 A 
ATOM      8  C   UNL     1       6.307  -1.060  -0.137  0.00  0.00    +0.022 A 
ATOM      9  C   UNL     1       5.326  -0.446  -0.892  0.00  0.00    +0.062 A 
ATOM     10 CL   UNL     1       4.387   0.847  -0.212  0.00  0.00    -0.082 Cl
ENDBRANCH   1   4
BRANCH   1  11
ATOM     11  C   UNL     1       2.713  -0.744  -2.901  0.00  0.00    +0.197 C 
BRANCH  11  12
ATOM     12  C   UNL     1       2.288  -1.216  -4.268  0.00  0.00    -0.018 A 
ATOM     13  C   UNL     1       3.122  -2.036  -5.006  0.00  0.00    +0.008 A 
ATOM     14  C   UNL     1       2.733  -2.469  -6.260  0.00  0.00    +0.033 A 
ATOM     15  C   UNL     1       1.509  -2.083  -6.775  0.00  0.00    +0.126 A 
ATOM     16  C   UNL     1       0.675  -1.264  -6.037  0.00  0.00    +0.033 A 
ATOM     17  C   UNL     1       1.063  -0.835  -4.781  0.00  0.00    +0.008 A 
BRANCH  15  18
ATOM     18  N   UNL     1       1.093  -2.546  -8.118  0.00  0.00    +0.056 N 
ATOM     19  O   UNL     1       1.823  -3.262  -8.764  0.00  0.00    -0.126 OA
ATOM     20  O   UNL     1       0.023  -2.209  -8.569  0.00  0.00    -0.126 OA
ENDBRANCH  15  18
ENDBRANCH  11  12
BRANCH  11  22
ATOM     21  N   UNL     1       1.592  -1.974  -1.071  0.00  0.00    -0.309 N 
ATOM     22  C   UNL     1       2.631  -1.890  -1.926  0.00  0.00    +0.239 C 
ATOM     23  O   UNL     1       3.499  -2.736  -1.909  0.00  0.00    -0.273 OA
ATOM     24  H   UNL     1       0.897  -1.297  -1.084  0.00  0.00    +0.149 HD
BRANCH  21  26
ATOM     25  C   UNL     1       2.740  -3.071   0.789  0.00  0.00    +0.031 C 
ATOM     26  C   UNL     1       1.511  -3.088  -0.123  0.00  0.00    +0.026 C 
ATOM     27  C   UNL     1       1.466  -4.410  -0.892  0.00  0.00    +0.031 C 
ATOM     28  C   UNL     1       0.245  -2.947   0.724  0.00  0.00    +0.031 C 
ENDBRANCH  21  26
ENDBRANCH  11  22
ENDBRANCH   1  11
BRANCH   2  29
ATOM     29  C   UNL     1       5.832   1.245  -3.882  0.00  0.00    +0.234 C 
BRANCH  29  30
ATOM     30  C   UNL     1       6.184   2.136  -2.719  0.00  0.00    -0.010 A 
ATOM     31  C   UNL     1       5.704   3.432  -2.670  0.00  0.00    +0.006 A 
ATOM     32  C   UNL     1       6.027   4.249  -1.603  0.00  0.00    +0.000 A 
ATOM     33  C   UNL     1       6.829   3.771  -0.584  0.00  0.00    +0.000 A 
ATOM     34  C   UNL     1       7.308   2.475  -0.632  0.00  0.00    +0.000 A 
ATOM     35  C   UNL     1       6.982   1.657  -1.697  0.00  0.00    +0.006 A 
ENDBRANCH  29  30
BRANCH  29  36
ATOM     36  O   UNL     1       5.996   1.969  -5.103  0.00  0.00    -0.366 OA
ATOM     37  C   UNL     1       6.357   1.153  -6.219  0.00  0.00    +0.195 C 
ENDBRANCH  29  36
ENDBRANCH   2  29
TORSDOF 9
