REMARK  Name = ZINC36306546
REMARK  16 active torsions:
REMARK  status: ('A' for Active; 'I' for Inactive)
REMARK    1  A    between atoms: C_1  and  C_2
REMARK    2  A    between atoms: C_6  and  O_8
REMARK    3  A    between atoms: O_8  and  C_9
REMARK    4  A    between atoms: C_10  and  C_21
REMARK    5  A    between atoms: C_11  and  C_15
REMARK    6  A    between atoms: N_13  and  C_14
REMARK    7  A    between atoms: C_21  and  N_22
REMARK    8  A    between atoms: N_22  and  C_23
REMARK    9  A    between atoms: N_22  and  C_27
REMARK   10  A    between atoms: C_23  and  C_24
REMARK   11  A    between atoms: C_27  and  C_28
REMARK   12  A    between atoms: C_28  and  C_30
REMARK   13  A    between atoms: C_28  and  O_39
REMARK   14  A    between atoms: C_30  and  O_31
REMARK   15  A    between atoms: O_31  and  C_32
REMARK   16  A    between atoms: C_32  and  C_33
REMARK                            x       y       z     vdW  Elec       q    Type
REMARK                         _______ _______ _______ _____ _____    ______ ____
ROOT
ATOM      1  C   UNL     1      -0.075  -4.778   1.619  0.00  0.00    +0.221 A 
ATOM      2  C   UNL     1       0.011  -5.476   2.780  0.00  0.00    +0.025 A 
ATOM      3  C   UNL     1       0.360  -6.802   2.460  0.00  0.00    +0.098 A 
ATOM      4  N   UNL     1       0.478  -6.891   1.153  0.00  0.00    -0.168 NA
ATOM      5  N   UNL     1       0.204  -5.633   0.601  0.00  0.00    -0.235 N 
ATOM      6  C   UNL     1       0.219  -5.297  -0.825  0.00  0.00    +0.176 C 
ENDROOT
BRANCH   3   7
ATOM      7  C   UNL     1       0.560  -7.908   3.430  0.00  0.00    +0.002 A 
ATOM      8  C   UNL     1       0.046  -9.175   3.160  0.00  0.00    +0.010 A 
ATOM      9  C   UNL     1       0.235 -10.200   4.065  0.00  0.00    +0.001 A 
ATOM     10  C   UNL     1       0.932  -9.971   5.238  0.00  0.00    +0.000 A 
ATOM     11  C   UNL     1       1.444  -8.715   5.510  0.00  0.00    +0.001 A 
ATOM     12  C   UNL     1       1.267  -7.685   4.609  0.00  0.00    +0.010 A 
ENDBRANCH   3   7
BRANCH   1  13
ATOM     13  O   UNL     1      -0.388  -3.463   1.497  0.00  0.00    -0.438 OA
BRANCH  13  19
ATOM     14  C   UNL     1       1.115   1.143   0.909  0.00  0.00    +0.044 C 
ATOM     15  C   UNL     1       1.403  -0.315   1.158  0.00  0.00    -0.047 A 
ATOM     16  C   UNL     1       2.708  -0.742   1.331  0.00  0.00    +0.003 A 
ATOM     17  C   UNL     1       2.976  -2.079   1.560  0.00  0.00    +0.004 A 
ATOM     18  C   UNL     1       1.941  -2.992   1.616  0.00  0.00    +0.046 A 
ATOM     19  C   UNL     1       0.631  -2.567   1.443  0.00  0.00    +0.131 A 
ATOM     20  C   UNL     1       0.365  -1.223   1.218  0.00  0.00    +0.049 A 
ENDBRANCH  13  19
ENDBRANCH   1  13
BRANCH   2  21
ATOM     21  C   UNL     1      -0.226  -4.930   4.164  0.00  0.00    -0.035 C 
BRANCH  21  22
ATOM     22  N   UNL     1      -1.666  -4.927   4.450  0.00  0.00    +0.384 N 
ATOM     23  H   UNL     1      -2.152  -4.417   3.728  0.00  0.00    -0.081 HD
BRANCH  22  24
ATOM     24  C   UNL     1      -2.160  -6.310   4.489  0.00  0.00    -0.075 C 
BRANCH  24  25
ATOM     25  C   UNL     1      -3.684  -6.303   4.629  0.00  0.00    -0.028 C 
ATOM     26  C   UNL     1      -4.503  -6.879   3.472  0.00  0.00    +0.002 C 
ATOM     27  C   UNL     1      -4.385  -7.654   4.786  0.00  0.00    +0.002 C 
ENDBRANCH  24  25
ENDBRANCH  22  24
BRANCH  22  28
ATOM     28  C   UNL     1      -1.907  -4.285   5.749  0.00  0.00    -0.044 C 
BRANCH  28  29
ATOM     29  C   UNL     1      -1.535  -2.803   5.662  0.00  0.00    +0.124 C 
BRANCH  29  30
ATOM     30  O   UNL     1      -2.376  -2.156   4.705  0.00  0.00    -0.391 OA
ATOM     31  H   UNL     1      -3.319  -2.202   4.916  0.00  0.00    +0.210 HD
ENDBRANCH  29  30
BRANCH  29  32
ATOM     32  C   UNL     1      -1.724  -2.148   7.032  0.00  0.00    +0.189 C 
BRANCH  32  33
ATOM     33  O   UNL     1      -1.267  -0.795   6.980  0.00  0.00    -0.373 OA
BRANCH  33  34
ATOM     34  C   UNL     1      -1.400  -0.089   8.216  0.00  0.00    +0.195 C 
BRANCH  34  35
ATOM     35  C   UNL     1      -0.891   1.319   8.047  0.00  0.00    -0.022 A 
ATOM     36  C   UNL     1       0.440   1.606   8.286  0.00  0.00    +0.006 A 
ATOM     37  C   UNL     1       0.907   2.898   8.131  0.00  0.00    +0.000 A 
ATOM     38  C   UNL     1       0.043   3.902   7.737  0.00  0.00    +0.000 A 
ATOM     39  C   UNL     1      -1.287   3.615   7.497  0.00  0.00    +0.000 A 
ATOM     40  C   UNL     1      -1.753   2.322   7.647  0.00  0.00    +0.006 A 
ENDBRANCH  34  35
ENDBRANCH  33  34
ENDBRANCH  32  33
ENDBRANCH  29  32
ENDBRANCH  28  29
ENDBRANCH  22  28
ENDBRANCH  21  22
ENDBRANCH   2  21
TORSDOF 14
