REMARK  Name = ZINC54396840
REMARK  10 active torsions:
REMARK  status: ('A' for Active; 'I' for Inactive)
REMARK    1  A    between atoms: C_1  and  C_2
REMARK    2  A    between atoms: C_2  and  C_3
REMARK    3  A    between atoms: C_2  and  C_4
REMARK    4  A    between atoms: C_2  and  C_5
REMARK    5  A    between atoms: C_5  and  C_7
REMARK    6  A    between atoms: C_5  and  N_13
REMARK    7  A    between atoms: N_13  and  C_14
REMARK    8  A    between atoms: C_14  and  C_15
REMARK    9  A    between atoms: N_17  and  C_18
REMARK   10  A    between atoms: C_19  and  C_23
REMARK                            x       y       z     vdW  Elec       q    Type
REMARK                         _______ _______ _______ _____ _____    ______ ____
ROOT
ATOM      1  C   UNL     1      -0.660  -1.987  -2.489  0.00  0.00    +0.178 C 
ENDROOT
BRANCH   1   2
ATOM      2  C   UNL     1      -0.641  -3.425  -2.938  0.00  0.00    +0.231 C 
ATOM      3  O   UNL     1       0.310  -4.130  -2.676  0.00  0.00    -0.274 OA
ATOM      4  N   UNL     1      -1.682  -3.929  -3.631  0.00  0.00    -0.278 N 
ATOM      5  H   UNL     1      -2.443  -3.365  -3.841  0.00  0.00    +0.155 HD
BRANCH   4   6
ATOM      6  C   UNL     1      -1.664  -5.252  -4.045  0.00  0.00    +0.084 A 
ATOM      7  C   UNL     1      -2.634  -5.933  -4.766  0.00  0.00    +0.065 A 
ATOM      8  C   UNL     1      -2.361  -7.320  -5.067  0.00  0.00    +0.022 A 
ATOM      9  C   UNL     1      -1.188  -7.799  -4.611  0.00  0.00    +0.048 A 
ATOM     10  S   UNL     1      -0.462  -6.395  -3.795  0.00  0.00    -0.081 S 
BRANCH   7  11
ATOM     11  C   UNL     1      -3.873  -5.280  -5.199  0.00  0.00    +0.244 C 
ATOM     12  O   UNL     1      -4.071  -4.110  -4.928  0.00  0.00    -0.270 OA
ATOM     13  N   UNL     1      -4.792  -5.975  -5.898  0.00  0.00    -0.325 N 
ATOM     14  H   UNL     1      -4.634  -6.907  -6.114  0.00  0.00    +0.145 HD
ATOM     15  H   UNL     1      -5.612  -5.543  -6.185  0.00  0.00    +0.145 HD
ENDBRANCH   7  11
ENDBRANCH   4   6
ENDBRANCH   1   2
BRANCH   1  16
ATOM     16  N   UNL     1       0.578  -1.686  -1.758  0.00  0.00    -0.301 NA
ATOM     17  H   UNL     1       1.387  -1.835  -2.342  0.00  0.00    +0.123 HD
BRANCH  16  18
ATOM     18  C   UNL     1       0.556  -0.316  -1.228  0.00  0.00    +0.090 C 
BRANCH  18  19
ATOM     19  C   UNL     1       1.878   0.352  -1.508  0.00  0.00    -0.030 A 
ATOM     20  C   UNL     1       3.054  -0.363  -1.380  0.00  0.00    +0.005 A 
ATOM     21  C   UNL     1       4.267   0.250  -1.637  0.00  0.00    +0.000 A 
ATOM     22  C   UNL     1       4.303   1.577  -2.021  0.00  0.00    +0.000 A 
ATOM     23  C   UNL     1       3.126   2.292  -2.150  0.00  0.00    +0.000 A 
ATOM     24  C   UNL     1       1.914   1.678  -1.897  0.00  0.00    +0.005 A 
ENDBRANCH  18  19
BRANCH  18  26
ATOM     25  C   UNL     1       0.433   1.055   0.857  0.00  0.00    +0.012 C 
ATOM     26  C   UNL     1       0.316  -0.358   0.282  0.00  0.00    -0.018 C 
ATOM     27  C   UNL     1       1.358  -1.264   0.940  0.00  0.00    +0.012 C 
ATOM     28  C   UNL     1      -1.085  -0.906   0.560  0.00  0.00    +0.012 C 
ENDBRANCH  18  26
ENDBRANCH  16  18
ENDBRANCH   1  16
TORSDOF 7
