REMARK  Name = ZINC44990372
REMARK  8 active torsions:
REMARK  status: ('A' for Active; 'I' for Inactive)
REMARK    1  A    between atoms: C_1  and  C_2
REMARK    2  A    between atoms: C_2  and  C_3
REMARK    3  A    between atoms: C_3  and  C_5
REMARK    4  A    between atoms: C_3  and  N_6
REMARK    5  A    between atoms: C_7  and  C_9
REMARK    6  A    between atoms: C_9  and  C_10
REMARK    7  A    between atoms: C_10  and  N_11
REMARK    8  A    between atoms: C_13  and  N_19
REMARK                            x       y       z     vdW  Elec       q    Type
REMARK                         _______ _______ _______ _____ _____    ______ ____
ROOT
ATOM      1  N   UNL     1       6.232   0.963  -3.680  0.00  0.00    -0.327 N 
ATOM      2  C   UNL     1       6.955   1.110  -4.862  0.00  0.00    +0.140 A 
ATOM      3  C   UNL     1       8.298   1.493  -4.810  0.00  0.00    +0.066 A 
ATOM      4  C   UNL     1       9.003   1.635  -5.997  0.00  0.00    +0.043 A 
ATOM      5  C   UNL     1       8.341   1.390  -7.194  0.00  0.00    +0.038 A 
ATOM      6  C   UNL     1       7.012   1.015  -7.168  0.00  0.00    +0.128 A 
ATOM      7  N   UNL     1       6.366   0.882  -6.024  0.00  0.00    -0.238 NA
ATOM      8 BR   UNL     1       9.250   1.568  -8.842  0.00  0.00    -0.049 Br
ATOM      9  H   UNL     1       6.660   1.129  -2.826  0.00  0.00    +0.148 HD
ENDROOT
BRANCH   3  10
ATOM     10  N   UNL     1       8.922   1.729  -3.579  0.00  0.00    -0.355 N 
ATOM     11  H   UNL     1       8.422   1.628  -2.755  0.00  0.00    +0.142 HD
ATOM     12  H   UNL     1       9.855   1.994  -3.552  0.00  0.00    +0.142 HD
ENDBRANCH   3  10
BRANCH   1  13
ATOM     13  C   UNL     1       4.825   0.556  -3.728  0.00  0.00    +0.112 C 
BRANCH  13  14
ATOM     14  C   UNL     1       4.271   0.470  -2.304  0.00  0.00    +0.114 C 
BRANCH  14  16
ATOM     15  N   UNL     1       2.125  -0.091  -1.209  0.00  0.00    -0.313 N 
ATOM     16  C   UNL     1       2.824   0.051  -2.353  0.00  0.00    +0.215 C 
ATOM     17  O   UNL     1       2.289  -0.157  -3.421  0.00  0.00    -0.276 OA
ATOM     18  H   UNL     1       2.553   0.075  -0.355  0.00  0.00    +0.149 HD
BRANCH  15  19
ATOM     19  C   UNL     1       0.718  -0.497  -1.257  0.00  0.00    +0.070 C 
ATOM     20  C   UNL     1       0.630  -2.023  -1.329  0.00  0.00    +0.028 C 
BRANCH  19  22
ATOM     21  C   UNL     1      -0.019   1.526   0.010  0.00  0.00    +0.005 C 
ATOM     22  C   UNL     1       0.002  -0.004   0.002  0.00  0.00    +0.018 C 
ENDBRANCH  19  22
ENDBRANCH  15  19
ENDBRANCH  14  16
ENDBRANCH  13  14
ENDBRANCH   1  13
TORSDOF 6
