REMARK  Name = ZINC28623820
REMARK  6 active torsions:
REMARK  status: ('A' for Active; 'I' for Inactive)
REMARK    1  A    between atoms: C_2  and  C_3
REMARK    2  A    between atoms: C_3  and  N_4
REMARK    3  A    between atoms: C_5  and  C_7
REMARK    4  A    between atoms: C_7  and  N_8
REMARK    5  A    between atoms: C_16  and  C_29
REMARK    6  A    between atoms: C_21  and  C_23
REMARK                            x       y       z     vdW  Elec       q    Type
REMARK                         _______ _______ _______ _____ _____    ______ ____
ROOT
ATOM      1  N   UNL     1       5.193  -2.857  -1.450  0.00  0.00    +0.387 N 
ATOM      2  C   UNL     1       4.674  -2.815  -0.076  0.00  0.00    -0.059 C 
ATOM      3  C   UNL     1       3.336  -2.071  -0.061  0.00  0.00    +0.088 C 
ATOM      4  N   UNL     1       3.528  -0.713  -0.590  0.00  0.00    -0.318 N 
ATOM      5  C   UNL     1       4.048  -0.755  -1.964  0.00  0.00    +0.088 C 
ATOM      6  C   UNL     1       5.385  -1.499  -1.979  0.00  0.00    -0.059 C 
ATOM      7  C   UNL     1       2.353   0.015  -0.526  0.00  0.00    +0.134 A 
ATOM      8  C   UNL     1       2.331   1.287   0.109  0.00  0.00    +0.055 A 
ATOM      9  C   UNL     1       3.412   2.021   0.757  0.00  0.00    +0.002 A 
ATOM     10  C   UNL     1       3.144   3.233   1.298  0.00  0.00    +0.056 A 
ATOM     11  S   UNL     1       1.408   3.463   0.967  0.00  0.00    -0.076 S 
ATOM     12  C   UNL     1       1.081   1.941   0.117  0.00  0.00    +0.114 A 
ATOM     13  N   UNL     1       0.015   1.395  -0.433  0.00  0.00    -0.220 NA
ATOM     14  C   UNL     1       0.094   0.204  -1.012  0.00  0.00    +0.164 A 
ATOM     15  N   UNL     1       1.241  -0.466  -1.054  0.00  0.00    -0.212 NA
ATOM     16  H   UNL     1       4.447  -3.364  -2.080  0.00  0.00    -0.081 HD
ENDROOT
BRANCH  14  17
ATOM     17  C   UNL     1      -1.119  -0.390  -1.623  0.00  0.00    +0.037 A 
ATOM     18  C   UNL     1      -2.339   0.292  -1.587  0.00  0.00    +0.014 A 
ATOM     19  C   UNL     1      -3.441  -0.304  -2.177  0.00  0.00    +0.020 A 
ATOM     20  C   UNL     1      -3.303  -1.547  -2.768  0.00  0.00    +0.111 A 
ATOM     21  N   UNL     1      -2.139  -2.168  -2.782  0.00  0.00    -0.263 NA
ATOM     22  C   UNL     1      -1.062  -1.639  -2.238  0.00  0.00    +0.122 A 
ENDBRANCH  14  17
BRANCH   9  23
ATOM     23  C   UNL     1       4.779   1.450   0.822  0.00  0.00    -0.017 A 
ATOM     24  C   UNL     1       4.988   0.201   1.405  0.00  0.00    +0.008 A 
ATOM     25  C   UNL     1       6.262  -0.327   1.459  0.00  0.00    +0.001 A 
ATOM     26  C   UNL     1       7.331   0.385   0.945  0.00  0.00    +0.000 A 
ATOM     27  C   UNL     1       7.130   1.627   0.370  0.00  0.00    +0.001 A 
ATOM     28  C   UNL     1       5.860   2.163   0.306  0.00  0.00    +0.008 A 
ENDBRANCH   9  23
BRANCH   1  29
ATOM     29  C   UNL     1       6.440  -3.630  -1.518  0.00  0.00    +0.019 C 
BRANCH  29  31
ATOM     30  N   UNL     1       7.926  -4.550  -3.268  0.00  0.00    -0.313 N 
ATOM     31  C   UNL     1       6.811  -3.859  -2.961  0.00  0.00    +0.197 C 
ATOM     32  O   UNL     1       6.105  -3.422  -3.845  0.00  0.00    -0.278 OA
ATOM     33  H   UNL     1       8.566  -4.947  -2.466  0.00  0.00    +0.149 HD
BRANCH  30  34
ATOM     34  C   UNL     1       8.287  -4.774  -4.670  0.00  0.00    +0.131 C 
BRANCH  34  36
ATOM     35  C   UNL     1       9.607  -6.685  -5.421  0.00  0.00    +0.005 C 
ATOM     36  C   UNL     1       9.566  -5.566  -4.740  0.00  0.00    -0.016 C 
ENDBRANCH  34  36
ENDBRANCH  30  34
ENDBRANCH  29  31
ENDBRANCH   1  29
TORSDOF 6
