REMARK  Name = ZINC54623310
REMARK  15 active torsions:
REMARK  status: ('A' for Active; 'I' for Inactive)
REMARK    1  A    between atoms: C_1  and  C_2
REMARK    2  A    between atoms: C_3  and  C_35
REMARK    3  A    between atoms: C_4  and  C_21
REMARK    4  A    between atoms: C_9  and  S_11
REMARK    5  A    between atoms: S_11  and  C_12
REMARK    6  A    between atoms: C_12  and  C_13
REMARK    7  A    between atoms: C_24  and  O_29
REMARK    8  A    between atoms: C_25  and  O_27
REMARK    9  A    between atoms: O_27  and  C_28
REMARK   10  A    between atoms: O_29  and  C_30
REMARK   11  A    between atoms: C_30  and  C_31
REMARK   12  A    between atoms: C_31  and  C_32
REMARK   13  A    between atoms: C_32  and  C_33
REMARK   14  A    between atoms: C_32  and  C_34
REMARK   15  A    between atoms: C_35  and  C_37
REMARK                            x       y       z     vdW  Elec       q    Type
REMARK                         _______ _______ _______ _____ _____    ______ ____
ROOT
ATOM      1  C   UNL     1      -0.018   1.503   0.010  0.00  0.00    +0.061 C 
ATOM      2  C   UNL     1       0.002  -0.004   0.002  0.00  0.00    +0.016 C 
ATOM      3  C   UNL     1      -1.168  -0.672   0.004  0.00  0.00    +0.040 C 
ATOM      4  C   UNL     1      -1.255  -2.175   0.007  0.00  0.00    +0.176 C 
ATOM      5  N   UNL     1       0.061  -2.737  -0.284  0.00  0.00    -0.220 N 
ATOM      6  C   UNL     1       1.206  -2.011  -0.281  0.00  0.00    +0.219 A 
ATOM      7  N   UNL     1       2.195  -2.811  -0.572  0.00  0.00    -0.187 NA
ATOM      8  C   UNL     1       1.725  -4.051  -0.772  0.00  0.00    +0.211 A 
ATOM      9  N   UNL     1       0.419  -4.046  -0.605  0.00  0.00    -0.141 NA
ATOM     10  N   UNL     1       1.209  -0.650  -0.013  0.00  0.00    -0.287 N 
ATOM     11  H   UNL     1       2.037  -0.174   0.161  0.00  0.00    +0.155 HD
ENDROOT
BRANCH   4  12
ATOM     12  C   UNL     1      -1.716  -2.649   1.361  0.00  0.00    -0.015 A 
ATOM     13  C   UNL     1      -0.971  -2.349   2.487  0.00  0.00    +0.010 A 
ATOM     14  C   UNL     1      -1.389  -2.782   3.732  0.00  0.00    +0.050 A 
ATOM     15  C   UNL     1      -2.558  -3.517   3.853  0.00  0.00    +0.162 A 
ATOM     16  C   UNL     1      -3.307  -3.818   2.720  0.00  0.00    +0.162 A 
ATOM     17  C   UNL     1      -2.885  -3.377   1.476  0.00  0.00    +0.055 A 
BRANCH  16  18
ATOM     18  O   UNL     1      -4.455  -4.539   2.834  0.00  0.00    -0.491 OA
ATOM     19  C   UNL     1      -5.173  -4.811   1.629  0.00  0.00    +0.277 C 
ENDBRANCH  16  18
BRANCH  15  20
ATOM     20  O   UNL     1      -2.970  -3.944   5.076  0.00  0.00    -0.488 OA
BRANCH  20  21
ATOM     21  C   UNL     1      -2.151  -3.598   6.195  0.00  0.00    +0.229 C 
BRANCH  21  22
ATOM     22  C   UNL     1      -2.771  -4.160   7.475  0.00  0.00    +0.044 C 
BRANCH  22  23
ATOM     23  C   UNL     1      -1.893  -3.790   8.672  0.00  0.00    -0.014 C 
ATOM     24  C   UNL     1      -1.894  -2.271   8.855  0.00  0.00    +0.007 C 
ATOM     25  C   UNL     1      -2.445  -4.457   9.934  0.00  0.00    +0.007 C 
ENDBRANCH  22  23
ENDBRANCH  21  22
ENDBRANCH  20  21
ENDBRANCH  15  20
ENDBRANCH   4  12
BRANCH   3  26
ATOM     26  C   UNL     1      -2.361   0.068   0.003  0.00  0.00    +0.160 C 
ATOM     27  O   UNL     1      -2.322   1.282  -0.000  0.00  0.00    -0.293 OA
ATOM     28  C   UNL     1      -3.689  -0.644   0.005  0.00  0.00    +0.091 C 
ENDBRANCH   3  26
BRANCH   8  29
ATOM     29  S   UNL     1       2.697  -5.459  -1.190  0.00  0.00    -0.080 S 
BRANCH  29  30
ATOM     30  C   UNL     1       4.391  -4.814  -1.270  0.00  0.00    +0.114 C 
BRANCH  30  31
ATOM     31  C   UNL     1       5.338  -5.932  -1.625  0.00  0.00    -0.019 A 
ATOM     32  C   UNL     1       5.915  -6.692  -0.625  0.00  0.00    +0.006 A 
ATOM     33  C   UNL     1       6.784  -7.717  -0.949  0.00  0.00    +0.000 A 
ATOM     34  C   UNL     1       7.075  -7.984  -2.274  0.00  0.00    +0.001 A 
ATOM     35  C   UNL     1       6.498  -7.225  -3.275  0.00  0.00    +0.020 A 
ATOM     36  C   UNL     1       5.624  -6.202  -2.951  0.00  0.00    +0.045 A 
ATOM     37 CL   UNL     1       4.894  -5.252  -4.207  0.00  0.00    -0.083 Cl
ENDBRANCH  30  31
ENDBRANCH  29  30
ENDBRANCH   8  29
TORSDOF 10
