REMARK  Name = ZINC58915016
REMARK  13 active torsions:
REMARK  status: ('A' for Active; 'I' for Inactive)
REMARK    1  A    between atoms: C_1  and  C_2
REMARK    2  A    between atoms: C_6  and  N_8
REMARK    3  A    between atoms: C_9  and  C_38
REMARK    4  A    between atoms: C_11  and  C_14
REMARK    5  A    between atoms: C_12  and  C_13
REMARK    6  A    between atoms: N_15  and  N_16
REMARK    7  A    between atoms: C_17  and  C_19
REMARK    8  A    between atoms: C_19  and  N_20
REMARK    9  A    between atoms: N_20  and  C_21
REMARK   10  A    between atoms: N_20  and  S_29
REMARK   11  A    between atoms: C_23  and  C_28
REMARK   12  A    between atoms: C_25  and  C_27
REMARK   13  A    between atoms: S_29  and  C_32
REMARK                            x       y       z     vdW  Elec       q    Type
REMARK                         _______ _______ _______ _____ _____    ______ ____
ROOT
ATOM      1  N   UNL     1       4.602  -6.702   2.226  0.00  0.00    -0.206 N 
ATOM      2  C   UNL     1       5.645  -7.146   2.954  0.00  0.00    +0.251 C 
ATOM      3  O   UNL     1       6.705  -7.383   2.414  0.00  0.00    -0.272 OA
ATOM      4  H   UNL     1       3.755  -6.512   2.658  0.00  0.00    +0.177 HD
ENDROOT
BRANCH   1   6
ATOM      5  C   UNL     1       3.736  -6.087   0.143  0.00  0.00    +0.140 C 
ATOM      6  N   UNL     1       4.741  -6.515   0.844  0.00  0.00    -0.188 NA
BRANCH   5  10
ATOM      7  N   UNL     1       4.719  -5.808  -3.354  0.00  0.00    -0.317 N 
ATOM      8  C   UNL     1       3.424  -5.389  -3.462  0.00  0.00    +0.022 A 
ATOM      9  C   UNL     1       2.855  -5.417  -2.242  0.00  0.00    +0.032 A 
ATOM     10  C   UNL     1       3.883  -5.890  -1.311  0.00  0.00    +0.016 A 
ATOM     11  C   UNL     1       5.002  -6.118  -2.060  0.00  0.00    +0.030 A 
ATOM     12  C   UNL     1       6.324  -6.622  -1.541  0.00  0.00    +0.064 C 
ATOM     13  C   UNL     1       2.743  -4.966  -4.737  0.00  0.00    +0.064 C 
BRANCH   7  19
ATOM     14  C   UNL     1       7.370  -3.632  -6.879  0.00  0.00    +0.044 C 
ATOM     15  C   UNL     1       6.923  -4.871  -6.146  0.00  0.00    -0.048 A 
ATOM     16  C   UNL     1       7.405  -6.110  -6.528  0.00  0.00    +0.003 A 
ATOM     17  C   UNL     1       6.996  -7.249  -5.859  0.00  0.00    +0.002 A 
ATOM     18  C   UNL     1       6.107  -7.152  -4.806  0.00  0.00    +0.026 A 
ATOM     19  C   UNL     1       5.622  -5.910  -4.421  0.00  0.00    +0.047 A 
ATOM     20  C   UNL     1       6.038  -4.767  -5.091  0.00  0.00    +0.029 A 
ENDBRANCH   7  19
ENDBRANCH   5  10
ENDBRANCH   1   6
BRANCH   2  21
ATOM     21  C   UNL     1       5.495  -7.347   4.440  0.00  0.00    +0.228 C 
BRANCH  21  22
ATOM     22  N   UNL     1       6.761  -7.831   4.997  0.00  0.00    -0.194 N 
BRANCH  22  23
ATOM     23  C   UNL     1       7.759  -6.922   5.357  0.00  0.00    +0.052 A 
ATOM     24  C   UNL     1       8.951  -6.880   4.645  0.00  0.00    +0.028 A 
ATOM     25  C   UNL     1       9.935  -5.980   5.002  0.00  0.00    -0.048 A 
ATOM     26  C   UNL     1       9.736  -5.121   6.068  0.00  0.00    +0.006 A 
ATOM     27  C   UNL     1       8.550  -5.161   6.779  0.00  0.00    -0.048 A 
ATOM     28  C   UNL     1       7.559  -6.054   6.423  0.00  0.00    +0.028 A 
ATOM     29  C   UNL     1       8.336  -4.223   7.939  0.00  0.00    +0.044 C 
ATOM     30  C   UNL     1      11.229  -5.933   4.231  0.00  0.00    +0.044 C 
ENDBRANCH  22  23
BRANCH  22  31
ATOM     31  S   UNL     1       7.008  -9.456   5.202  0.00  0.00    +0.075 S 
ATOM     32  O   UNL     1       8.091  -9.590   6.112  0.00  0.00    -0.150 OA
ATOM     33  O   UNL     1       5.733 -10.033   5.444  0.00  0.00    -0.150 OA
BRANCH  31  34
ATOM     34  C   UNL     1       7.566 -10.096   3.658  0.00  0.00    +0.109 A 
ATOM     35  C   UNL     1       6.651 -10.427   2.676  0.00  0.00    +0.029 A 
ATOM     36  C   UNL     1       7.089 -10.930   1.465  0.00  0.00    +0.002 A 
ATOM     37  C   UNL     1       8.441 -11.100   1.235  0.00  0.00    +0.000 A 
ATOM     38  C   UNL     1       9.356 -10.768   2.217  0.00  0.00    +0.002 A 
ATOM     39  C   UNL     1       8.919 -10.261   3.426  0.00  0.00    +0.029 A 
ENDBRANCH  31  34
ENDBRANCH  22  31
ENDBRANCH  21  22
ENDBRANCH   2  21
TORSDOF 8
