REMARK  Name = ZINC03337205
REMARK  6 active torsions:
REMARK  status: ('A' for Active; 'I' for Inactive)
REMARK    1  A    between atoms: C_3  and  C_6
REMARK    2  A    between atoms: C_12  and  C_14
REMARK    3  A    between atoms: N_16  and  C_17
REMARK    4  A    between atoms: C_17  and  C_18
REMARK    5  A    between atoms: C_21  and  S_24
REMARK    6  A    between atoms: S_24  and  N_27
REMARK                            x       y       z     vdW  Elec       q    Type
REMARK                         _______ _______ _______ _____ _____    ______ ____
ROOT
ATOM      1  C   UNL     1      -0.222   1.232   2.431  0.00  0.00    +0.234 C 
ATOM      2  O   UNL     1       0.774   0.548   2.529  0.00  0.00    -0.274 OA
ATOM      3  N   UNL     1      -0.698   1.558   1.213  0.00  0.00    -0.310 N 
ATOM      4  H   UNL     1      -1.495   2.106   1.135  0.00  0.00    +0.149 HD
ENDROOT
BRANCH   1  11
ATOM      5  C   UNL     1      -0.171  -0.353   4.873  0.00  0.00    +0.254 C 
ATOM      6  O   UNL     1      -0.268  -1.016   3.858  0.00  0.00    -0.269 OA
ATOM      7  N   UNL     1      -0.471   0.961   4.851  0.00  0.00    -0.286 N 
ATOM      8  C   UNL     1      -0.399   1.876   6.000  0.00  0.00    +0.109 C 
ATOM      9  C   UNL     1      -0.807   3.277   5.496  0.00  0.00    +0.021 C 
ATOM     10  C   UNL     1      -0.541   3.188   3.970  0.00  0.00    +0.033 C 
ATOM     11  C   UNL     1      -0.927   1.718   3.671  0.00  0.00    +0.162 C 
BRANCH   5  14
ATOM     12  C   UNL     1       1.007  -2.628   7.633  0.00  0.00    +0.008 A 
ATOM     13  C   UNL     1       0.620  -2.303   6.357  0.00  0.00    +0.021 A 
ATOM     14  C   UNL     1       0.272  -0.982   6.120  0.00  0.00    +0.074 A 
ATOM     15  S   UNL     1       0.498  -0.249   7.731  0.00  0.00    -0.092 S 
ATOM     16  C   UNL     1       1.022  -1.662   8.589  0.00  0.00    +0.046 A 
ENDBRANCH   5  14
ENDBRANCH   1  11
BRANCH   3  17
ATOM     17  C   UNL     1      -0.013   1.086   0.008  0.00  0.00    +0.139 C 
BRANCH  17  18
ATOM     18  C   UNL     1      -0.742   1.585  -1.213  0.00  0.00    -0.030 A 
ATOM     19  C   UNL     1      -1.750   0.825  -1.775  0.00  0.00    +0.007 A 
ATOM     20  C   UNL     1      -2.421   1.285  -2.892  0.00  0.00    +0.029 A 
ATOM     21  C   UNL     1      -2.079   2.501  -3.453  0.00  0.00    +0.105 A 
ATOM     22  C   UNL     1      -1.067   3.259  -2.894  0.00  0.00    +0.029 A 
ATOM     23  C   UNL     1      -0.398   2.801  -1.774  0.00  0.00    +0.007 A 
BRANCH  21  24
ATOM     24  S   UNL     1      -2.932   3.085  -4.880  0.00  0.00    +0.056 S 
ATOM     25  O   UNL     1      -4.200   2.445  -4.885  0.00  0.00    -0.153 OA
ATOM     26  O   UNL     1      -2.791   4.499  -4.886  0.00  0.00    -0.153 OA
BRANCH  24  27
ATOM     27  N   UNL     1      -2.112   2.522  -6.204  0.00  0.00    -0.204 NA
ATOM     28  H   UNL     1      -1.318   1.978  -6.088  0.00  0.00    +0.144 HD
ATOM     29  H   UNL     1      -2.427   2.737  -7.096  0.00  0.00    +0.144 HD
ENDBRANCH  24  27
ENDBRANCH  21  24
ENDBRANCH  17  18
ENDBRANCH   3  17
TORSDOF 6
