REMARK  Name = ZINC39545544
REMARK  7 active torsions:
REMARK  status: ('A' for Active; 'I' for Inactive)
REMARK    1  A    between atoms: C_1  and  C_2
REMARK    2  A    between atoms: C_2  and  C_3
REMARK    3  A    between atoms: C_2  and  S_4
REMARK    4  A    between atoms: S_4  and  C_7
REMARK    5  A    between atoms: C_9  and  C_21
REMARK    6  A    between atoms: N_23  and  C_24
REMARK    7  A    between atoms: C_29  and  O_30
REMARK                            x       y       z     vdW  Elec       q    Type
REMARK                         _______ _______ _______ _____ _____    ______ ____
ROOT
ATOM      1  C   UNL     1      -2.325  -0.196  -1.609  0.00  0.00    +0.102 C 
ATOM      2  C   UNL     1      -2.537   1.249  -2.000  0.00  0.00    +0.088 C 
ATOM      3  C   UNL     1      -3.130   1.170  -3.420  0.00  0.00    +0.153 C 
ATOM      4  N   UNL     1      -3.228  -0.274  -3.687  0.00  0.00    -0.368 NA
ATOM      5  C   UNL     1      -2.712  -0.973  -2.587  0.00  0.00    +0.096 C 
ATOM      6  N   UNL     1      -2.631  -2.377  -2.609  0.00  0.00    -0.302 N 
ATOM      7  C   UNL     1      -2.321  -2.932  -3.863  0.00  0.00    +0.037 A 
ATOM      8  C   UNL     1      -2.107  -4.298  -3.979  0.00  0.00    +0.023 A 
ATOM      9  C   UNL     1      -1.811  -4.844  -5.213  0.00  0.00    +0.002 A 
ATOM     10  C   UNL     1      -1.730  -4.026  -6.326  0.00  0.00    +0.000 A 
ATOM     11  C   UNL     1      -1.940  -2.666  -6.209  0.00  0.00    +0.007 A 
ATOM     12  C   UNL     1      -2.233  -2.108  -4.975  0.00  0.00    -0.010 A 
ATOM     13  C   UNL     1      -2.441  -0.625  -4.875  0.00  0.00    +0.124 C 
ATOM     14  H   UNL     1      -2.778  -2.921  -1.819  0.00  0.00    +0.153 HD
ATOM     15  H   UNL     1      -4.193  -0.528  -3.830  0.00  0.00    +0.129 HD
ENDROOT
BRANCH   3  16
ATOM     16  C   UNL     1      -2.210   1.833  -4.414  0.00  0.00    +0.266 C 
ATOM     17  O   UNL     1      -1.024   1.922  -4.176  0.00  0.00    -0.271 OA
ATOM     18  N   UNL     1      -2.706   2.325  -5.566  0.00  0.00    -0.101 N 
ATOM     19  F   UNL     1      -3.977   2.229  -5.820  0.00  0.00    -0.101 F 
BRANCH  18  20
ATOM     20  C   UNL     1      -1.851   2.941  -6.490  0.00  0.00    +0.111 A 
ATOM     21  C   UNL     1      -1.164   2.175  -7.420  0.00  0.00    +0.030 A 
ATOM     22  C   UNL     1      -0.322   2.784  -8.331  0.00  0.00    +0.002 A 
ATOM     23  C   UNL     1      -0.162   4.158  -8.317  0.00  0.00    +0.004 A 
ATOM     24  C   UNL     1      -0.843   4.928  -7.393  0.00  0.00    +0.047 A 
ATOM     25  C   UNL     1      -1.694   4.325  -6.481  0.00  0.00    +0.141 A 
BRANCH  25  26
ATOM     26  O   UNL     1      -2.369   5.082  -5.575  0.00  0.00    -0.505 OA
ATOM     27  H   UNL     1      -1.892   5.221  -4.745  0.00  0.00    +0.292 HD
ENDBRANCH  25  26
ENDBRANCH  18  20
ENDBRANCH   3  16
BRANCH   1  28
ATOM     28  S   UNL     1      -1.653  -0.746  -0.076  0.00  0.00    -0.002 S 
ATOM     29  O   UNL     1      -1.653  -2.164  -0.168  0.00  0.00    -0.169 OA
ATOM     30  O   UNL     1      -2.425  -0.085   0.917  0.00  0.00    -0.169 OA
BRANCH  28  32
ATOM     31  C   UNL     1       0.764  -0.616   1.198  0.00  0.00    +0.032 C 
ATOM     32  C   UNL     1       0.050  -0.121  -0.061  0.00  0.00    +0.130 C 
ATOM     33  C   UNL     1       0.790  -0.630  -1.300  0.00  0.00    +0.032 C 
ENDBRANCH  28  32
ENDBRANCH   1  28
TORSDOF 5
