REMARK  Name = ZINC05275925
REMARK  6 active torsions:
REMARK  status: ('A' for Active; 'I' for Inactive)
REMARK    1  A    between atoms: C_1  and  C_2
REMARK    2  A    between atoms: C_13  and  C_15
REMARK    3  A    between atoms: C_19  and  O_29
REMARK    4  A    between atoms: C_20  and  C_27
REMARK    5  A    between atoms: C_23  and  O_26
REMARK    6  A    between atoms: C_27  and  O_28
REMARK                            x       y       z     vdW  Elec       q    Type
REMARK                         _______ _______ _______ _____ _____    ______ ____
ROOT
ATOM      1  C   UNL     1      -2.773  -0.190   1.438  0.00  0.00    +0.012 C 
ATOM      2  C   UNL     1      -2.441   1.295   1.231  0.00  0.00    -0.016 C 
ATOM      3  C   UNL     1      -0.939   1.555   1.251  0.00  0.00    +0.008 C 
ATOM      4  C   UNL     1      -0.246   1.029   0.006  0.00  0.00    +0.005 C 
ATOM      5  C   UNL     1      -0.832   1.559  -1.291  0.00  0.00    +0.004 C 
ATOM      6  C   UNL     1      -2.333   1.548  -1.321  0.00  0.00    -0.003 C 
ATOM      7  C   UNL     1      -3.075   1.853  -0.052  0.00  0.00    -0.001 C 
ATOM      8  C   UNL     1      -3.377   3.332   0.190  0.00  0.00    +0.005 C 
ATOM      9  C   UNL     1      -3.088   3.591   1.685  0.00  0.00    +0.016 C 
ATOM     10  C   UNL     1      -3.096   2.186   2.329  0.00  0.00    +0.108 C 
ATOM     11  C   UNL     1      -2.964   2.255  -2.515  0.00  0.00    +0.007 C 
ATOM     12  C   UNL     1      -2.252   3.550  -2.884  0.00  0.00    +0.036 C 
ATOM     13  C   UNL     1      -0.766   3.269  -3.093  0.00  0.00    +0.076 C 
ATOM     14  C   UNL     1      -0.138   2.827  -1.770  0.00  0.00    +0.026 C 
ATOM     15  C   UNL     1       1.345   2.510  -2.022  0.00  0.00    +0.015 C 
ATOM     16  C   UNL     1       2.070   3.723  -2.596  0.00  0.00    +0.032 C 
ATOM     17  C   UNL     1       1.412   4.176  -3.899  0.00  0.00    +0.117 C 
ATOM     18  C   UNL     1      -0.062   4.504  -3.646  0.00  0.00    +0.066 C 
ENDROOT
BRANCH  10  19
ATOM     19  C   UNL     1      -2.315   2.172   3.613  0.00  0.00    +0.360 C 
ATOM     20  O   UNL     1      -1.448   2.993   3.801  0.00  0.00    -0.246 OA
ATOM     21  O   UNL     1      -2.580   1.249   4.551  0.00  0.00    -0.246 OA
ENDBRANCH  10  19
BRANCH  17  22
ATOM     22  O   UNL     1       2.079   5.339  -4.393  0.00  0.00    -0.392 OA
ATOM     23  H   UNL     1       3.018   5.204  -4.580  0.00  0.00    +0.210 HD
ENDBRANCH  17  22
BRANCH  13  24
ATOM     24  O   UNL     1      -0.634   2.203  -4.046  0.00  0.00    -0.388 OA
ATOM     25  H   UNL     1      -1.008   2.403  -4.915  0.00  0.00    +0.210 HD
ENDBRANCH  13  24
BRANCH  14  26
ATOM     26  C   UNL     1      -0.221   3.943  -0.733  0.00  0.00    +0.165 C 
BRANCH  26  27
ATOM     27  O   UNL     1       0.448   5.104  -1.230  0.00  0.00    -0.394 OA
ATOM     28  H   UNL     1       0.435   5.856  -0.621  0.00  0.00    +0.209 HD
ENDBRANCH  26  27
ENDBRANCH  14  26
TORSDOF 5
