REMARK  Name = ZINC14070571
REMARK  8 active torsions:
REMARK  status: ('A' for Active; 'I' for Inactive)
REMARK    1  A    between atoms: C_1  and  C_2
REMARK    2  A    between atoms: N_10  and  C_11
REMARK    3  A    between atoms: C_11  and  C_13
REMARK    4  A    between atoms: C_17  and  S_19
REMARK    5  A    between atoms: S_19  and  C_22
REMARK    6  A    between atoms: C_22  and  C_23
REMARK    7  A    between atoms: C_22  and  C_24
REMARK    8  A    between atoms: N_25  and  C_26
REMARK                            x       y       z     vdW  Elec       q    Type
REMARK                         _______ _______ _______ _____ _____    ______ ____
ROOT
ATOM      1  C   UNL     1       0.108  -6.316   3.046  0.00  0.00    +0.269 C 
ATOM      2  O   UNL     1       0.100  -5.448   3.902  0.00  0.00    -0.268 OA
ENDROOT
BRANCH   1  12
ATOM      3  C   UNL     1      -0.018   1.503   0.010  0.00  0.00    +0.044 C 
ATOM      4  C   UNL     1       0.002  -0.004   0.002  0.00  0.00    -0.049 A 
ATOM      5  C   UNL     1       0.006  -0.697  -1.197  0.00  0.00    +0.005 A 
ATOM      6  C   UNL     1       0.025  -2.072  -1.225  0.00  0.00    +0.027 A 
ATOM      7  C   UNL     1       0.041  -2.810  -0.034  0.00  0.00    +0.057 A 
ATOM      8  C   UNL     1       0.037  -2.084   1.166  0.00  0.00    +0.039 A 
ATOM      9  C   UNL     1       0.023  -0.709   1.192  0.00  0.00    +0.020 A 
ATOM     10  S   UNL     1       0.061  -3.352   2.405  0.00  0.00    -0.052 S 
ATOM     11  C   UNL     1       0.075  -4.698   1.400  0.00  0.00    +0.166 A 
ATOM     12  N   UNL     1       0.095  -5.979   1.753  0.00  0.00    -0.152 NA
ATOM     13  N   UNL     1       0.061  -4.181   0.144  0.00  0.00    -0.324 N 
ATOM     14  C   UNL     1       0.068  -5.072  -1.019  0.00  0.00    +0.151 C 
ENDBRANCH   1  12
BRANCH   1  15
ATOM     15  C   UNL     1       0.130  -7.744   3.440  0.00  0.00    +0.041 A 
ATOM     16  C   UNL     1       0.145  -8.739   2.463  0.00  0.00    +0.013 A 
ATOM     17  C   UNL     1       0.166 -10.067   2.836  0.00  0.00    +0.003 A 
ATOM     18  C   UNL     1       0.172 -10.412   4.176  0.00  0.00    +0.027 A 
ATOM     19  C   UNL     1       0.158  -9.430   5.149  0.00  0.00    +0.089 A 
ATOM     20  C   UNL     1       0.143  -8.098   4.789  0.00  0.00    +0.040 A 
BRANCH  19  21
ATOM     21  S   UNL     1       0.165  -9.880   6.853  0.00  0.00    -0.001 S 
ATOM     22  O   UNL     1      -0.454  -8.788   7.519  0.00  0.00    -0.169 OA
ATOM     23  O   UNL     1      -0.418 -11.175   6.888  0.00  0.00    -0.169 OA
BRANCH  21  24
ATOM     24  C   UNL     1       1.920  -9.972   7.303  0.00  0.00    +0.130 C 
ATOM     25  C   UNL     1       2.052 -10.479   8.740  0.00  0.00    +0.032 C 
ATOM     26  C   UNL     1       2.640 -10.932   6.354  0.00  0.00    +0.032 C 
ENDBRANCH  21  24
ENDBRANCH  19  21
ENDBRANCH   1  15
TORSDOF 4
