REMARK  Name = ZINC12369301
REMARK  13 active torsions:
REMARK  status: ('A' for Active; 'I' for Inactive)
REMARK    1  A    between atoms: C_1  and  C_2
REMARK    2  A    between atoms: C_2  and  N_3
REMARK    3  A    between atoms: N_3  and  C_4
REMARK    4  A    between atoms: N_3  and  C_6
REMARK    5  A    between atoms: C_4  and  C_5
REMARK    6  A    between atoms: C_9  and  N_16
REMARK    7  A    between atoms: N_11  and  C_12
REMARK    8  A    between atoms: N_11  and  C_14
REMARK    9  A    between atoms: C_12  and  C_13
REMARK   10  A    between atoms: C_14  and  C_15
REMARK   11  A    between atoms: C_17  and  C_19
REMARK   12  A    between atoms: C_20  and  C_32
REMARK   13  A    between atoms: C_23  and  C_24
REMARK                            x       y       z     vdW  Elec       q    Type
REMARK                         _______ _______ _______ _____ _____    ______ ____
ROOT
ATOM      1  N   UNL     1      -3.025   4.545  -1.348  0.00  0.00    -0.279 N 
ATOM      2  C   UNL     1      -2.400   4.818  -0.185  0.00  0.00    +0.254 C 
ATOM      3  O   UNL     1      -3.051   5.088   0.806  0.00  0.00    -0.270 OA
ATOM      4  H   UNL     1      -2.509   4.274  -2.123  0.00  0.00    +0.155 HD
ENDROOT
BRANCH   1   8
ATOM      5  C   UNL     1      -7.130   4.878  -1.688  0.00  0.00    +0.100 A 
ATOM      6  C   UNL     1      -6.585   4.644  -0.432  0.00  0.00    +0.043 A 
ATOM      7  C   UNL     1      -5.210   4.530  -0.299  0.00  0.00    +0.030 A 
ATOM      8  C   UNL     1      -4.421   4.654  -1.436  0.00  0.00    +0.072 A 
ATOM      9  C   UNL     1      -5.035   4.894  -2.666  0.00  0.00    +0.122 A 
ATOM     10  N   UNL     1      -4.255   5.026  -3.812  0.00  0.00    -0.316 N 
ATOM     11  N   UNL     1      -6.385   5.004  -2.825  0.00  0.00    -0.330 N 
ATOM     12  H   UNL     1      -6.815   5.171  -3.743  0.00  0.00    +0.168 HD
BRANCH  10  13
ATOM     13  C   UNL     1      -5.073   4.889  -5.024  0.00  0.00    +0.103 C 
ATOM     14  C   UNL     1      -4.163   4.642  -6.229  0.00  0.00    +0.024 C 
ENDBRANCH  10  13
BRANCH  10  15
ATOM     15  C   UNL     1      -3.527   6.301  -3.808  0.00  0.00    +0.103 C 
ATOM     16  C   UNL     1      -4.518   7.454  -3.637  0.00  0.00    +0.024 C 
ENDBRANCH  10  15
BRANCH   5  17
ATOM     17  N   UNL     1      -8.510   4.994  -1.828  0.00  0.00    -0.317 N 
BRANCH  17  19
ATOM     18  C   UNL     1      -9.559   6.410  -0.132  0.00  0.00    +0.024 C 
ATOM     19  C   UNL     1      -9.370   4.980  -0.642  0.00  0.00    +0.103 C 
ENDBRANCH  17  19
BRANCH  17  20
ATOM     20  C   UNL     1      -9.102   5.130  -3.161  0.00  0.00    +0.103 C 
ATOM     21  C   UNL     1      -9.419   3.742  -3.722  0.00  0.00    +0.024 C 
ENDBRANCH  17  20
ENDBRANCH   5  17
ENDBRANCH   1   8
BRANCH   2  22
ATOM     22  C   UNL     1      -0.929   4.789  -0.115  0.00  0.00    +0.106 A 
ATOM     23  C   UNL     1      -0.045   5.830  -0.250  0.00  0.00    +0.147 A 
ATOM     24  O   UNL     1       1.177   5.312  -0.110  0.00  0.00    -0.359 OA
ATOM     25  N   UNL     1       1.173   4.122   0.093  0.00  0.00    -0.077 NA
ATOM     26  C   UNL     1      -0.040   3.631   0.117  0.00  0.00    +0.129 A 
ATOM     27  C   UNL     1      -0.388   7.275  -0.506  0.00  0.00    +0.090 C 
BRANCH  26  28
ATOM     28  C   UNL     1      -0.437   2.220   0.337  0.00  0.00    +0.041 A 
ATOM     29  C   UNL     1       0.054   1.216  -0.499  0.00  0.00    +0.052 A 
ATOM     30  C   UNL     1      -0.319  -0.097  -0.289  0.00  0.00    +0.021 A 
ATOM     31  C   UNL     1      -1.177  -0.418   0.747  0.00  0.00    +0.003 A 
ATOM     32  C   UNL     1      -1.672   0.573   1.575  0.00  0.00    +0.021 A 
ATOM     33  C   UNL     1      -1.302   1.889   1.379  0.00  0.00    +0.052 A 
ATOM     34 CL   UNL     1      -1.918   3.130   2.425  0.00  0.00    -0.083 Cl
ATOM     35 CL   UNL     1       1.132   1.617  -1.800  0.00  0.00    -0.083 Cl
ENDBRANCH  26  28
ENDBRANCH   2  22
TORSDOF 8
