REMARK  Name = ZINC30977756
REMARK  14 active torsions:
REMARK  status: ('A' for Active; 'I' for Inactive)
REMARK    1  A    between atoms: C_1  and  C_2
REMARK    2  A    between atoms: C_2  and  C_3
REMARK    3  A    between atoms: C_3  and  C_5
REMARK    4  A    between atoms: C_3  and  N_13
REMARK    5  A    between atoms: C_8  and  O_11
REMARK    6  A    between atoms: O_11  and  C_12
REMARK    7  A    between atoms: C_14  and  C_16
REMARK    8  A    between atoms: N_19  and  C_22
REMARK    9  A    between atoms: C_22  and  C_23
REMARK   10  A    between atoms: C_25  and  C_28
REMARK   11  A    between atoms: C_31  and  C_34
REMARK   12  A    between atoms: C_34  and  C_35
REMARK   13  A    between atoms: C_34  and  C_36
REMARK   14  A    between atoms: C_34  and  C_37
REMARK                            x       y       z     vdW  Elec       q    Type
REMARK                         _______ _______ _______ _____ _____    ______ ____
ROOT
ATOM      1  C   UNL     1       0.994  -2.175   0.650  0.00  0.00    +0.071 C 
ATOM      2  C   UNL     1      -0.297  -2.708   1.277  0.00  0.00    -0.006 C 
ATOM      3  C   UNL     1      -0.244  -4.237   1.321  0.00  0.00    -0.077 C 
ATOM      4  N   UNL     1       0.917  -4.665   2.111  0.00  0.00    +0.386 N 
ATOM      5  C   UNL     1       2.172  -4.205   1.503  0.00  0.00    -0.077 C 
ATOM      6  C   UNL     1       2.191  -2.675   1.464  0.00  0.00    -0.006 C 
ATOM      7  H   UNL     1       0.836  -4.200   3.105  0.00  0.00    -0.081 HD
ENDROOT
BRANCH   1   9
ATOM      8  N   UNL     1       0.002  -0.004   0.002  0.00  0.00    -0.308 N 
ATOM      9  C   UNL     1       0.974  -0.668   0.659  0.00  0.00    +0.216 C 
ATOM     10  O   UNL     1       1.831  -0.054   1.256  0.00  0.00    -0.276 OA
ATOM     11  H   UNL     1      -0.776  -0.562  -0.540  0.00  0.00    +0.149 HD
BRANCH   8  12
ATOM     12  C   UNL     1      -0.018   1.461   0.010  0.00  0.00    +0.103 C 
BRANCH  12  13
ATOM     13  C   UNL     1      -0.747   1.960  -1.211  0.00  0.00    -0.027 A 
ATOM     14  C   UNL     1      -1.884   1.308  -1.650  0.00  0.00    +0.009 A 
ATOM     15  C   UNL     1      -2.557   1.767  -2.766  0.00  0.00    +0.046 A 
ATOM     16  C   UNL     1      -2.084   2.876  -3.452  0.00  0.00    +0.120 A 
ATOM     17  C   UNL     1      -0.940   3.525  -3.013  0.00  0.00    +0.046 A 
ATOM     18  C   UNL     1      -0.274   3.066  -1.893  0.00  0.00    +0.009 A 
BRANCH  16  19
ATOM     19  O   UNL     1      -2.741   3.326  -4.554  0.00  0.00    -0.495 OA
ATOM     20  C   UNL     1      -3.913   2.609  -4.949  0.00  0.00    +0.277 C 
ENDBRANCH  16  19
ENDBRANCH  12  13
BRANCH  12  22
ATOM     21  C   UNL     1       0.073   1.554   2.505  0.00  0.00    +0.006 C 
ATOM     22  C   UNL     1      -0.734   1.954   1.269  0.00  0.00    +0.024 C 
ENDBRANCH  12  22
ENDBRANCH   8  12
ENDBRANCH   1   9
BRANCH   4  23
ATOM     23  C   UNL     1       0.922  -6.123   2.292  0.00  0.00    +0.022 C 
BRANCH  23  24
ATOM     24  C   UNL     1      -0.260  -6.529   3.133  0.00  0.00    +0.211 A 
ATOM     25  N   UNL     1      -1.452  -6.849   2.696  0.00  0.00    -0.193 NA
ATOM     26  C   UNL     1      -2.178  -7.141   3.799  0.00  0.00    +0.202 A 
ATOM     27  N   UNL     1      -1.391  -6.982   4.832  0.00  0.00    -0.056 NA
ATOM     28  O   UNL     1      -0.287  -6.637   4.465  0.00  0.00    -0.340 OA
BRANCH  26  29
ATOM     29  C   UNL     1      -3.600  -7.561   3.833  0.00  0.00    +0.022 A 
ATOM     30  C   UNL     1      -4.322  -7.683   2.647  0.00  0.00    +0.012 A 
ATOM     31  C   UNL     1      -5.643  -8.080   2.683  0.00  0.00    +0.005 A 
ATOM     32  C   UNL     1      -6.255  -8.346   3.895  0.00  0.00    -0.042 A 
ATOM     33  C   UNL     1      -5.545  -8.221   5.076  0.00  0.00    +0.005 A 
ATOM     34  C   UNL     1      -4.221  -7.830   5.051  0.00  0.00    +0.012 A 
BRANCH  32  35
ATOM     35  C   UNL     1      -7.700  -8.772   3.929  0.00  0.00    -0.013 C 
ATOM     36  C   UNL     1      -8.510  -7.763   4.745  0.00  0.00    +0.015 C 
ATOM     37  C   UNL     1      -8.248  -8.831   2.502  0.00  0.00    +0.015 C 
ATOM     38  C   UNL     1      -7.809 -10.155   4.575  0.00  0.00    +0.015 C 
ENDBRANCH  32  35
ENDBRANCH  26  29
ENDBRANCH  23  24
ENDBRANCH   4  23
TORSDOF 9
