REMARK  Name = ZINC03995756
REMARK  9 active torsions:
REMARK  status: ('A' for Active; 'I' for Inactive)
REMARK    1  A    between atoms: C_1  and  O_2
REMARK    2  A    between atoms: O_2  and  C_3
REMARK    3  A    between atoms: C_3  and  C_5
REMARK    4  A    between atoms: C_6  and  C_7
REMARK    5  A    between atoms: N_9  and  C_10
REMARK    6  A    between atoms: C_14  and  O_36
REMARK    7  A    between atoms: C_21  and  O_35
REMARK    8  A    between atoms: N_30  and  C_31
REMARK    9  A    between atoms: C_31  and  C_32
REMARK                            x       y       z     vdW  Elec       q    Type
REMARK                         _______ _______ _______ _____ _____    ______ ____
ROOT
ATOM      1  C   UNL     1      -3.699  -6.281  -0.269  0.00  0.00    +0.115 C 
ATOM      2  C   UNL     1      -3.696  -6.715  -1.717  0.00  0.00    +0.029 C 
ATOM      3  C   UNL     1      -3.939  -8.216  -1.857  0.00  0.00    +0.036 C 
ATOM      4  C   UNL     1      -5.332  -8.519  -1.312  0.00  0.00    +0.068 C 
ATOM      5  C   UNL     1      -5.652 -10.010  -1.406  0.00  0.00    -0.031 C 
ATOM      6  C   UNL     1      -4.689 -10.915  -0.658  0.00  0.00    +0.023 C 
ATOM      7  C   UNL     1      -4.134 -10.296   0.584  0.00  0.00    -0.041 A 
ATOM      8  C   UNL     1      -3.276 -10.924   1.470  0.00  0.00    +0.007 A 
ATOM      9  C   UNL     1      -2.786 -10.238   2.569  0.00  0.00    +0.049 A 
ATOM     10  C   UNL     1      -3.098  -8.908   2.845  0.00  0.00    +0.159 A 
ATOM     11  C   UNL     1      -3.974  -8.267   1.963  0.00  0.00    +0.166 A 
ATOM     12  C   UNL     1      -4.479  -9.004   0.901  0.00  0.00    +0.013 A 
ATOM     13  C   UNL     1      -5.413  -8.115   0.148  0.00  0.00    +0.064 C 
ATOM     14  C   UNL     1      -4.891  -6.746   0.544  0.00  0.00    +0.207 C 
ATOM     15  O   UNL     1      -4.439  -6.999   1.909  0.00  0.00    -0.482 OA
ATOM     16  C   UNL     1      -6.828  -8.368   0.671  0.00  0.00    -0.001 C 
ATOM     17  C   UNL     1      -7.143  -9.859   0.491  0.00  0.00    -0.077 C 
ATOM     18  N   UNL     1      -7.020 -10.236  -0.920  0.00  0.00    +0.384 N 
ATOM     19  H   UNL     1      -7.663  -9.684  -1.468  0.00  0.00    -0.081 HD
ENDROOT
BRANCH   1  22
ATOM     20  C   UNL     1      -2.480  -4.173  -0.355  0.00  0.00    +0.237 C 
ATOM     21  O   UNL     1      -1.454  -4.806  -0.505  0.00  0.00    -0.271 OA
ATOM     22  N   UNL     1      -3.657  -4.817  -0.228  0.00  0.00    -0.305 N 
ATOM     23  H   UNL     1      -4.476  -4.312  -0.108  0.00  0.00    +0.149 HD
BRANCH  20  25
ATOM     24  C   UNL     1      -1.266  -2.055  -0.440  0.00  0.00    +0.096 C 
ATOM     25  C   UNL     1      -2.438  -2.697  -0.313  0.00  0.00    +0.074 C 
BRANCH  24  26
ATOM     26  C   UNL     1      -1.224  -0.581  -0.398  0.00  0.00    +0.332 C 
ATOM     27  O   UNL     1      -2.250   0.052  -0.249  0.00  0.00    -0.246 OA
BRANCH  26  29
ATOM     28  C   UNL     1      -0.081   1.491  -0.476  0.00  0.00    +0.280 C 
ATOM     29  O   UNL     1      -0.047   0.063  -0.526  0.00  0.00    -0.465 OA
ENDBRANCH  26  29
ENDBRANCH  24  26
ENDBRANCH  20  25
ENDBRANCH   1  22
BRANCH  10  30
ATOM     30  O   UNL     1      -2.576  -8.264   3.922  0.00  0.00    -0.503 OA
ATOM     31  H   UNL     1      -1.738  -7.815   3.744  0.00  0.00    +0.292 HD
ENDBRANCH  10  30
BRANCH   4  32
ATOM     32  O   UNL     1      -6.303  -7.786  -2.061  0.00  0.00    -0.389 OA
ATOM     33  H   UNL     1      -6.313  -7.997  -3.005  0.00  0.00    +0.210 HD
ENDBRANCH   4  32
BRANCH  18  34
ATOM     34  C   UNL     1      -7.357 -11.658  -1.071  0.00  0.00    -0.075 C 
BRANCH  34  35
ATOM     35  C   UNL     1      -8.832 -11.872  -0.727  0.00  0.00    -0.028 C 
ATOM     36  C   UNL     1      -9.156 -12.754   0.481  0.00  0.00    +0.002 C 
ATOM     37  C   UNL     1      -9.410 -13.273  -0.936  0.00  0.00    +0.002 C 
ENDBRANCH  34  35
ENDBRANCH  18  34
TORSDOF 8
