REMARK  Name = ZINC01362118
REMARK  13 active torsions:
REMARK  status: ('A' for Active; 'I' for Inactive)
REMARK    1  A    between atoms: C_1  and  C_2
REMARK    2  A    between atoms: C_12  and  C_14
REMARK    3  A    between atoms: C_14  and  C_16
REMARK    4  A    between atoms: C_14  and  N_25
REMARK    5  A    between atoms: N_20  and  C_21
REMARK    6  A    between atoms: C_21  and  C_22
REMARK    7  A    between atoms: C_21  and  C_23
REMARK    8  A    between atoms: C_21  and  C_24
REMARK    9  A    between atoms: N_25  and  C_26
REMARK   10  A    between atoms: N_25  and  C_35
REMARK   11  A    between atoms: C_26  and  C_27
REMARK   12  A    between atoms: C_27  and  C_28
REMARK   13  A    between atoms: C_35  and  C_36
REMARK                            x       y       z     vdW  Elec       q    Type
REMARK                         _______ _______ _______ _____ _____    ______ ____
ROOT
ATOM      1  C   UNL     1      -0.461  -1.921   4.451  0.00  0.00    +0.163 C 
ENDROOT
BRANCH   1  13
ATOM      2  C   UNL     1      -1.440   2.365  -0.436  0.00  0.00    +0.046 C 
ATOM      3  C   UNL     1      -1.673   0.878  -0.354  0.00  0.00    -0.026 A 
ATOM      4  C   UNL     1      -2.184   0.197  -1.438  0.00  0.00    +0.005 A 
ATOM      5  C   UNL     1      -2.398  -1.173  -1.378  0.00  0.00    +0.001 A 
ATOM      6  C   UNL     1      -2.116  -1.871  -0.237  0.00  0.00    +0.010 A 
ATOM      7  C   UNL     1      -1.603  -1.200   0.877  0.00  0.00    -0.001 A 
ATOM      8  C   UNL     1      -1.378   0.189   0.818  0.00  0.00    +0.052 A 
ATOM      9  N   UNL     1      -0.872   0.845   1.919  0.00  0.00    -0.322 N 
ATOM     10  H   UNL     1      -0.694   1.930   1.879  0.00  0.00    +0.169 HD
ATOM     11  C   UNL     1      -0.588   0.178   3.051  0.00  0.00    +0.254 A 
ATOM     12  O   UNL     1      -0.141   0.791   4.006  0.00  0.00    -0.268 OA
ATOM     13  C   UNL     1      -0.794  -1.214   3.163  0.00  0.00    +0.042 A 
ATOM     14  C   UNL     1      -1.290  -1.917   2.115  0.00  0.00    +0.021 A 
ENDBRANCH   1  13
BRANCH   1  15
ATOM     15  C   UNL     1       1.024  -1.847   4.696  0.00  0.00    +0.174 A 
ATOM     16  N   UNL     1       1.701  -0.795   5.087  0.00  0.00    -0.111 NA
ATOM     17  N   UNL     1       2.941  -1.133   5.182  0.00  0.00    -0.023 NA
ATOM     18  N   UNL     1       3.072  -2.373   4.863  0.00  0.00    -0.043 NA
ATOM     19  N   UNL     1       1.911  -2.850   4.563  0.00  0.00    -0.222 N 
BRANCH  19  20
ATOM     20  C   UNL     1       1.615  -4.224   4.150  0.00  0.00    +0.059 C 
ATOM     21  C   UNL     1       0.895  -4.207   2.800  0.00  0.00    +0.036 C 
ATOM     22  C   UNL     1       2.922  -5.010   4.021  0.00  0.00    +0.036 C 
ATOM     23  C   UNL     1       0.721  -4.890   5.197  0.00  0.00    +0.036 C 
ENDBRANCH  19  20
ENDBRANCH   1  15
BRANCH   1  24
ATOM     24  N   UNL     1      -1.174  -1.275   5.562  0.00  0.00    -0.281 NA
BRANCH  24  25
ATOM     25  C   UNL     1      -1.083  -2.083   6.786  0.00  0.00    +0.090 C 
BRANCH  25  26
ATOM     26  C   UNL     1       0.288  -1.875   7.433  0.00  0.00    +0.050 C 
BRANCH  26  27
ATOM     27  C   UNL     1       0.322  -2.569   8.771  0.00  0.00    -0.046 A 
ATOM     28  C   UNL     1      -0.058  -1.886   9.912  0.00  0.00    +0.006 A 
ATOM     29  C   UNL     1      -0.032  -2.522  11.139  0.00  0.00    +0.038 A 
ATOM     30  C   UNL     1       0.384  -3.840  11.226  0.00  0.00    +0.123 A 
ATOM     31  C   UNL     1       0.768  -4.521  10.083  0.00  0.00    +0.038 A 
ATOM     32  C   UNL     1       0.737  -3.884   8.857  0.00  0.00    +0.006 A 
ATOM     33  F   UNL     1       0.414  -4.462  12.425  0.00  0.00    -0.205 F 
ENDBRANCH  26  27
ENDBRANCH  25  26
ENDBRANCH  24  25
BRANCH  24  34
ATOM     34  C   UNL     1      -2.575  -1.012   5.207  0.00  0.00    +0.159 C 
BRANCH  34  35
ATOM     35  C   UNL     1      -3.166  -0.034   6.189  0.00  0.00    +0.119 A 
ATOM     36  C   UNL     1      -3.233   1.300   6.026  0.00  0.00    +0.046 A 
ATOM     37  C   UNL     1      -3.860   1.823   7.181  0.00  0.00    +0.041 A 
ATOM     38  C   UNL     1      -4.139   0.777   7.979  0.00  0.00    +0.195 A 
ATOM     39  O   UNL     1      -3.722  -0.345   7.371  0.00  0.00    -0.467 OA
ENDBRANCH  34  35
ENDBRANCH  24  34
ENDBRANCH   1  24
TORSDOF 9
