REMARK  Name = ZINC60238982
REMARK  10 active torsions:
REMARK  status: ('A' for Active; 'I' for Inactive)
REMARK    1  A    between atoms: C_1  and  C_2
REMARK    2  A    between atoms: C_5  and  C_8
REMARK    3  A    between atoms: C_8  and  C_10
REMARK    4  A    between atoms: C_8  and  N_31
REMARK    5  A    between atoms: C_10  and  N_11
REMARK    6  A    between atoms: C_12  and  C_14
REMARK    7  A    between atoms: C_14  and  C_15
REMARK    8  A    between atoms: C_15  and  C_16
REMARK    9  A    between atoms: C_19  and  S_22
REMARK   10  A    between atoms: S_22  and  N_25
REMARK                            x       y       z     vdW  Elec       q    Type
REMARK                         _______ _______ _______ _____ _____    ______ ____
ROOT
ATOM      1  N   UNL     1       1.463  -6.250   0.252  0.00  0.00    -0.317 N 
ATOM      2  C   UNL     1       2.619  -6.918   0.429  0.00  0.00    +0.213 C 
ATOM      3  O   UNL     1       3.675  -6.322   0.399  0.00  0.00    -0.276 OA
ATOM      4  H   UNL     1       0.618  -6.726   0.276  0.00  0.00    +0.149 HD
ENDROOT
BRANCH   1   5
ATOM      5  C   UNL     1       1.481  -4.803   0.025  0.00  0.00    +0.093 C 
BRANCH   5   6
ATOM      6  C   UNL     1       0.061  -4.315  -0.273  0.00  0.00    -0.020 C 
BRANCH   6  11
ATOM      7  C   UNL     1      -1.752  -6.590  -5.266  0.00  0.00    +0.044 C 
ATOM      8  C   UNL     1      -1.279  -5.997  -3.964  0.00  0.00    -0.050 A 
ATOM      9  C   UNL     1      -1.683  -6.553  -2.764  0.00  0.00    +0.003 A 
ATOM     10  C   UNL     1      -1.249  -6.008  -1.570  0.00  0.00    +0.002 A 
ATOM     11  C   UNL     1      -0.411  -4.909  -1.575  0.00  0.00    -0.059 A 
ATOM     12  C   UNL     1      -0.006  -4.354  -2.775  0.00  0.00    +0.002 A 
ATOM     13  C   UNL     1      -0.437  -4.901  -3.969  0.00  0.00    +0.003 A 
ENDBRANCH   6  11
BRANCH   6  14
ATOM     14  N   UNL     1       0.058  -2.850  -0.373  0.00  0.00    +0.385 N 
ATOM     15  C   UNL     1      -1.317  -2.359  -0.649  0.00  0.00    -0.078 C 
ATOM     16  C   UNL     1      -1.269  -0.885  -0.172  0.00  0.00    -0.020 C 
ATOM     17  C   UNL     1      -0.373  -0.957   1.085  0.00  0.00    -0.020 C 
ATOM     18  C   UNL     1       0.449  -2.249   0.920  0.00  0.00    -0.078 C 
ATOM     19  H   UNL     1       0.688  -2.549  -1.102  0.00  0.00    -0.081 HD
ENDBRANCH   6  14
ENDBRANCH   5   6
ENDBRANCH   1   5
BRANCH   2  20
ATOM     20  C   UNL     1       2.601  -8.407   0.663  0.00  0.00    +0.100 C 
BRANCH  20  21
ATOM     21  C   UNL     1       4.034  -8.915   0.831  0.00  0.00    +0.044 C 
BRANCH  21  22
ATOM     22  C   UNL     1       4.016 -10.403   1.066  0.00  0.00    -0.047 A 
ATOM     23  C   UNL     1       3.929 -10.899   2.353  0.00  0.00    +0.005 A 
ATOM     24  C   UNL     1       3.912 -12.265   2.568  0.00  0.00    +0.029 A 
ATOM     25  C   UNL     1       3.981 -13.134   1.496  0.00  0.00    +0.105 A 
ATOM     26  C   UNL     1       4.066 -12.638   0.209  0.00  0.00    +0.029 A 
ATOM     27  C   UNL     1       4.079 -11.273  -0.007  0.00  0.00    +0.005 A 
BRANCH  25  28
ATOM     28  S   UNL     1       3.960 -14.875   1.770  0.00  0.00    +0.061 S 
ATOM     29  O   UNL     1       4.585 -15.471   0.642  0.00  0.00    -0.153 OA
ATOM     30  O   UNL     1       4.425 -15.082   3.097  0.00  0.00    -0.153 OA
BRANCH  28  31
ATOM     31  N   UNL     1       2.376 -15.356   1.743  0.00  0.00    -0.177 NA
ATOM     32  C   UNL     1       1.577 -15.370   2.976  0.00  0.00    +0.109 C 
ATOM     33  C   UNL     1       0.298 -14.559   2.744  0.00  0.00    +0.017 C 
ATOM     34  C   UNL     1      -0.432 -15.106   1.516  0.00  0.00    +0.003 C 
ATOM     35  C   UNL     1       0.462 -14.961   0.282  0.00  0.00    +0.017 C 
ATOM     36  C   UNL     1       1.741 -15.771   0.485  0.00  0.00    +0.109 C 
ENDBRANCH  28  31
ENDBRANCH  25  28
ENDBRANCH  21  22
ENDBRANCH  20  21
ENDBRANCH   2  20
TORSDOF 9
