REMARK  Name = ZINC33521275
REMARK  5 active torsions:
REMARK  status: ('A' for Active; 'I' for Inactive)
REMARK    1  A    between atoms: C_1  and  C_2
REMARK    2  A    between atoms: C_2  and  C_3
REMARK    3  A    between atoms: C_6  and  C_9
REMARK    4  A    between atoms: C_12  and  C_17
REMARK    5  A    between atoms: C_20  and  N_23
REMARK                            x       y       z     vdW  Elec       q    Type
REMARK                         _______ _______ _______ _____ _____    ______ ____
ROOT
ATOM      1  C   UNL     1      -1.044   1.888   0.706  0.00  0.00    +0.090 A 
ATOM      2  C   UNL     1       0.046   1.097   0.554  0.00  0.00    +0.122 A 
ATOM      3  N   UNL     1       1.125   1.922   0.258  0.00  0.00    -0.293 N 
ATOM      4  C   UNL     1       2.477   1.790  -0.012  0.00  0.00    +0.062 A 
ATOM      5  C   UNL     1       3.228   2.879  -0.263  0.00  0.00    +0.075 A 
ATOM      6  S   UNL     1       2.029   4.196  -0.127  0.00  0.00    -0.057 S 
ATOM      7  C   UNL     1       0.612   3.192   0.255  0.00  0.00    +0.178 A 
ATOM      8  N   UNL     1      -0.661   3.168   0.522  0.00  0.00    -0.221 NA
ENDROOT
BRANCH   1  12
ATOM      9  C   UNL     1      -4.981   0.564   1.616  0.00  0.00    -0.048 A 
ATOM     10  C   UNL     1      -4.729   1.914   1.449  0.00  0.00    +0.004 A 
ATOM     11  C   UNL     1      -3.453   2.349   1.154  0.00  0.00    +0.010 A 
ATOM     12  C   UNL     1      -2.417   1.426   1.024  0.00  0.00    +0.002 A 
ATOM     13  C   UNL     1      -2.678   0.067   1.188  0.00  0.00    +0.010 A 
ATOM     14  C   UNL     1      -3.957  -0.357   1.488  0.00  0.00    +0.004 A 
BRANCH   9  16
ATOM     15  C   UNL     1      -7.133  -0.185   0.637  0.00  0.00    +0.009 C 
ATOM     16  C   UNL     1      -6.376   0.095   1.937  0.00  0.00    +0.032 C 
ENDBRANCH   9  16
ENDBRANCH   1  12
BRANCH   4  17
ATOM     17  C   UNL     1       3.098   0.448  -0.026  0.00  0.00    -0.001 A 
ATOM     18  C   UNL     1       2.503  -0.605   0.672  0.00  0.00    +0.012 A 
ATOM     19  C   UNL     1       3.081  -1.856   0.653  0.00  0.00    +0.023 A 
ATOM     20  C   UNL     1       4.261  -2.067  -0.051  0.00  0.00    +0.025 A 
ATOM     21  C   UNL     1       4.858  -1.020  -0.742  0.00  0.00    +0.023 A 
ATOM     22  C   UNL     1       4.282   0.233  -0.731  0.00  0.00    +0.012 A 
BRANCH  20  23
ATOM     23  N   UNL     1       4.847  -3.335  -0.064  0.00  0.00    -0.358 N 
ATOM     24  H   UNL     1       5.781  -3.504  -0.621  0.00  0.00    +0.142 HD
ATOM     25  H   UNL     1       4.375  -4.165   0.483  0.00  0.00    +0.142 HD
ENDBRANCH  20  23
ENDBRANCH   4  17
TORSDOF 4
