REMARK  Name = ZINC22057182
REMARK  12 active torsions:
REMARK  status: ('A' for Active; 'I' for Inactive)
REMARK    1  A    between atoms: C_1  and  N_2
REMARK    2  A    between atoms: N_2  and  C_3
REMARK    3  A    between atoms: C_3  and  C_4
REMARK    4  A    between atoms: C_4  and  C_6
REMARK    5  A    between atoms: C_4  and  C_30
REMARK    6  A    between atoms: C_9  and  O_12
REMARK    7  A    between atoms: O_12  and  C_13
REMARK    8  A    between atoms: C_15  and  O_29
REMARK    9  A    between atoms: C_17  and  O_28
REMARK   10  A    between atoms: C_19  and  O_27
REMARK   11  A    between atoms: C_21  and  C_24
REMARK   12  A    between atoms: C_30  and  O_36
REMARK                            x       y       z     vdW  Elec       q    Type
REMARK                         _______ _______ _______ _____ _____    ______ ____
ROOT
ATOM      1  C   UNL     1       2.933   0.262   6.022  0.00  0.00    -0.043 A 
ATOM      2  C   UNL     1       1.792   1.039   5.957  0.00  0.00    +0.007 A 
ATOM      3  C   UNL     1       1.347   1.515   4.739  0.00  0.00    +0.046 A 
ATOM      4  C   UNL     1       2.046   1.211   3.580  0.00  0.00    +0.124 A 
ATOM      5  C   UNL     1       3.188   0.426   3.646  0.00  0.00    +0.046 A 
ATOM      6  C   UNL     1       3.632  -0.042   4.868  0.00  0.00    +0.007 A 
ENDROOT
BRANCH   1   7
ATOM      7  C   UNL     1       3.417  -0.256   7.352  0.00  0.00    +0.034 C 
BRANCH   7   8
ATOM      8  C   UNL     1       4.827   0.273   7.623  0.00  0.00    +0.071 C 
ATOM      9  C   UNL     1       5.256  -0.120   9.038  0.00  0.00    +0.035 C 
ATOM     10  C   UNL     1       6.666   0.408   9.309  0.00  0.00    +0.003 C 
ATOM     11  C   UNL     1       6.673   1.933   9.179  0.00  0.00    +0.000 C 
ATOM     12  C   UNL     1       6.244   2.326   7.764  0.00  0.00    +0.003 C 
ATOM     13  C   UNL     1       4.834   1.797   7.493  0.00  0.00    +0.035 C 
BRANCH   8  14
ATOM     14  O   UNL     1       5.737  -0.290   6.675  0.00  0.00    -0.388 OA
ATOM     15  H   UNL     1       6.804  -0.025   6.713  0.00  0.00    +0.210 HD
ENDBRANCH   8  14
ENDBRANCH   7   8
BRANCH   7  16
ATOM     16  C   UNL     1       3.442  -1.785   7.326  0.00  0.00    -0.072 C 
BRANCH  16  18
ATOM     17  C   UNL     1       3.781  -3.762   8.683  0.00  0.00    -0.100 C 
ATOM     18  N   UNL     1       3.749  -2.293   8.669  0.00  0.00    +0.378 N 
ATOM     19  H   UNL     1       2.975  -1.937   9.366  0.00  0.00    -0.086 HD
ATOM     20  H   UNL     1       4.729  -1.902   8.979  0.00  0.00    -0.086 HD
ENDBRANCH  16  18
ENDBRANCH   7  16
ENDBRANCH   1   7
BRANCH   4  21
ATOM     21  O   UNL     1       1.610   1.678   2.380  0.00  0.00    -0.461 OA
BRANCH  21  22
ATOM     22  C   UNL     1       2.380   1.326   1.228  0.00  0.00    +0.340 C 
ATOM     23  C   UNL     1       1.673   1.831  -0.032  0.00  0.00    +0.214 C 
ATOM     24  C   UNL     1       1.585   3.360   0.018  0.00  0.00    +0.180 C 
ATOM     25  C   UNL     1       2.996   3.937   0.163  0.00  0.00    +0.186 C 
ATOM     26  C   UNL     1       3.651   3.352   1.417  0.00  0.00    +0.266 C 
ATOM     27  O   UNL     1       3.673   1.926   1.320  0.00  0.00    -0.322 OA
BRANCH  26  28
ATOM     28  C   UNL     1       5.062   3.869   1.535  0.00  0.00    +0.387 C 
ATOM     29  O   UNL     1       5.995   3.107   1.447  0.00  0.00    -0.243 OA
ATOM     30  O   UNL     1       5.281   5.178   1.739  0.00  0.00    -0.243 OA
ENDBRANCH  26  28
BRANCH  25  31
ATOM     31  O   UNL     1       3.773   3.594  -0.986  0.00  0.00    -0.386 OA
ATOM     32  H   UNL     1       4.820   3.924  -1.061  0.00  0.00    +0.210 HD
ENDBRANCH  25  31
BRANCH  24  33
ATOM     33  O   UNL     1       0.788   3.757   1.135  0.00  0.00    -0.386 OA
ATOM     34  H   UNL     1       0.612   4.824   1.334  0.00  0.00    +0.210 HD
ENDBRANCH  24  33
BRANCH  23  35
ATOM     35  O   UNL     1       0.356   1.279  -0.095  0.00  0.00    -0.383 OA
ATOM     36  H   UNL     1      -0.306   1.530  -0.936  0.00  0.00    +0.210 HD
ENDBRANCH  23  35
ENDBRANCH  21  22
ENDBRANCH   4  21
TORSDOF 11
