REMARK  Name = ZINC13145331
REMARK  7 active torsions:
REMARK  status: ('A' for Active; 'I' for Inactive)
REMARK    1  A    between atoms: C_1  and  C_2
REMARK    2  A    between atoms: C_2  and  N_3
REMARK    3  A    between atoms: N_5  and  N_19
REMARK    4  A    between atoms: C_6  and  C_9
REMARK    5  A    between atoms: C_12  and  O_18
REMARK    6  A    between atoms: C_13  and  C_15
REMARK    7  A    between atoms: C_20  and  C_21
REMARK                            x       y       z     vdW  Elec       q    Type
REMARK                         _______ _______ _______ _____ _____    ______ ____
ROOT
ATOM      1  N   UNL     1       6.379  -0.800  -0.330  0.00  0.00    -0.260 NA
ATOM      2  C   UNL     1       6.115  -2.083  -0.303  0.00  0.00    +0.190 A 
ATOM      3  N   UNL     1       4.891  -2.722  -0.301  0.00  0.00    -0.208 N 
ATOM      4  C   UNL     1       4.870  -4.091  -0.264  0.00  0.00    +0.082 A 
ATOM      5  C   UNL     1       6.031  -4.776  -0.242  0.00  0.00    +0.077 A 
ATOM      6  S   UNL     1       7.244  -3.466  -0.259  0.00  0.00    -0.056 S 
ENDROOT
BRANCH   4   7
ATOM      7  C   UNL     1       3.579  -4.814  -0.255  0.00  0.00    +0.002 A 
ATOM      8  C   UNL     1       2.462  -4.241   0.359  0.00  0.00    +0.013 A 
ATOM      9  C   UNL     1       1.256  -4.908   0.366  0.00  0.00    +0.047 A 
ATOM     10  C   UNL     1       1.145  -6.158  -0.227  0.00  0.00    +0.129 A 
ATOM     11  C   UNL     1       2.260  -6.744  -0.841  0.00  0.00    +0.078 A 
ATOM     12  C   UNL     1       3.479  -6.066  -0.853  0.00  0.00    +0.026 A 
BRANCH  11  13
ATOM     13  C   UNL     1       2.146  -8.073  -1.472  0.00  0.00    +0.245 C 
ATOM     14  O   UNL     1       1.082  -8.662  -1.460  0.00  0.00    -0.270 OA
ATOM     15  N   UNL     1       3.220  -8.634  -2.061  0.00  0.00    -0.325 N 
ATOM     16  H   UNL     1       4.069  -8.165  -2.070  0.00  0.00    +0.145 HD
ATOM     17  H   UNL     1       3.144  -9.508  -2.476  0.00  0.00    +0.145 HD
ENDBRANCH  11  13
BRANCH  10  18
ATOM     18  O   UNL     1      -0.044  -6.813  -0.212  0.00  0.00    -0.506 OA
ATOM     19  H   UNL     1      -0.168  -7.385   0.558  0.00  0.00    +0.292 HD
ENDBRANCH  10  18
ENDBRANCH   4   7
BRANCH   1  21
ATOM     20  C   UNL     1       8.039   0.478  -1.591  0.00  0.00    +0.029 C 
ATOM     21  C   UNL     1       7.769  -0.338  -0.325  0.00  0.00    +0.141 C 
ENDBRANCH   1  21
BRANCH   3  22
ATOM     22  N   UNL     1       3.699  -1.987  -0.331  0.00  0.00    -0.172 NA
ATOM     23  C   UNL     1       3.692  -0.780  -0.811  0.00  0.00    +0.141 C 
BRANCH  23  24
ATOM     24  C   UNL     1       2.470   0.040  -0.725  0.00  0.00    -0.002 A 
ATOM     25  C   UNL     1       1.318  -0.479  -0.127  0.00  0.00    +0.013 A 
ATOM     26  C   UNL     1       0.177   0.290  -0.050  0.00  0.00    +0.050 A 
ATOM     27  C   UNL     1       0.166   1.581  -0.564  0.00  0.00    +0.162 A 
ATOM     28  C   UNL     1       1.311   2.105  -1.158  0.00  0.00    +0.163 A 
ATOM     29  C   UNL     1       2.459   1.338  -1.240  0.00  0.00    +0.059 A 
ATOM     30  O   UNL     1       1.318   3.371  -1.658  0.00  0.00    -0.485 OA
ATOM     31  C   UNL     1       0.043   3.978  -1.894  0.00  0.00    +0.270 C 
ATOM     32  C   UNL     1      -0.840   3.733  -0.663  0.00  0.00    +0.270 C 
ATOM     33  O   UNL     1      -0.975   2.318  -0.484  0.00  0.00    -0.485 OA
ENDBRANCH  23  24
ENDBRANCH   3  22
TORSDOF 6
