REMARK  Name = ZINC07742779
REMARK  8 active torsions:
REMARK  status: ('A' for Active; 'I' for Inactive)
REMARK    1  A    between atoms: C_1  and  C_2
REMARK    2  A    between atoms: C_2  and  C_3
REMARK    3  A    between atoms: C_10  and  C_12
REMARK    4  A    between atoms: C_12  and  S_13
REMARK    5  A    between atoms: S_13  and  C_14
REMARK    6  A    between atoms: N_19  and  C_20
REMARK    7  A    between atoms: C_24  and  C_27
REMARK    8  A    between atoms: C_25  and  C_26
REMARK                            x       y       z     vdW  Elec       q    Type
REMARK                         _______ _______ _______ _____ _____    ______ ____
ROOT
ATOM      1  C   UNL     1      -0.134   0.895  -2.099  0.00  0.00    +0.160 A 
ATOM      2  N   UNL     1       0.948   0.144  -2.035  0.00  0.00    -0.133 NA
ATOM      3  N   UNL     1       1.524  -0.328  -3.192  0.00  0.00    -0.125 NA
ATOM      4  C   UNL     1       0.997  -0.018  -4.361  0.00  0.00    +0.187 A 
ATOM      5  S   UNL     1      -0.395   0.986  -3.864  0.00  0.00    -0.024 S 
ATOM      6  N   UNL     1       1.413  -0.377  -5.638  0.00  0.00    -0.292 N 
ATOM      7  H   UNL     1       0.878  -0.132  -6.409  0.00  0.00    +0.154 HD
ENDROOT
BRANCH   6   8
ATOM      8  C   UNL     1       2.602  -1.090  -5.811  0.00  0.00    +0.036 A 
ATOM      9  C   UNL     1       3.309  -1.543  -4.704  0.00  0.00    +0.023 A 
ATOM     10  C   UNL     1       4.483  -2.248  -4.878  0.00  0.00    +0.002 A 
ATOM     11  C   UNL     1       4.956  -2.502  -6.152  0.00  0.00    +0.004 A 
ATOM     12  C   UNL     1       4.255  -2.053  -7.256  0.00  0.00    -0.046 A 
ATOM     13  C   UNL     1       3.076  -1.353  -7.089  0.00  0.00    -0.026 A 
ATOM     14  C   UNL     1       2.310  -0.868  -8.293  0.00  0.00    +0.046 C 
ATOM     15  C   UNL     1       4.775  -2.332  -8.643  0.00  0.00    +0.044 C 
ENDBRANCH   6   8
BRANCH   1  16
ATOM     16  S   UNL     1      -1.069   1.621  -0.793  0.00  0.00    -0.088 S 
BRANCH  16  17
ATOM     17  C   UNL     1      -0.205   1.092   0.711  0.00  0.00    +0.172 C 
BRANCH  17  24
ATOM     18  C   UNL     1      -1.184   1.830   4.345  0.00  0.00    +0.076 C 
ATOM     19  C   UNL     1      -1.417   0.614   5.255  0.00  0.00    +0.022 C 
ATOM     20  C   UNL     1      -0.073  -0.051   5.562  0.00  0.00    +0.003 C 
ATOM     21  C   UNL     1       0.566  -0.539   4.260  0.00  0.00    +0.019 C 
ATOM     22  C   UNL     1       0.818   0.658   3.339  0.00  0.00    +0.108 C 
ATOM     23  N   UNL     1      -0.444   1.388   3.155  0.00  0.00    -0.298 N 
ATOM     24  C   UNL     1      -0.911   1.652   1.919  0.00  0.00    +0.226 C 
ATOM     25  O   UNL     1      -1.899   2.341   1.779  0.00  0.00    -0.275 OA
BRANCH  18  27
ATOM     26  C   UNL     1      -3.316   2.841   5.166  0.00  0.00    +0.006 C 
ATOM     27  C   UNL     1      -2.530   2.422   3.922  0.00  0.00    +0.019 C 
ENDBRANCH  18  27
ENDBRANCH  17  24
ENDBRANCH  16  17
ENDBRANCH   1  16
TORSDOF 5
