REMARK  Name = ZINC05004375
REMARK  1 active torsions:
REMARK  status: ('A' for Active; 'I' for Inactive)
REMARK    1  A    between atoms: C_6  and  N_8
REMARK                            x       y       z     vdW  Elec       q    Type
REMARK                         _______ _______ _______ _____ _____    ______ ____
ROOT
ATOM      1  C   UNL     1      -0.770   3.274   0.026  0.00  0.00    +0.059 C 
ATOM      2  C   UNL     1      -1.099   1.799   0.017  0.00  0.00    -0.027 C 
ATOM      3  C   UNL     1      -0.013   1.076   0.008  0.00  0.00    -0.010 C 
ATOM      4  C   UNL     1       1.222   1.947   0.001  0.00  0.00    +0.131 C 
ATOM      5  C   UNL     1       0.719   3.344   0.436  0.00  0.00    +0.175 C 
ATOM      6 CL   UNL     1       2.438   1.323   1.176  0.00  0.00    -0.115 Cl
ENDROOT
BRANCH   5   7
ATOM      7  N   UNL     1       0.859   3.526   1.883  0.00  0.00    -0.064 NA
ATOM      8  O   UNL     1       1.553   4.426   2.319  0.00  0.00    -0.149 OA
ENDBRANCH   5   7
TORSDOF 1
