REMARK  Name = ZINC00510305
REMARK  1 active torsions:
REMARK  status: ('A' for Active; 'I' for Inactive)
REMARK    1  A    between atoms: C_1  and  C_2
REMARK                            x       y       z     vdW  Elec       q    Type
REMARK                         _______ _______ _______ _____ _____    ______ ____
ROOT
ATOM      1  C   UNL     1       1.847   7.602   0.865  0.00  0.00    +0.007 C 
ATOM      2  C   UNL     1       1.891   6.082   1.030  0.00  0.00    -0.011 C 
ATOM      3  C   UNL     1       2.657   5.461  -0.141  0.00  0.00    +0.022 C 
ATOM      4  C   UNL     1       2.645   3.937  -0.002  0.00  0.00    +0.107 C 
ATOM      5  N   UNL     1       1.257   3.456   0.008  0.00  0.00    -0.313 N 
ATOM      6  C   UNL     1       0.515   4.002   1.152  0.00  0.00    +0.107 C 
ATOM      7  C   UNL     1       0.463   5.528   1.048  0.00  0.00    +0.022 C 
ATOM      8  C   UNL     1       1.212   2.071   0.002  0.00  0.00    +0.149 A 
ATOM      9  C   UNL     1      -0.017   1.396   0.010  0.00  0.00    +0.106 A 
ATOM     10  C   UNL     1       0.002  -0.004   0.002  0.00  0.00    +0.101 A 
ATOM     11  C   UNL     1      -1.403  -0.439   0.014  0.00  0.00    +0.027 A 
ATOM     12  C   UNL     1      -2.021  -1.690   0.013  0.00  0.00    +0.027 A 
ATOM     13  C   UNL     1      -3.396  -1.774   0.025  0.00  0.00    +0.019 A 
ATOM     14  C   UNL     1      -4.167  -0.620   0.040  0.00  0.00    +0.017 A 
ATOM     15  C   UNL     1      -3.571   0.622   0.040  0.00  0.00    +0.027 A 
ATOM     16  C   UNL     1      -2.183   0.728   0.028  0.00  0.00    +0.049 A 
ATOM     17  N   UNL     1      -1.333   1.818   0.030  0.00  0.00    -0.350 N 
ATOM     18  H   UNL     1      -1.619   2.745   0.039  0.00  0.00    +0.166 HD
ATOM     19 BR   UNL     1      -4.236  -3.468   0.024  0.00  0.00    -0.050 Br
ATOM     20  N   UNL     1       1.173  -0.640  -0.013  0.00  0.00    -0.233 NA
ATOM     21  C   UNL     1       2.302   0.036  -0.021  0.00  0.00    +0.224 A 
ATOM     22  N   UNL     1       2.332   1.356  -0.014  0.00  0.00    -0.219 NA
ENDROOT
TORSDOF 0
