REMARK  Name = ZINC38965495
REMARK  10 active torsions:
REMARK  status: ('A' for Active; 'I' for Inactive)
REMARK    1  A    between atoms: C_1  and  C_2
REMARK    2  A    between atoms: C_2  and  C_3
REMARK    3  A    between atoms: C_3  and  C_4
REMARK    4  A    between atoms: C_4  and  C_5
REMARK    5  A    between atoms: C_8  and  N_11
REMARK    6  A    between atoms: C_12  and  C_14
REMARK    7  A    between atoms: C_14  and  C_15
REMARK    8  A    between atoms: C_15  and  C_16
REMARK    9  A    between atoms: C_16  and  N_18
REMARK   10  A    between atoms: C_22  and  C_25
REMARK                            x       y       z     vdW  Elec       q    Type
REMARK                         _______ _______ _______ _____ _____    ______ ____
ROOT
ATOM      1  C   UNL     1       5.452  -4.350  -7.215  0.00  0.00    +0.105 C 
ENDROOT
BRANCH   1   3
ATOM      2  N   UNL     1       3.394  -3.857  -5.933  0.00  0.00    -0.285 N 
ATOM      3  C   UNL     1       4.737  -3.972  -5.943  0.00  0.00    +0.218 C 
ATOM      4  O   UNL     1       5.370  -3.772  -4.928  0.00  0.00    -0.275 OA
ATOM      5  H   UNL     1       2.882  -4.091  -6.722  0.00  0.00    +0.155 HD
BRANCH   2   9
ATOM      6  C   UNL     1       1.445  -2.495  -2.512  0.00  0.00    -0.047 A 
ATOM      7  C   UNL     1       2.702  -2.012  -2.828  0.00  0.00    +0.005 A 
ATOM      8  C   UNL     1       3.351  -2.462  -3.962  0.00  0.00    +0.023 A 
ATOM      9  C   UNL     1       2.740  -3.400  -4.784  0.00  0.00    +0.033 A 
ATOM     10  C   UNL     1       1.478  -3.883  -4.463  0.00  0.00    +0.023 A 
ATOM     11  C   UNL     1       0.837  -3.433  -3.325  0.00  0.00    +0.005 A 
BRANCH   6  12
ATOM     12  C   UNL     1       0.740  -2.002  -1.274  0.00  0.00    +0.035 C 
BRANCH  12  13
ATOM     13  C   UNL     1       1.109  -2.895  -0.088  0.00  0.00    +0.004 C 
BRANCH  13  15
ATOM     14  C   UNL     1       0.762  -3.287   2.355  0.00  0.00    +0.004 C 
ATOM     15  C   UNL     1       0.393  -2.395   1.169  0.00  0.00    -0.003 C 
ENDBRANCH  13  15
ENDBRANCH  12  13
ENDBRANCH   6  12
ENDBRANCH   2   9
ENDBRANCH   1   3
BRANCH   1  16
ATOM     16  C   UNL     1       6.958  -4.412  -6.955  0.00  0.00    +0.107 C 
BRANCH  16  17
ATOM     17  C   UNL     1       7.672  -4.789  -8.227  0.00  0.00    +0.239 C 
ATOM     18  O   UNL     1       7.038  -4.990  -9.243  0.00  0.00    -0.274 OA
BRANCH  17  19
ATOM     19  N   UNL     1       9.002  -4.903  -8.236  0.00  0.00    -0.154 NA
ATOM     20  C   UNL     1       9.630  -5.235  -9.354  0.00  0.00    +0.203 C 
ATOM     21  N   UNL     1      10.976  -5.404  -9.551  0.00  0.00    -0.129 NA
ATOM     22  N   UNL     1      11.485  -5.711 -10.609  0.00  0.00    -0.170 NA
ATOM     23  C   UNL     1      10.546  -5.907 -11.739  0.00  0.00    +0.196 C 
ATOM     24  S   UNL     1       8.961  -5.557 -10.869  0.00  0.00    -0.058 S 
BRANCH  23  25
ATOM     25  C   UNL     1      10.590  -7.345 -12.260  0.00  0.00    +0.026 C 
ATOM     26  C   UNL     1      12.023  -7.699 -12.661  0.00  0.00    +0.006 C 
ATOM     27  C   UNL     1      12.066  -9.137 -13.181  0.00  0.00    +0.000 C 
ATOM     28  C   UNL     1      11.149  -9.266 -14.399  0.00  0.00    +0.000 C 
ATOM     29  C   UNL     1       9.716  -8.912 -13.998  0.00  0.00    +0.000 C 
ATOM     30  C   UNL     1       9.673  -7.474 -13.478  0.00  0.00    +0.006 C 
ENDBRANCH  23  25
ENDBRANCH  17  19
ENDBRANCH  16  17
ENDBRANCH   1  16
TORSDOF 9
