REMARK  Name = ZINC54200726
REMARK  8 active torsions:
REMARK  status: ('A' for Active; 'I' for Inactive)
REMARK    1  A    between atoms: C_4  and  C_7
REMARK    2  A    between atoms: C_7  and  C_9
REMARK    3  A    between atoms: C_7  and  N_22
REMARK    4  A    between atoms: C_9  and  C_10
REMARK    5  A    between atoms: N_12  and  C_13
REMARK    6  A    between atoms: C_18  and  N_19
REMARK    7  A    between atoms: N_22  and  S_23
REMARK    8  A    between atoms: S_23  and  C_26
REMARK                            x       y       z     vdW  Elec       q    Type
REMARK                         _______ _______ _______ _____ _____    ______ ____
ROOT
ATOM      1  C   UNL     1       3.717  -0.678  -0.015  0.00  0.00    +0.115 C 
ENDROOT
BRANCH   1   5
ATOM      2  C   UNL     1       0.014   1.452   0.054  0.00  0.00    +0.000 A 
ATOM      3  C   UNL     1       1.210   2.145   0.036  0.00  0.00    +0.000 A 
ATOM      4  C   UNL     1       2.408   1.456   0.014  0.00  0.00    +0.005 A 
ATOM      5  C   UNL     1       2.411   0.073   0.011  0.00  0.00    -0.028 A 
ATOM      6  C   UNL     1       1.215  -0.620   0.030  0.00  0.00    +0.005 A 
ATOM      7  C   UNL     1       0.017   0.069   0.051  0.00  0.00    +0.000 A 
ENDBRANCH   1   5
BRANCH   1   8
ATOM      8  N   UNL     1       3.597  -1.836  -0.903  0.00  0.00    -0.182 NA
ATOM      9  H   UNL     1       3.231  -2.670  -0.567  0.00  0.00    +0.149 HD
BRANCH   8  10
ATOM     10  S   UNL     1       4.086  -1.723  -2.481  0.00  0.00    +0.059 S 
ATOM     11  O   UNL     1       3.870  -3.001  -3.066  0.00  0.00    -0.153 OA
ATOM     12  O   UNL     1       3.502  -0.538  -3.004  0.00  0.00    -0.153 OA
BRANCH  10  13
ATOM     13  C   UNL     1       5.829  -1.463  -2.470  0.00  0.00    +0.105 A 
ATOM     14  C   UNL     1       6.335  -0.178  -2.429  0.00  0.00    +0.030 A 
ATOM     15  C   UNL     1       7.702   0.027  -2.420  0.00  0.00    +0.022 A 
ATOM     16  C   UNL     1       8.563  -1.055  -2.451  0.00  0.00    +0.041 A 
ATOM     17  C   UNL     1       8.056  -2.342  -2.491  0.00  0.00    +0.022 A 
ATOM     18  C   UNL     1       6.689  -2.545  -2.495  0.00  0.00    +0.030 A 
ATOM     19 CL   UNL     1      10.280  -0.799  -2.440  0.00  0.00    -0.084 Cl
ENDBRANCH  10  13
ENDBRANCH   8  10
ENDBRANCH   1   8
BRANCH   1  20
ATOM     20  C   UNL     1       4.059  -1.153   1.399  0.00  0.00    +0.121 C 
BRANCH  20  21
ATOM     21  C   UNL     1       5.422  -1.796   1.396  0.00  0.00    +0.219 C 
ATOM     22  O   UNL     1       6.057  -1.868   0.365  0.00  0.00    -0.275 OA
ATOM     23  N   UNL     1       5.936  -2.292   2.540  0.00  0.00    -0.284 N 
ATOM     24  H   UNL     1       5.457  -2.177   3.376  0.00  0.00    +0.155 HD
BRANCH  23  25
ATOM     25  C   UNL     1       7.158  -2.972   2.521  0.00  0.00    +0.064 A 
ATOM     26  C   UNL     1       8.164  -2.571   1.651  0.00  0.00    +0.025 A 
ATOM     27  C   UNL     1       9.370  -3.244   1.634  0.00  0.00    +0.002 A 
ATOM     28  C   UNL     1       9.576  -4.317   2.482  0.00  0.00    +0.002 A 
ATOM     29  C   UNL     1       8.576  -4.719   3.349  0.00  0.00    +0.034 A 
ATOM     30  C   UNL     1       7.370  -4.046   3.375  0.00  0.00    +0.147 A 
BRANCH  30  31
ATOM     31  N   UNL     1       6.303  -4.473   4.308  0.00  0.00    +0.058 N 
ATOM     32  O   UNL     1       6.521  -5.343   5.118  0.00  0.00    -0.126 OA
ATOM     33  O   UNL     1       5.214  -3.951   4.260  0.00  0.00    -0.126 OA
ENDBRANCH  30  31
ENDBRANCH  23  25
ENDBRANCH  20  21
ENDBRANCH   1  20
TORSDOF 8
