REMARK  Name = ZINC05299426
REMARK  1 active torsions:
REMARK  status: ('A' for Active; 'I' for Inactive)
REMARK    1  A    between atoms: C_8  and  C_10
REMARK                            x       y       z     vdW  Elec       q    Type
REMARK                         _______ _______ _______ _____ _____    ______ ____
ROOT
ATOM      1  C   UNL     1       3.139   6.435   0.005  0.00  0.00    +0.257 C 
ATOM      2  O   UNL     1       4.321   6.143  -0.009  0.00  0.00    -0.269 OA
ATOM      3  N   UNL     1       2.765   7.730   0.015  0.00  0.00    -0.265 N 
ATOM      4  C   UNL     1       3.727   8.730   0.010  0.00  0.00    +0.137 A 
ATOM      5  C   UNL     1       3.342  10.098   0.021  0.00  0.00    +0.048 A 
ATOM      6  C   UNL     1       2.016  10.691   0.036  0.00  0.00    +0.021 A 
ATOM      7  C   UNL     1       1.896  12.026   0.044  0.00  0.00    +0.048 A 
ATOM      8  S   UNL     1       3.585  12.597   0.031  0.00  0.00    -0.077 S 
ATOM      9  C   UNL     1       4.407  11.027   0.015  0.00  0.00    +0.113 A 
ATOM     10  N   UNL     1       5.664  10.630   0.002  0.00  0.00    -0.228 NA
ATOM     11  C   UNL     1       5.958   9.345  -0.007  0.00  0.00    +0.224 A 
ATOM     12  N   UNL     1       5.013   8.421   0.002  0.00  0.00    -0.220 NA
ATOM     13  H   UNL     1       1.824   7.963   0.026  0.00  0.00    +0.157 HD
ENDROOT
BRANCH   1  21
ATOM     14  C   UNL     1      -0.013   1.076   0.008  0.00  0.00    +0.001 A 
ATOM     15  C   UNL     1      -1.235   1.737   0.017  0.00  0.00    +0.001 A 
ATOM     16  C   UNL     1      -1.261   3.117   0.031  0.00  0.00    +0.016 A 
ATOM     17  C   UNL     1      -0.075   3.819   0.023  0.00  0.00    +0.021 A 
ATOM     18  C   UNL     1       1.184   3.173   0.008  0.00  0.00    +0.008 A 
ATOM     19  C   UNL     1       1.164   1.754   0.000  0.00  0.00    +0.010 A 
ATOM     20  C   UNL     1       2.301   4.028   0.001  0.00  0.00    +0.068 A 
ATOM     21  C   UNL     1       2.122   5.378   0.010  0.00  0.00    +0.094 A 
ATOM     22  S   UNL     1       0.345   5.544   0.028  0.00  0.00    -0.082 S 
ATOM     23 CL   UNL     1       3.905   3.364  -0.017  0.00  0.00    -0.082 Cl
ENDBRANCH   1  21
TORSDOF 1
