REMARK  Name = ZINC36637965
REMARK  12 active torsions:
REMARK  status: ('A' for Active; 'I' for Inactive)
REMARK    1  A    between atoms: C_1  and  C_2
REMARK    2  A    between atoms: C_2  and  N_3
REMARK    3  A    between atoms: N_3  and  C_4
REMARK    4  A    between atoms: N_3  and  C_6
REMARK    5  A    between atoms: C_4  and  C_5
REMARK    6  A    between atoms: C_6  and  C_7
REMARK    7  A    between atoms: C_7  and  N_8
REMARK    8  A    between atoms: C_12  and  C_18
REMARK    9  A    between atoms: C_19  and  C_21
REMARK   10  A    between atoms: C_24  and  S_27
REMARK   11  A    between atoms: S_27  and  N_30
REMARK   12  A    between atoms: C_35  and  C_37
REMARK                            x       y       z     vdW  Elec       q    Type
REMARK                         _______ _______ _______ _____ _____    ______ ____
ROOT
ATOM      1  N   UNL     1       1.929  -4.399  -5.728  0.00  0.00    -0.248 N 
ATOM      2  C   UNL     1       0.564  -4.584  -5.868  0.00  0.00    +0.168 A 
ATOM      3  N   UNL     1      -0.404  -4.217  -5.060  0.00  0.00    -0.224 NA
ATOM      4  C   UNL     1      -1.704  -4.466  -5.326  0.00  0.00    +0.083 A 
ATOM      5  C   UNL     1      -2.835  -4.128  -4.546  0.00  0.00    -0.024 A 
ATOM      6  C   UNL     1      -4.098  -4.457  -4.964  0.00  0.00    +0.005 A 
ATOM      7  C   UNL     1      -4.314  -5.129  -6.159  0.00  0.00    +0.001 A 
ATOM      8  C   UNL     1      -3.231  -5.475  -6.947  0.00  0.00    +0.017 A 
ATOM      9  C   UNL     1      -1.963  -5.149  -6.536  0.00  0.00    +0.041 A 
ATOM     10  S   UNL     1      -0.330  -5.374  -7.199  0.00  0.00    -0.052 S 
ATOM     11  C   UNL     1      -2.649  -3.399  -3.240  0.00  0.00    +0.046 C 
ATOM     12  C   UNL     1       2.607  -5.078  -4.782  0.00  0.00    +0.252 C 
ATOM     13  O   UNL     1       3.777  -4.825  -4.573  0.00  0.00    -0.270 OA
ENDROOT
BRANCH  12  14
ATOM     14  C   UNL     1       1.927  -6.130  -3.997  0.00  0.00    +0.037 A 
ATOM     15  C   UNL     1       0.833  -6.810  -4.535  0.00  0.00    +0.015 A 
ATOM     16  C   UNL     1       0.203  -7.790  -3.797  0.00  0.00    +0.029 A 
ATOM     17  C   UNL     1       0.654  -8.101  -2.526  0.00  0.00    +0.106 A 
ATOM     18  C   UNL     1       1.737  -7.431  -1.987  0.00  0.00    +0.029 A 
ATOM     19  C   UNL     1       2.380  -6.452  -2.716  0.00  0.00    +0.015 A 
BRANCH  17  20
ATOM     20  S   UNL     1      -0.157  -9.354  -1.590  0.00  0.00    +0.061 S 
ATOM     21  O   UNL     1      -0.042  -8.979  -0.224  0.00  0.00    -0.153 OA
ATOM     22  O   UNL     1      -1.414  -9.579  -2.215  0.00  0.00    -0.153 OA
BRANCH  20  23
ATOM     23  N   UNL     1       0.719 -10.747  -1.774  0.00  0.00    -0.174 NA
ATOM     24  C   UNL     1       1.618 -11.212  -0.710  0.00  0.00    +0.110 C 
ATOM     25  C   UNL     1       1.262 -12.661  -0.362  0.00  0.00    +0.017 C 
ATOM     26  C   UNL     1       1.301 -13.511  -1.634  0.00  0.00    +0.003 C 
ATOM     27  C   UNL     1       0.267 -12.986  -2.632  0.00  0.00    +0.020 C 
ATOM     28  C   UNL     1       0.607 -11.544  -3.003  0.00  0.00    +0.077 C 
ATOM     29  C   UNL     1      -0.500 -10.970  -3.889  0.00  0.00    +0.026 C 
ENDBRANCH  20  23
ENDBRANCH  17  20
ENDBRANCH  12  14
BRANCH   1  30
ATOM     30  C   UNL     1       2.636  -3.466  -6.609  0.00  0.00    +0.097 C 
BRANCH  30  31
ATOM     31  C   UNL     1       2.641  -2.073  -5.977  0.00  0.00    -0.059 C 
BRANCH  31  32
ATOM     32  N   UNL     1       3.461  -1.168  -6.795  0.00  0.00    +0.380 N 
ATOM     33  H   UNL     1       4.404  -1.521  -6.844  0.00  0.00    -0.082 HD
BRANCH  32  35
ATOM     34  C   UNL     1       3.818  -0.244  -9.034  0.00  0.00    -0.017 C 
ATOM     35  C   UNL     1       2.897  -1.086  -8.149  0.00  0.00    -0.082 C 
ENDBRANCH  32  35
BRANCH  32  36
ATOM     36  C   UNL     1       3.469   0.169  -6.186  0.00  0.00    -0.082 C 
ATOM     37  C   UNL     1       4.221   0.119  -4.855  0.00  0.00    -0.017 C 
ENDBRANCH  32  36
ENDBRANCH  31  32
ENDBRANCH  30  31
ENDBRANCH   1  30
TORSDOF 8
