REMARK  Name = ZINC33384156
REMARK  8 active torsions:
REMARK  status: ('A' for Active; 'I' for Inactive)
REMARK    1  A    between atoms: C_1  and  C_2
REMARK    2  A    between atoms: C_4  and  C_34
REMARK    3  A    between atoms: C_8  and  N_33
REMARK    4  A    between atoms: C_9  and  C_11
REMARK    5  A    between atoms: N_13  and  N_14
REMARK    6  A    between atoms: C_15  and  C_16
REMARK    7  A    between atoms: N_18  and  C_27
REMARK    8  A    between atoms: C_20  and  C_21
REMARK                            x       y       z     vdW  Elec       q    Type
REMARK                         _______ _______ _______ _____ _____    ______ ____
ROOT
ATOM      1  C   UNL     1      -1.234  -1.432   5.040  0.00  0.00    +0.272 C 
ATOM      2  O   UNL     1      -1.492  -0.284   5.354  0.00  0.00    -0.268 OA
ATOM      3  N   UNL     1      -0.633  -2.254   5.924  0.00  0.00    -0.202 N 
ATOM      4  H   UNL     1      -0.500  -3.189   5.703  0.00  0.00    +0.178 HD
ENDROOT
BRANCH   1  13
ATOM      5  C   UNL     1      -3.211   0.064   0.092  0.00  0.00    +0.044 C 
ATOM      6  C   UNL     1      -2.853  -1.394   0.222  0.00  0.00    -0.037 A 
ATOM      7  C   UNL     1      -3.018  -2.250  -0.842  0.00  0.00    +0.025 A 
ATOM      8  C   UNL     1      -2.688  -3.591  -0.721  0.00  0.00    +0.014 A 
ATOM      9  N   UNL     1      -2.212  -4.062   0.415  0.00  0.00    -0.353 N 
ATOM     10  C   UNL     1      -2.037  -3.284   1.461  0.00  0.00    +0.088 A 
ATOM     11  C   UNL     1      -2.336  -1.903   1.439  0.00  0.00    +0.030 A 
ATOM     12  C   UNL     1      -2.074  -1.193   2.681  0.00  0.00    +0.054 A 
ATOM     13  C   UNL     1      -1.565  -1.905   3.745  0.00  0.00    +0.099 A 
ATOM     14  S   UNL     1      -1.435  -3.564   3.108  0.00  0.00    -0.064 S 
ATOM     15  C   UNL     1      -2.874  -4.517  -1.895  0.00  0.00    +0.063 C 
ATOM     16  H   UNL     1      -1.987  -5.004   0.482  0.00  0.00    +0.166 HD
BRANCH  12  17
ATOM     17  N   UNL     1      -2.330   0.167   2.792  0.00  0.00    -0.356 N 
ATOM     18  H   UNL     1      -2.767   0.639   2.066  0.00  0.00    +0.142 HD
ATOM     19  H   UNL     1      -2.074   0.645   3.596  0.00  0.00    +0.142 HD
ENDBRANCH  12  17
ENDBRANCH   1  13
BRANCH   3  20
ATOM     20  N   UNL     1      -0.201  -1.757   7.160  0.00  0.00    -0.187 NA
ATOM     21  C   UNL     1       0.499  -2.509   7.953  0.00  0.00    +0.142 C 
BRANCH  21  22
ATOM     22  C   UNL     1       1.004  -3.811   7.480  0.00  0.00    +0.040 A 
ATOM     23  C   UNL     1       1.134  -4.212   6.179  0.00  0.00    +0.124 A 
ATOM     24  N   UNL     1       1.631  -5.466   6.177  0.00  0.00    -0.239 N 
ATOM     25  N   UNL     1       1.828  -5.891   7.494  0.00  0.00    -0.166 NA
ATOM     26  C   UNL     1       1.470  -4.924   8.311  0.00  0.00    +0.102 A 
BRANCH  26  27
ATOM     27  C   UNL     1       1.524  -4.955   9.792  0.00  0.00    +0.003 A 
ATOM     28  C   UNL     1       1.975  -3.842  10.499  0.00  0.00    +0.010 A 
ATOM     29  C   UNL     1       2.024  -3.877  11.878  0.00  0.00    +0.001 A 
ATOM     30  C   UNL     1       1.627  -5.014  12.558  0.00  0.00    +0.000 A 
ATOM     31  C   UNL     1       1.179  -6.122  11.861  0.00  0.00    +0.001 A 
ATOM     32  C   UNL     1       1.120  -6.096  10.483  0.00  0.00    +0.010 A 
ENDBRANCH  26  27
BRANCH  24  33
ATOM     33  C   UNL     1       1.906  -6.225   5.032  0.00  0.00    +0.065 A 
ATOM     34  C   UNL     1       1.673  -5.693   3.771  0.00  0.00    +0.028 A 
ATOM     35  C   UNL     1       1.945  -6.444   2.645  0.00  0.00    +0.002 A 
ATOM     36  C   UNL     1       2.449  -7.725   2.771  0.00  0.00    +0.000 A 
ATOM     37  C   UNL     1       2.682  -8.259   4.026  0.00  0.00    +0.002 A 
ATOM     38  C   UNL     1       2.418  -7.510   5.156  0.00  0.00    +0.028 A 
ENDBRANCH  24  33
ENDBRANCH  21  22
ENDBRANCH   3  20
TORSDOF 6
