REMARK  Name = ZINC35743742
REMARK  13 active torsions:
REMARK  status: ('A' for Active; 'I' for Inactive)
REMARK    1  A    between atoms: C_1  and  C_2
REMARK    2  A    between atoms: C_2  and  C_4
REMARK    3  A    between atoms: C_2  and  N_17
REMARK    4  A    between atoms: N_14  and  C_15
REMARK    5  A    between atoms: N_17  and  C_18
REMARK    6  A    between atoms: C_18  and  C_19
REMARK    7  A    between atoms: C_19  and  C_20
REMARK    8  A    between atoms: C_20  and  C_21
REMARK    9  A    between atoms: C_21  and  C_22
REMARK   10  A    between atoms: C_22  and  C_23
REMARK   11  A    between atoms: C_23  and  N_24
REMARK   12  A    between atoms: C_25  and  C_27
REMARK   13  A    between atoms: C_31  and  N_33
REMARK                            x       y       z     vdW  Elec       q    Type
REMARK                         _______ _______ _______ _____ _____    ______ ____
ROOT
ATOM      1  N   UNL     1      -0.145  -0.645   1.730  0.00  0.00    -0.288 N 
ATOM      2  C   UNL     1      -0.644   0.207   2.648  0.00  0.00    +0.247 C 
ATOM      3  O   UNL     1       0.040   0.554   3.591  0.00  0.00    -0.270 OA
ENDROOT
BRANCH   2   4
ATOM      4  C   UNL     1      -2.024   0.718   2.508  0.00  0.00    +0.039 A 
ATOM      5  C   UNL     1      -2.612   0.813   1.246  0.00  0.00    +0.013 A 
ATOM      6  C   UNL     1      -3.900   1.291   1.123  0.00  0.00    +0.003 A 
ATOM      7  C   UNL     1      -4.609   1.676   2.247  0.00  0.00    +0.033 A 
ATOM      8  C   UNL     1      -4.032   1.586   3.501  0.00  0.00    +0.127 A 
ATOM      9  C   UNL     1      -2.746   1.104   3.639  0.00  0.00    +0.045 A 
BRANCH   8  10
ATOM     10  N   UNL     1      -4.797   2.001   4.698  0.00  0.00    +0.056 N 
ATOM     11  O   UNL     1      -5.926   2.419   4.579  0.00  0.00    -0.126 OA
ATOM     12  O   UNL     1      -4.294   1.922   5.794  0.00  0.00    -0.126 OA
ENDBRANCH   8  10
ENDBRANCH   2   4
BRANCH   1  14
ATOM     13  C   UNL     1      -0.490   1.020  -0.028  0.00  0.00    +0.036 C 
ATOM     14  C   UNL     1      -0.476  -0.471   0.314  0.00  0.00    +0.139 C 
BRANCH  14  15
ATOM     15  C   UNL     1      -1.834  -1.062   0.039  0.00  0.00    +0.133 A 
ATOM     16  N   UNL     1      -2.585  -1.378   1.050  0.00  0.00    -0.232 NA
ATOM     17  C   UNL     1      -3.819  -1.914   0.879  0.00  0.00    +0.080 A 
ATOM     18  C   UNL     1      -4.628  -2.254   1.965  0.00  0.00    +0.048 A 
ATOM     19  C   UNL     1      -5.875  -2.796   1.740  0.00  0.00    +0.043 A 
ATOM     20  C   UNL     1      -6.336  -3.007   0.446  0.00  0.00    +0.021 A 
ATOM     21  C   UNL     1      -5.561  -2.682  -0.633  0.00  0.00    +0.017 A 
ATOM     22  C   UNL     1      -4.296  -2.132  -0.432  0.00  0.00    +0.065 A 
ATOM     23  C   UNL     1      -3.422  -1.764  -1.555  0.00  0.00    +0.262 A 
ATOM     24  O   UNL     1      -3.772  -1.925  -2.709  0.00  0.00    -0.267 OA
ATOM     25  N   UNL     1      -2.213  -1.232  -1.255  0.00  0.00    -0.298 N 
ATOM     26  C   UNL     1      -1.304  -0.842  -2.335  0.00  0.00    +0.154 C 
ATOM     27 CL   UNL     1      -6.883  -3.219   3.089  0.00  0.00    -0.083 Cl
ENDBRANCH  14  15
ENDBRANCH   1  14
BRANCH   1  28
ATOM     28  C   UNL     1       0.728  -1.744   2.149  0.00  0.00    +0.109 C 
BRANCH  28  29
ATOM     29  C   UNL     1       2.184  -1.274   2.131  0.00  0.00    +0.019 C 
BRANCH  29  30
ATOM     30  C   UNL     1       3.096  -2.422   2.568  0.00  0.00    +0.001 C 
BRANCH  30  31
ATOM     31  C   UNL     1       4.552  -1.952   2.549  0.00  0.00    -0.002 C 
BRANCH  31  32
ATOM     32  C   UNL     1       5.464  -3.100   2.987  0.00  0.00    -0.020 C 
BRANCH  32  33
ATOM     33  C   UNL     1       6.920  -2.630   2.968  0.00  0.00    -0.086 C 
BRANCH  33  34
ATOM     34  N   UNL     1       7.796  -3.732   3.388  0.00  0.00    +0.378 N 
ATOM     35  H   UNL     1       7.548  -4.021   4.323  0.00  0.00    -0.090 HD
ATOM     36  H   UNL     1       7.685  -4.510   2.755  0.00  0.00    -0.090 HD
ATOM     37  H   UNL     1       8.756  -3.422   3.376  0.00  0.00    -0.090 HD
ENDBRANCH  33  34
ENDBRANCH  32  33
ENDBRANCH  31  32
ENDBRANCH  30  31
ENDBRANCH  29  30
ENDBRANCH  28  29
ENDBRANCH   1  28
TORSDOF 11
