REMARK  Name = ZINC13896228
REMARK  10 active torsions:
REMARK  status: ('A' for Active; 'I' for Inactive)
REMARK    1  A    between atoms: C_1  and  C_2
REMARK    2  A    between atoms: C_6  and  C_27
REMARK    3  A    between atoms: C_9  and  N_58
REMARK    4  A    between atoms: C_12  and  C_13
REMARK    5  A    between atoms: C_12  and  N_58
REMARK    6  A    between atoms: C_15  and  O_25
REMARK    7  A    between atoms: C_16  and  O_20
REMARK    8  A    between atoms: O_20  and  C_21
REMARK    9  A    between atoms: C_21  and  C_22
REMARK   10  A    between atoms: O_25  and  C_26
REMARK                            x       y       z     vdW  Elec       q    Type
REMARK                         _______ _______ _______ _____ _____    ______ ____
ROOT
ATOM      1  C   UNL     1       1.525   0.032   6.145  0.00  0.00    -0.046 C 
ENDROOT
BRANCH   1   2
ATOM      2  C   UNL     1       0.937   0.438   4.819  0.00  0.00    -0.060 A 
ATOM      3  C   UNL     1       1.347   1.612   4.213  0.00  0.00    +0.051 A 
ATOM      4  C   UNL     1       0.807   1.987   2.993  0.00  0.00    +0.163 A 
ATOM      5  C   UNL     1      -0.148   1.182   2.381  0.00  0.00    +0.176 A 
ATOM      6  C   UNL     1      -0.559   0.010   2.996  0.00  0.00    +0.063 A 
ATOM      7  C   UNL     1      -0.012  -0.362   4.211  0.00  0.00    +0.021 A 
ATOM      8 BR   UNL     1      -1.863  -1.084   2.171  0.00  0.00    -0.046 Br
BRANCH   4   9
ATOM      9  O   UNL     1       1.210   3.141   2.396  0.00  0.00    -0.491 OA
ATOM     10  C   UNL     1       2.194   3.917   3.082  0.00  0.00    +0.277 C 
ENDBRANCH   4   9
BRANCH   5  11
ATOM     11  O   UNL     1      -0.682   1.547   1.184  0.00  0.00    -0.478 OA
BRANCH  11  12
ATOM     12  C   UNL     1      -0.013   1.086   0.008  0.00  0.00    +0.324 C 
BRANCH  12  13
ATOM     13  C   UNL     1      -0.742   1.585  -1.213  0.00  0.00    +0.248 C 
ATOM     14  O   UNL     1      -1.736   2.268  -1.088  0.00  0.00    -0.272 OA
ATOM     15  N   UNL     1      -0.288   1.272  -2.443  0.00  0.00    -0.327 N 
ATOM     16  H   UNL     1       0.507   0.726  -2.543  0.00  0.00    +0.145 HD
ATOM     17  H   UNL     1      -0.758   1.594  -3.229  0.00  0.00    +0.145 HD
ENDBRANCH  12  13
ENDBRANCH  11  12
ENDBRANCH   5  11
ENDBRANCH   1   2
BRANCH   1  18
ATOM     18  N   UNL     1       0.703   0.596   7.232  0.00  0.00    +0.385 N 
ATOM     19  H   UNL     1       0.695   1.620   7.153  0.00  0.00    -0.085 HD
ATOM     20  H   UNL     1      -0.256   0.239   7.152  0.00  0.00    -0.085 HD
BRANCH  18  29
ATOM     21  C   UNL     1       1.848  -3.228  10.167  0.00  0.00    +0.011 C 
ATOM     22  C   UNL     1       1.837  -1.703  10.039  0.00  0.00    -0.033 C 
ATOM     23  C   UNL     1       3.264  -1.170  10.170  0.00  0.00    +0.010 C 
ATOM     24  C   UNL     1       3.253   0.355  10.041  0.00  0.00    -0.011 C 
ATOM     25  C   UNL     1       2.381   0.954  11.147  0.00  0.00    +0.010 C 
ATOM     26  C   UNL     1       0.953   0.420  11.016  0.00  0.00    -0.033 C 
ATOM     27  C   UNL     1       0.965  -1.105  11.144  0.00  0.00    +0.013 C 
ATOM     28  C   UNL     1       0.386   0.812   9.650  0.00  0.00    -0.006 C 
ATOM     29  C   UNL     1       1.257   0.213   8.544  0.00  0.00    -0.067 C 
ATOM     30  C   UNL     1       2.685   0.747   8.675  0.00  0.00    -0.009 C 
ATOM     31  C   UNL     1       1.269  -1.311   8.673  0.00  0.00    -0.006 C 
ATOM     32  C   UNL     1       0.082   1.018  12.121  0.00  0.00    +0.011 C 
ENDBRANCH  18  29
ENDBRANCH   1  18
TORSDOF 7
