REMARK  Name = ZINC58903479
REMARK  6 active torsions:
REMARK  status: ('A' for Active; 'I' for Inactive)
REMARK    1  A    between atoms: C_1  and  C_2
REMARK    2  A    between atoms: C_6  and  C_7
REMARK    3  A    between atoms: C_10  and  C_27
REMARK    4  A    between atoms: N_12  and  C_21
REMARK    5  A    between atoms: C_15  and  N_20
REMARK    6  A    between atoms: C_16  and  C_17
REMARK                            x       y       z     vdW  Elec       q    Type
REMARK                         _______ _______ _______ _____ _____    ______ ____
ROOT
ATOM      1  C   UNL     1       0.257  -0.154   2.595  0.00  0.00    +0.103 C 
ATOM      2  C   UNL     1       1.603  -0.557   3.140  0.00  0.00    +0.050 A 
ATOM      3  C   UNL     1       2.861  -0.051   2.840  0.00  0.00    +0.068 A 
ATOM      4  N   UNL     1       3.747  -0.704   3.554  0.00  0.00    -0.168 NA
ATOM      5  N   UNL     1       3.074  -1.655   4.337  0.00  0.00    -0.200 N 
ATOM      6  C   UNL     1       1.754  -1.549   4.069  0.00  0.00    +0.230 A 
ATOM      7  O   UNL     1       0.708  -2.246   4.576  0.00  0.00    -0.423 OA
ATOM      8  C   UNL     1      -0.531  -1.763   4.352  0.00  0.00    +0.195 C 
ATOM      9  C   UNL     1      -0.809  -0.792   3.449  0.00  0.00    +0.083 C 
ATOM     10  C   UNL     1       3.156   1.057   1.863  0.00  0.00    +0.068 C 
ENDROOT
BRANCH   1  16
ATOM     11  C   UNL     1      -0.496   1.551   0.153  0.00  0.00    +0.044 C 
ATOM     12  C   UNL     1      -0.206   0.075   0.062  0.00  0.00    -0.039 A 
ATOM     13  C   UNL     1      -0.264  -0.578  -1.155  0.00  0.00    +0.011 A 
ATOM     14  C   UNL     1       0.002  -1.906  -1.202  0.00  0.00    +0.046 A 
ATOM     15  S   UNL     1       0.349  -2.274   0.510  0.00  0.00    -0.100 S 
ATOM     16  C   UNL     1       0.122  -0.631   1.172  0.00  0.00    +0.005 A 
ENDBRANCH   1  16
BRANCH   5  17
ATOM     17  C   UNL     1       3.665  -2.554   5.235  0.00  0.00    +0.069 A 
ATOM     18  C   UNL     1       3.003  -2.907   6.404  0.00  0.00    +0.028 A 
ATOM     19  C   UNL     1       3.588  -3.793   7.287  0.00  0.00    +0.002 A 
ATOM     20  C   UNL     1       4.833  -4.328   7.009  0.00  0.00    +0.000 A 
ATOM     21  C   UNL     1       5.495  -3.979   5.846  0.00  0.00    +0.002 A 
ATOM     22  C   UNL     1       4.912  -3.098   4.956  0.00  0.00    +0.028 A 
ENDBRANCH   5  17
BRANCH   9  23
ATOM     23  C   UNL     1      -2.140  -0.364   3.304  0.00  0.00    +0.243 C 
ATOM     24  O   UNL     1      -2.502   0.682   3.815  0.00  0.00    -0.271 OA
ATOM     25  N   UNL     1      -3.015  -1.109   2.600  0.00  0.00    -0.325 N 
ATOM     26  H   UNL     1      -2.747  -1.975   2.255  0.00  0.00    +0.145 HD
ATOM     27  H   UNL     1      -3.912  -0.779   2.438  0.00  0.00    +0.145 HD
ENDBRANCH   9  23
BRANCH   8  28
ATOM     28  N   UNL     1      -1.568  -2.285   5.079  0.00  0.00    -0.329 N 
ATOM     29  H   UNL     1      -1.391  -2.923   5.787  0.00  0.00    +0.145 HD
ATOM     30  H   UNL     1      -2.480  -2.016   4.885  0.00  0.00    +0.145 HD
ENDBRANCH   8  28
TORSDOF 4
