REMARK  Name = ZINC48533918
REMARK  9 active torsions:
REMARK  status: ('A' for Active; 'I' for Inactive)
REMARK    1  A    between atoms: C_1  and  O_2
REMARK    2  A    between atoms: O_2  and  C_3
REMARK    3  A    between atoms: C_6  and  C_9
REMARK    4  A    between atoms: N_13  and  C_21
REMARK    5  A    between atoms: C_21  and  C_22
REMARK    6  A    between atoms: C_22  and  C_23
REMARK    7  A    between atoms: C_23  and  N_24
REMARK    8  A    between atoms: N_24  and  C_25
REMARK    9  A    between atoms: C_25  and  C_26
REMARK                            x       y       z     vdW  Elec       q    Type
REMARK                         _______ _______ _______ _____ _____    ______ ____
ROOT
ATOM      1  C   UNL     1       3.820  -1.361  -6.130  0.00  0.00    +0.025 C 
ATOM      2  C   UNL     1       4.386  -2.206  -7.064  0.00  0.00    +0.083 C 
ATOM      3  C   UNL     1       4.273  -3.592  -7.185  0.00  0.00    +0.245 C 
ATOM      4  O   UNL     1       4.916  -4.001  -8.135  0.00  0.00    -0.270 OA
ATOM      5  N   UNL     1       3.664  -4.588  -6.557  0.00  0.00    -0.267 N 
ATOM      6  C   UNL     1       2.827  -4.695  -5.444  0.00  0.00    +0.050 A 
ATOM      7  C   UNL     1       2.438  -5.995  -5.175  0.00  0.00    +0.024 A 
ATOM      8  C   UNL     1       1.605  -6.252  -4.098  0.00  0.00    +0.002 A 
ATOM      9  C   UNL     1       1.156  -5.227  -3.288  0.00  0.00    +0.001 A 
ATOM     10  C   UNL     1       1.538  -3.917  -3.547  0.00  0.00    +0.017 A 
ATOM     11  C   UNL     1       2.365  -3.666  -4.615  0.00  0.00    +0.034 A 
ATOM     12  S   UNL     1       2.770  -1.951  -4.813  0.00  0.00    -0.087 S 
ENDROOT
BRANCH   1  16
ATOM     13  C   UNL     1       4.621   2.800  -6.390  0.00  0.00    +0.120 A 
ATOM     14  C   UNL     1       4.266   2.090  -7.531  0.00  0.00    +0.046 A 
ATOM     15  C   UNL     1       4.006   0.740  -7.451  0.00  0.00    +0.012 A 
ATOM     16  C   UNL     1       4.098   0.084  -6.220  0.00  0.00    -0.011 A 
ATOM     17  C   UNL     1       4.456   0.802  -5.076  0.00  0.00    +0.012 A 
ATOM     18  C   UNL     1       4.720   2.151  -5.166  0.00  0.00    +0.046 A 
BRANCH  13  20
ATOM     19  C   UNL     1       4.756   4.735  -7.763  0.00  0.00    +0.277 C 
ATOM     20  O   UNL     1       4.877   4.131  -6.474  0.00  0.00    -0.495 OA
ENDBRANCH  13  20
ENDBRANCH   1  16
BRANCH   5  21
ATOM     21  C   UNL     1       3.933  -5.886  -7.180  0.00  0.00    +0.112 C 
BRANCH  21  22
ATOM     22  C   UNL     1       2.769  -6.263  -8.098  0.00  0.00    +0.000 C 
BRANCH  22  23
ATOM     23  C   UNL     1       3.050  -7.619  -8.748  0.00  0.00    -0.081 C 
BRANCH  23  24
ATOM     24  N   UNL     1       1.932  -7.981  -9.629  0.00  0.00    +0.382 N 
ATOM     25  H   UNL     1       1.082  -8.037  -9.088  0.00  0.00    -0.086 HD
ATOM     26  H   UNL     1       1.828  -7.279 -10.347  0.00  0.00    -0.086 HD
BRANCH  24  27
ATOM     27  C   UNL     1       2.202  -9.283 -10.253  0.00  0.00    -0.034 C 
BRANCH  27  28
ATOM     28  C   UNL     1       1.037  -9.660 -11.171  0.00  0.00    +0.194 C 
ATOM     29  C   UNL     1       1.261 -11.067 -11.740  0.00  0.00    +0.271 C 
ATOM     30  O   UNL     1       0.163 -11.382 -12.604  0.00  0.00    -0.485 OA
ATOM     31  C   UNL     1      -0.212 -10.420 -13.492  0.00  0.00    +0.162 A 
ATOM     32  C   UNL     1      -1.000 -10.768 -14.579  0.00  0.00    +0.049 A 
ATOM     33  C   UNL     1      -1.391  -9.803 -15.487  0.00  0.00    +0.004 A 
ATOM     34  C   UNL     1      -0.999  -8.488 -15.314  0.00  0.00    +0.004 A 
ATOM     35  C   UNL     1      -0.212  -8.136 -14.234  0.00  0.00    +0.049 A 
ATOM     36  C   UNL     1       0.186  -9.100 -13.320  0.00  0.00    +0.162 A 
ATOM     37  O   UNL     1       0.967  -8.739 -12.265  0.00  0.00    -0.484 OA
ENDBRANCH  27  28
ENDBRANCH  24  27
ENDBRANCH  23  24
ENDBRANCH  22  23
ENDBRANCH  21  22
ENDBRANCH   5  21
TORSDOF 8
