REMARK  Name = ZINC16572473
REMARK  10 active torsions:
REMARK  status: ('A' for Active; 'I' for Inactive)
REMARK    1  A    between atoms: C_1  and  C_2
REMARK    2  A    between atoms: C_2  and  C_3
REMARK    3  A    between atoms: C_3  and  C_5
REMARK    4  A    between atoms: C_3  and  C_6
REMARK    5  A    between atoms: C_6  and  C_8
REMARK    6  A    between atoms: C_6  and  N_23
REMARK    7  A    between atoms: C_14  and  C_16
REMARK    8  A    between atoms: C_19  and  C_22
REMARK    9  A    between atoms: N_26  and  C_27
REMARK   10  A    between atoms: C_32  and  C_33
REMARK                            x       y       z     vdW  Elec       q    Type
REMARK                         _______ _______ _______ _____ _____    ______ ____
ROOT
ATOM      1  C   UNL     1      -0.219   1.317   0.097  0.00  0.00    +0.163 C 
ENDROOT
BRANCH   1   2
ATOM      2  C   UNL     1      -1.108   1.586  -1.090  0.00  0.00    +0.239 C 
ATOM      3  O   UNL     1      -2.148   2.192  -0.944  0.00  0.00    -0.273 OA
ATOM      4  N   UNL     1      -0.747   1.152  -2.314  0.00  0.00    -0.262 N 
ATOM      5  C   UNL     1      -1.512   1.490  -3.424  0.00  0.00    +0.188 A 
ATOM      6  N   UNL     1      -2.619   2.211  -3.496  0.00  0.00    -0.125 NA
ATOM      7  N   UNL     1      -3.201   2.434  -4.594  0.00  0.00    -0.140 NA
ATOM      8  C   UNL     1      -2.717   1.933  -5.723  0.00  0.00    +0.134 A 
ATOM      9  S   UNL     1      -1.280   1.072  -5.096  0.00  0.00    -0.030 S 
ATOM     10  H   UNL     1       0.047   0.605  -2.420  0.00  0.00    +0.157 HD
BRANCH   8  11
ATOM     11  C   UNL     1      -3.222   2.052  -7.108  0.00  0.00    +0.009 A 
ATOM     12  C   UNL     1      -2.539   1.438  -8.158  0.00  0.00    +0.011 A 
ATOM     13  C   UNL     1      -3.019   1.548  -9.447  0.00  0.00    +0.004 A 
ATOM     14  C   UNL     1      -4.168   2.276  -9.700  0.00  0.00    -0.050 A 
ATOM     15  C   UNL     1      -4.847   2.893  -8.664  0.00  0.00    +0.004 A 
ATOM     16  C   UNL     1      -4.380   2.785  -7.370  0.00  0.00    +0.011 A 
ATOM     17  C   UNL     1      -4.684   2.397 -11.111  0.00  0.00    +0.044 C 
ENDBRANCH   8  11
ENDBRANCH   1   2
BRANCH   1  18
ATOM     18  N   UNL     1      -0.917   1.702   1.327  0.00  0.00    -0.288 N 
ATOM     19  C   UNL     1      -0.584   1.125   2.498  0.00  0.00    +0.304 C 
ATOM     20  O   UNL     1       0.294   0.285   2.535  0.00  0.00    -0.252 OA
ATOM     21  N   UNL     1      -1.226   1.479   3.630  0.00  0.00    -0.269 N 
ATOM     22  H   UNL     1      -1.618   2.371   1.297  0.00  0.00    +0.151 HD
ATOM     23  H   UNL     1      -1.968   2.102   3.591  0.00  0.00    +0.156 HD
BRANCH  21  24
ATOM     24  C   UNL     1      -0.822   0.947   4.859  0.00  0.00    +0.038 A 
ATOM     25  C   UNL     1      -0.205  -0.297   4.911  0.00  0.00    +0.023 A 
ATOM     26  C   UNL     1       0.196  -0.817   6.125  0.00  0.00    +0.002 A 
ATOM     27  C   UNL     1      -0.023  -0.105   7.291  0.00  0.00    +0.000 A 
ATOM     28  C   UNL     1      -0.641   1.131   7.243  0.00  0.00    +0.005 A 
ATOM     29  C   UNL     1      -1.041   1.659   6.031  0.00  0.00    -0.029 A 
ATOM     30  C   UNL     1      -1.714   3.006   5.980  0.00  0.00    +0.045 C 
ENDBRANCH  21  24
ENDBRANCH   1  18
BRANCH   1  31
ATOM     31  C   UNL     1       1.069   2.132  -0.035  0.00  0.00    +0.015 C 
ATOM     32  C   UNL     1       0.743   3.623   0.078  0.00  0.00    +0.010 C 
BRANCH  31  34
ATOM     33  C   UNL     1       2.440   0.270   0.909  0.00  0.00    +0.004 C 
ATOM     34  C   UNL     1       2.039   1.736   1.079  0.00  0.00    +0.002 C 
ENDBRANCH  31  34
ENDBRANCH   1  31
TORSDOF 6
