REMARK  Name = ZINC40947774
REMARK  13 active torsions:
REMARK  status: ('A' for Active; 'I' for Inactive)
REMARK    1  A    between atoms: C_1  and  C_2
REMARK    2  A    between atoms: C_2  and  O_3
REMARK    3  A    between atoms: O_3  and  C_4
REMARK    4  A    between atoms: C_6  and  C_19
REMARK    5  A    between atoms: C_9  and  O_10
REMARK    6  A    between atoms: O_10  and  C_11
REMARK    7  A    between atoms: C_11  and  C_12
REMARK    8  A    between atoms: C_17  and  C_18
REMARK    9  A    between atoms: N_20  and  N_21
REMARK   10  A    between atoms: C_22  and  C_24
REMARK   11  A    between atoms: C_24  and  S_25
REMARK   12  A    between atoms: S_25  and  C_26
REMARK   13  A    between atoms: C_29  and  C_31
REMARK                            x       y       z     vdW  Elec       q    Type
REMARK                         _______ _______ _______ _____ _____    ______ ____
ROOT
ATOM      1  C   UNL     1      -0.200  -4.959  -0.504  0.00  0.00    +0.138 C 
ATOM      2  N   UNL     1      -0.093  -6.244  -0.361  0.00  0.00    -0.188 NA
ENDROOT
BRANCH   1   5
ATOM      3  C   UNL     1       0.802  -1.825   1.306  0.00  0.00    +0.163 A 
ATOM      4  C   UNL     1       0.261  -2.669   0.354  0.00  0.00    +0.059 A 
ATOM      5  C   UNL     1       0.375  -4.053   0.507  0.00  0.00    -0.002 A 
ATOM      6  C   UNL     1       1.036  -4.577   1.621  0.00  0.00    +0.013 A 
ATOM      7  C   UNL     1       1.572  -3.729   2.567  0.00  0.00    +0.050 A 
ATOM      8  C   UNL     1       1.464  -2.355   2.412  0.00  0.00    +0.162 A 
BRANCH   3   9
ATOM      9  O   UNL     1       0.693  -0.477   1.160  0.00  0.00    -0.489 OA
BRANCH   9  11
ATOM     10  C   UNL     1      -0.019   1.526   0.010  0.00  0.00    +0.048 C 
ATOM     11  C   UNL     1       0.002  -0.004   0.002  0.00  0.00    +0.226 C 
ENDBRANCH   9  11
ENDBRANCH   3   9
BRANCH   8  12
ATOM     12  O   UNL     1       2.000  -1.523   3.344  0.00  0.00    -0.484 OA
BRANCH  12  13
ATOM     13  C   UNL     1       2.664  -2.132   4.452  0.00  0.00    +0.265 C 
BRANCH  13  14
ATOM     14  C   UNL     1       3.190  -1.062   5.373  0.00  0.00    -0.007 A 
ATOM     15  C   UNL     1       2.983   0.272   5.072  0.00  0.00    +0.007 A 
ATOM     16  C   UNL     1       3.465   1.253   5.917  0.00  0.00    +0.000 A 
ATOM     17  C   UNL     1       4.154   0.902   7.064  0.00  0.00    +0.000 A 
ATOM     18  C   UNL     1       4.359  -0.431   7.365  0.00  0.00    +0.004 A 
ATOM     19  C   UNL     1       3.873  -1.413   6.522  0.00  0.00    -0.044 A 
ATOM     20  C   UNL     1       4.093  -2.867   6.853  0.00  0.00    +0.044 C 
ENDBRANCH  13  14
ENDBRANCH  12  13
ENDBRANCH   8  12
ENDBRANCH   1   5
BRANCH   2  21
ATOM     21  N   UNL     1      -0.639  -7.104  -1.322  0.00  0.00    -0.206 N 
ATOM     22  C   UNL     1      -0.528  -8.439  -1.173  0.00  0.00    +0.242 C 
ATOM     23  O   UNL     1       0.045  -8.896  -0.206  0.00  0.00    -0.273 OA
ATOM     24  H   UNL     1      -1.098  -6.739  -2.095  0.00  0.00    +0.177 HD
BRANCH  22  25
ATOM     25  C   UNL     1      -1.116  -9.364  -2.207  0.00  0.00    +0.173 C 
BRANCH  25  26
ATOM     26  S   UNL     1      -0.804 -11.085  -1.725  0.00  0.00    -0.088 S 
BRANCH  26  27
ATOM     27  C   UNL     1      -1.542 -12.030  -3.017  0.00  0.00    +0.159 A 
ATOM     28  N   UNL     1      -2.182 -11.628  -4.110  0.00  0.00    -0.134 NA
ATOM     29  N   UNL     1      -2.655 -12.448  -4.943  0.00  0.00    -0.140 NA
ATOM     30  C   UNL     1      -2.544 -13.759  -4.778  0.00  0.00    +0.133 A 
ATOM     31  S   UNL     1      -1.638 -13.805  -3.234  0.00  0.00    -0.039 S 
BRANCH  30  32
ATOM     32  C   UNL     1      -3.025 -14.868  -5.629  0.00  0.00    +0.009 A 
ATOM     33  C   UNL     1      -2.796 -16.192  -5.251  0.00  0.00    +0.010 A 
ATOM     34  C   UNL     1      -3.248 -17.222  -6.050  0.00  0.00    +0.001 A 
ATOM     35  C   UNL     1      -3.926 -16.945  -7.224  0.00  0.00    +0.000 A 
ATOM     36  C   UNL     1      -4.155 -15.635  -7.604  0.00  0.00    +0.001 A 
ATOM     37  C   UNL     1      -3.714 -14.595  -6.812  0.00  0.00    +0.010 A 
ENDBRANCH  30  32
ENDBRANCH  26  27
ENDBRANCH  25  26
ENDBRANCH  22  25
ENDBRANCH   2  21
TORSDOF 11
