REMARK  Name = ZINC58967690
REMARK  12 active torsions:
REMARK  status: ('A' for Active; 'I' for Inactive)
REMARK    1  A    between atoms: C_1  and  O_2
REMARK    2  A    between atoms: O_2  and  C_3
REMARK    3  A    between atoms: C_8  and  C_9
REMARK    4  A    between atoms: C_11  and  C_31
REMARK    5  A    between atoms: C_13  and  S_15
REMARK    6  A    between atoms: S_15  and  C_16
REMARK    7  A    between atoms: C_16  and  C_17
REMARK    8  A    between atoms: C_17  and  C_18
REMARK    9  A    between atoms: N_20  and  C_21
REMARK   10  A    between atoms: C_26  and  C_27
REMARK   11  A    between atoms: C_27  and  O_29
REMARK   12  A    between atoms: O_29  and  C_30
REMARK                            x       y       z     vdW  Elec       q    Type
REMARK                         _______ _______ _______ _____ _____    ______ ____
ROOT
ATOM      1  C   UNL     1       0.052  -2.828  -0.061  0.00  0.00    +0.079 A 
ATOM      2  C   UNL     1       0.124  -4.223  -0.116  0.00  0.00    +0.061 A 
ATOM      3  C   UNL     1      -0.441  -4.954   0.913  0.00  0.00    +0.148 A 
ATOM      4  N   UNL     1      -1.029  -4.316   1.913  0.00  0.00    -0.218 NA
ATOM      5  C   UNL     1      -1.083  -2.992   1.941  0.00  0.00    +0.189 A 
ATOM      6  N   UNL     1      -0.550  -2.254   0.979  0.00  0.00    -0.222 NA
ENDROOT
BRANCH   1  12
ATOM      7  C   UNL     1       0.571  -0.605  -1.073  0.00  0.00    +0.129 A 
ATOM      8  C   UNL     1       1.130   0.161  -2.084  0.00  0.00    +0.046 A 
ATOM      9  C   UNL     1       1.751  -0.453  -3.155  0.00  0.00    +0.004 A 
ATOM     10  C   UNL     1       1.818  -1.834  -3.225  0.00  0.00    +0.001 A 
ATOM     11  C   UNL     1       1.266  -2.609  -2.227  0.00  0.00    +0.013 A 
ATOM     12  C   UNL     1       0.642  -2.000  -1.139  0.00  0.00    +0.042 A 
BRANCH   7  14
ATOM     13  C   UNL     1      -0.074   1.426  -0.020  0.00  0.00    +0.277 C 
ATOM     14  O   UNL     1      -0.039  -0.003  -0.020  0.00  0.00    -0.494 OA
ENDBRANCH   7  14
ENDBRANCH   1  12
BRANCH   3  15
ATOM     15  C   UNL     1      -0.388  -6.460   0.896  0.00  0.00    +0.434 C 
ATOM     16  F   UNL     1       0.774  -6.893   1.543  0.00  0.00    -0.164 F 
ATOM     17  F   UNL     1      -1.509  -6.973   1.558  0.00  0.00    -0.164 F 
ATOM     18  F   UNL     1      -0.381  -6.911  -0.428  0.00  0.00    -0.164 F 
ENDBRANCH   3  15
BRANCH   5  19
ATOM     19  S   UNL     1      -1.877  -2.193   3.296  0.00  0.00    -0.086 S 
BRANCH  19  20
ATOM     20  C   UNL     1      -2.436  -3.562   4.346  0.00  0.00    +0.086 C 
BRANCH  20  21
ATOM     21  C   UNL     1      -3.152  -3.002   5.577  0.00  0.00    +0.107 C 
BRANCH  21  22
ATOM     22  C   UNL     1      -3.616  -4.139   6.449  0.00  0.00    +0.218 C 
ATOM     23  O   UNL     1      -3.396  -5.285   6.120  0.00  0.00    -0.275 OA
ATOM     24  N   UNL     1      -4.277  -3.883   7.596  0.00  0.00    -0.285 N 
ATOM     25  H   UNL     1      -4.383  -2.968   7.900  0.00  0.00    +0.155 HD
BRANCH  24  26
ATOM     26  C   UNL     1      -4.806  -4.932   8.344  0.00  0.00    +0.047 A 
ATOM     27  C   UNL     1      -5.134  -6.132   7.728  0.00  0.00    +0.024 A 
ATOM     28  C   UNL     1      -5.659  -7.170   8.471  0.00  0.00    +0.002 A 
ATOM     29  C   UNL     1      -5.862  -7.024   9.834  0.00  0.00    +0.001 A 
ATOM     30  C   UNL     1      -5.542  -5.841  10.463  0.00  0.00    +0.017 A 
ATOM     31  C   UNL     1      -5.005  -4.783   9.725  0.00  0.00    +0.080 A 
BRANCH  31  32
ATOM     32  C   UNL     1      -4.655  -3.516  10.392  0.00  0.00    +0.341 C 
ATOM     33  O   UNL     1      -4.278  -2.567   9.734  0.00  0.00    -0.245 OA
BRANCH  32  34
ATOM     34  O   UNL     1      -4.754  -3.410  11.732  0.00  0.00    -0.464 OA
ATOM     35  C   UNL     1      -4.399  -2.153  12.311  0.00  0.00    +0.280 C 
ENDBRANCH  32  34
ENDBRANCH  31  32
ENDBRANCH  24  26
ENDBRANCH  21  22
ENDBRANCH  20  21
ENDBRANCH  19  20
ENDBRANCH   5  19
TORSDOF 10
