REMARK  Name = ZINC09087921
REMARK  4 active torsions:
REMARK  status: ('A' for Active; 'I' for Inactive)
REMARK    1  A    between atoms: C_5  and  C_7
REMARK    2  A    between atoms: N_13  and  N_14
REMARK    3  A    between atoms: C_15  and  C_16
REMARK    4  A    between atoms: C_20  and  N_22
REMARK                            x       y       z     vdW  Elec       q    Type
REMARK                         _______ _______ _______ _____ _____    ______ ____
ROOT
ATOM      1  C   UNL     1      -3.212  -3.199   0.828  0.00  0.00    +0.185 A 
ATOM      2  N   UNL     1      -4.288  -3.791   0.307  0.00  0.00    -0.151 NA
ATOM      3  N   UNL     1      -4.187  -3.802  -0.977  0.00  0.00    -0.253 N 
ATOM      4  H   UNL     1      -4.838  -4.179  -1.589  0.00  0.00    +0.191 HD
ATOM      5  C   UNL     1      -3.031  -3.207  -1.330  0.00  0.00    +0.197 A 
ATOM      6  S   UNL     1      -2.453  -2.982  -2.926  0.00  0.00    -0.010 S 
ATOM      7  N   UNL     1      -2.413  -2.821  -0.193  0.00  0.00    -0.188 N 
ENDROOT
BRANCH   1  12
ATOM      8  C   UNL     1      -1.446  -3.114   4.137  0.00  0.00    +0.001 A 
ATOM      9  C   UNL     1      -2.439  -2.602   4.958  0.00  0.00    +0.001 A 
ATOM     10  C   UNL     1      -3.682  -2.284   4.438  0.00  0.00    +0.016 A 
ATOM     11  C   UNL     1      -3.941  -2.470   3.096  0.00  0.00    +0.029 A 
ATOM     12  C   UNL     1      -2.944  -2.993   2.261  0.00  0.00    +0.035 A 
ATOM     13  C   UNL     1      -1.689  -3.311   2.796  0.00  0.00    +0.013 A 
ATOM     14 BR   UNL     1      -5.637  -2.027   2.386  0.00  0.00    -0.050 Br
ENDBRANCH   1  12
BRANCH   7  15
ATOM     15  N   UNL     1      -1.181  -2.163  -0.093  0.00  0.00    -0.171 NA
ATOM     16  C   UNL     1      -1.141  -0.854  -0.015  0.00  0.00    +0.141 C 
BRANCH  16  17
ATOM     17  C   UNL     1       0.149  -0.159  -0.021  0.00  0.00    -0.003 A 
ATOM     18  C   UNL     1       1.346  -0.892   0.004  0.00  0.00    +0.011 A 
ATOM     19  C   UNL     1       2.553  -0.231  -0.002  0.00  0.00    +0.023 A 
ATOM     20  C   UNL     1       2.589   1.157  -0.032  0.00  0.00    +0.071 A 
ATOM     21  C   UNL     1       1.411   1.889  -0.056  0.00  0.00    +0.145 A 
ATOM     22  C   UNL     1       0.195   1.244  -0.051  0.00  0.00    +0.043 A 
ATOM     23 CL   UNL     1       4.117   1.980  -0.039  0.00  0.00    -0.081 Cl
BRANCH  21  24
ATOM     24  N   UNL     1       1.462   3.368  -0.088  0.00  0.00    +0.058 N 
ATOM     25  O   UNL     1       0.344   4.064  -0.112  0.00  0.00    -0.126 OA
ATOM     26  O   UNL     1       2.624   3.987  -0.094  0.00  0.00    -0.126 OA
ENDBRANCH  21  24
ENDBRANCH  16  17
ENDBRANCH   7  15
TORSDOF 4
