REMARK  Name = ZINC18178954
REMARK  6 active torsions:
REMARK  status: ('A' for Active; 'I' for Inactive)
REMARK    1  A    between atoms: C_1  and  C_2
REMARK    2  A    between atoms: C_7  and  N_12
REMARK    3  A    between atoms: C_9  and  C_11
REMARK    4  A    between atoms: N_15  and  C_16
REMARK    5  A    between atoms: C_19  and  S_22
REMARK    6  A    between atoms: S_22  and  N_25
REMARK                            x       y       z     vdW  Elec       q    Type
REMARK                         _______ _______ _______ _____ _____    ______ ____
ROOT
ATOM      1  N   UNL     1      -0.727   2.017  -1.175  0.00  0.00    -0.296 N 
ATOM      2  C   UNL     1      -2.070   2.120  -1.162  0.00  0.00    +0.304 C 
ATOM      3  O   UNL     1      -2.695   1.808  -0.166  0.00  0.00    -0.253 OA
ATOM      4  N   UNL     1      -2.722   2.568  -2.253  0.00  0.00    -0.269 N 
ATOM      5  H   UNL     1      -0.229   2.265  -1.969  0.00  0.00    +0.151 HD
ATOM      6  H   UNL     1      -2.221   2.880  -3.023  0.00  0.00    +0.156 HD
ENDROOT
BRANCH   1  12
ATOM      7  C   UNL     1       3.568   2.121  -1.258  0.00  0.00    +0.008 C 
ATOM      8  C   UNL     1       2.136   1.583  -1.253  0.00  0.00    -0.009 C 
ATOM      9  C   UNL     1       2.165   0.054  -1.269  0.00  0.00    +0.003 C 
ATOM     10  C   UNL     1       0.733  -0.484  -1.264  0.00  0.00    +0.002 C 
ATOM     11  C   UNL     1       0.011  -0.000  -0.004  0.00  0.00    +0.022 C 
ATOM     12  C   UNL     1      -0.018   1.530   0.011  0.00  0.00    +0.078 C 
ATOM     13  C   UNL     1       1.414   2.067   0.006  0.00  0.00    +0.009 C 
ATOM     14  C   UNL     1       1.385   3.596   0.022  0.00  0.00    +0.009 C 
ENDBRANCH   1  12
BRANCH   4  15
ATOM     15  C   UNL     1      -4.121   2.584  -2.275  0.00  0.00    +0.035 A 
ATOM     16  C   UNL     1      -4.802   2.329  -3.458  0.00  0.00    +0.025 A 
ATOM     17  C   UNL     1      -6.183   2.341  -3.476  0.00  0.00    +0.030 A 
ATOM     18  C   UNL     1      -6.888   2.616  -2.318  0.00  0.00    +0.105 A 
ATOM     19  C   UNL     1      -6.213   2.876  -1.139  0.00  0.00    +0.030 A 
ATOM     20  C   UNL     1      -4.832   2.861  -1.115  0.00  0.00    +0.025 A 
BRANCH  18  21
ATOM     21  S   UNL     1      -8.649   2.638  -2.346  0.00  0.00    +0.056 S 
ATOM     22  O   UNL     1      -9.048   1.827  -3.443  0.00  0.00    -0.153 OA
ATOM     23  O   UNL     1      -9.080   2.384  -1.016  0.00  0.00    -0.153 OA
BRANCH  21  24
ATOM     24  N   UNL     1      -9.115   4.186  -2.707  0.00  0.00    -0.204 NA
ATOM     25  H   UNL     1      -8.445   4.871  -2.856  0.00  0.00    +0.144 HD
ATOM     26  H   UNL     1     -10.057   4.406  -2.770  0.00  0.00    +0.144 HD
ENDBRANCH  21  24
ENDBRANCH  18  21
ENDBRANCH   4  15
TORSDOF 4
