REMARK  Name = ZINC49148758
REMARK  7 active torsions:
REMARK  status: ('A' for Active; 'I' for Inactive)
REMARK    1  A    between atoms: C_1  and  C_2
REMARK    2  A    between atoms: C_2  and  C_4
REMARK    3  A    between atoms: C_2  and  N_23
REMARK    4  A    between atoms: C_7  and  N_10
REMARK    5  A    between atoms: N_13  and  C_14
REMARK    6  A    between atoms: C_14  and  C_16
REMARK    7  A    between atoms: C_14  and  C_17
REMARK                            x       y       z     vdW  Elec       q    Type
REMARK                         _______ _______ _______ _____ _____    ______ ____
ROOT
ATOM      1  N   UNL     1       2.746  -1.883   4.598  0.00  0.00    -0.269 N 
ATOM      2  C   UNL     1       3.998  -2.370   4.484  0.00  0.00    +0.304 C 
ATOM      3  O   UNL     1       4.573  -2.323   3.414  0.00  0.00    -0.252 OA
ATOM      4  N   UNL     1       4.612  -2.908   5.556  0.00  0.00    -0.292 N 
ATOM      5  H   UNL     1       2.316  -1.849   5.467  0.00  0.00    +0.156 HD
ATOM      6  H   UNL     1       4.153  -2.946   6.410  0.00  0.00    +0.151 HD
ENDROOT
BRANCH   1  10
ATOM      7  C   UNL     1       0.723  -0.523   1.220  0.00  0.00    -0.062 A 
ATOM      8  C   UNL     1       1.608  -1.580   1.115  0.00  0.00    +0.004 A 
ATOM      9  C   UNL     1       2.280  -2.033   2.233  0.00  0.00    +0.023 A 
ATOM     10  C   UNL     1       2.067  -1.426   3.463  0.00  0.00    +0.035 A 
ATOM     11  C   UNL     1       1.177  -0.365   3.566  0.00  0.00    +0.023 A 
ATOM     12  C   UNL     1       0.512   0.087   2.443  0.00  0.00    +0.004 A 
BRANCH   7  14
ATOM     13  C   UNL     1      -1.203  -0.946  -0.284  0.00  0.00    -0.009 C 
ATOM     14  C   UNL     1      -0.009  -0.031  -0.002  0.00  0.00    -0.047 C 
BRANCH  14  15
ATOM     15  N   UNL     1       0.900  -0.043  -1.155  0.00  0.00    +0.382 N 
ATOM     16  H   UNL     1       0.410   0.287  -1.974  0.00  0.00    -0.089 HD
ATOM     17  H   UNL     1       1.687   0.561  -0.969  0.00  0.00    -0.089 HD
ATOM     18  H   UNL     1       1.228  -0.983  -1.316  0.00  0.00    -0.089 HD
ENDBRANCH  14  15
ENDBRANCH   7  14
ENDBRANCH   1  10
BRANCH   4  19
ATOM     19  C   UNL     1       5.972  -3.438   5.432  0.00  0.00    +0.108 C 
ATOM     20  C   UNL     1       6.980  -2.300   5.609  0.00  0.00    +0.033 C 
BRANCH  19  21
ATOM     21  C   UNL     1       6.203  -4.483   6.492  0.00  0.00    +0.011 A 
ATOM     22  C   UNL     1       6.865  -5.662   6.397  0.00  0.00    +0.014 A 
ATOM     23  C   UNL     1       6.952  -6.474   7.513  0.00  0.00    +0.028 A 
ATOM     24  C   UNL     1       6.373  -6.065   8.670  0.00  0.00    +0.078 A 
ATOM     25  S   UNL     1       5.683  -4.487   8.200  0.00  0.00    -0.080 S 
ATOM     26 CL   UNL     1       6.323  -6.865  10.210  0.00  0.00    -0.076 Cl
ENDBRANCH  19  21
ENDBRANCH   4  19
TORSDOF 5
