REMARK  Name = ZINC16568470
REMARK  11 active torsions:
REMARK  status: ('A' for Active; 'I' for Inactive)
REMARK    1  A    between atoms: C_1  and  C_2
REMARK    2  A    between atoms: C_5  and  N_8
REMARK    3  A    between atoms: C_9  and  C_22
REMARK    4  A    between atoms: C_12  and  S_13
REMARK    5  A    between atoms: S_13  and  C_14
REMARK    6  A    between atoms: C_14  and  C_15
REMARK    7  A    between atoms: C_19  and  C_21
REMARK    8  A    between atoms: C_22  and  C_24
REMARK    9  A    between atoms: C_22  and  N_25
REMARK   10  A    between atoms: C_26  and  C_28
REMARK   11  A    between atoms: C_31  and  N_34
REMARK                            x       y       z     vdW  Elec       q    Type
REMARK                         _______ _______ _______ _____ _____    ______ ____
ROOT
ATOM      1  N   UNL     1      -0.133   8.683  -2.321  0.00  0.00    -0.273 N 
ATOM      2  C   UNL     1      -0.148   9.862  -1.624  0.00  0.00    +0.159 A 
ATOM      3  N   UNL     1      -0.131   9.562  -0.356  0.00  0.00    -0.131 NA
ATOM      4  N   UNL     1      -0.112   8.286  -0.203  0.00  0.00    -0.122 NA
ATOM      5  C   UNL     1      -0.116   7.695  -1.375  0.00  0.00    +0.196 A 
ENDROOT
BRANCH   1  10
ATOM      6  C   UNL     1      -0.148   8.032  -7.960  0.00  0.00    +0.044 C 
ATOM      7  C   UNL     1      -0.144   8.205  -6.463  0.00  0.00    -0.050 A 
ATOM      8  C   UNL     1      -1.222   7.768  -5.715  0.00  0.00    +0.005 A 
ATOM      9  C   UNL     1      -1.221   7.925  -4.343  0.00  0.00    +0.026 A 
ATOM     10  C   UNL     1      -0.137   8.522  -3.715  0.00  0.00    +0.050 A 
ATOM     11  C   UNL     1       0.941   8.966  -4.469  0.00  0.00    +0.026 A 
ATOM     12  C   UNL     1       0.937   8.801  -5.840  0.00  0.00    +0.005 A 
ENDBRANCH   1  10
BRANCH   2  13
ATOM     13  C   UNL     1      -0.172  11.248  -2.214  0.00  0.00    +0.139 C 
ATOM     14  C   UNL     1       1.214  11.883  -2.083  0.00  0.00    +0.036 C 
BRANCH  13  15
ATOM     15  N   UNL     1      -1.153  12.067  -1.496  0.00  0.00    -0.302 N 
ATOM     16  C   UNL     1      -1.722  13.125  -2.106  0.00  0.00    +0.245 C 
ATOM     17  O   UNL     1      -1.421  13.401  -3.251  0.00  0.00    -0.270 OA
ATOM     18  H   UNL     1      -1.393  11.847  -0.583  0.00  0.00    +0.150 HD
BRANCH  16  19
ATOM     19  C   UNL     1      -2.712  13.951  -1.383  0.00  0.00    +0.037 A 
ATOM     20  C   UNL     1      -3.064  13.634  -0.070  0.00  0.00    +0.015 A 
ATOM     21  C   UNL     1      -3.984  14.412   0.602  0.00  0.00    +0.033 A 
ATOM     22  C   UNL     1      -4.566  15.498  -0.027  0.00  0.00    +0.126 A 
ATOM     23  C   UNL     1      -4.226  15.815  -1.331  0.00  0.00    +0.033 A 
ATOM     24  C   UNL     1      -3.303  15.048  -2.011  0.00  0.00    +0.015 A 
BRANCH  22  25
ATOM     25  N   UNL     1      -5.557  16.326   0.697  0.00  0.00    +0.056 N 
ATOM     26  O   UNL     1      -6.071  17.283   0.146  0.00  0.00    -0.126 OA
ATOM     27  O   UNL     1      -5.858  16.049   1.845  0.00  0.00    -0.126 OA
ENDBRANCH  22  25
ENDBRANCH  16  19
ENDBRANCH  13  15
ENDBRANCH   2  13
BRANCH   5  28
ATOM     28  S   UNL     1      -0.095   5.958  -1.674  0.00  0.00    -0.081 S 
BRANCH  28  29
ATOM     29  C   UNL     1      -0.070   5.347   0.030  0.00  0.00    +0.112 C 
BRANCH  29  30
ATOM     30  C   UNL     1      -0.050   3.840   0.022  0.00  0.00    -0.037 A 
ATOM     31  C   UNL     1       1.157   3.165   0.008  0.00  0.00    +0.004 A 
ATOM     32  C   UNL     1       1.175   1.783   0.000  0.00  0.00    +0.001 A 
ATOM     33  C   UNL     1      -0.013   1.076   0.008  0.00  0.00    +0.003 A 
ATOM     34  C   UNL     1      -1.219   1.750   0.017  0.00  0.00    -0.050 A 
ATOM     35  C   UNL     1      -1.238   3.133   0.030  0.00  0.00    +0.007 A 
ATOM     36  C   UNL     1      -2.514   0.979   0.019  0.00  0.00    +0.044 C 
ENDBRANCH  29  30
ENDBRANCH  28  29
ENDBRANCH   5  28
TORSDOF 8
