REMARK  Name = ZINC53113525
REMARK  7 active torsions:
REMARK  status: ('A' for Active; 'I' for Inactive)
REMARK    1  A    between atoms: C_1  and  C_2
REMARK    2  A    between atoms: C_7  and  C_9
REMARK    3  A    between atoms: C_7  and  N_11
REMARK    4  A    between atoms: C_9  and  O_10
REMARK    5  A    between atoms: N_11  and  S_12
REMARK    6  A    between atoms: S_12  and  C_15
REMARK    7  A    between atoms: C_16  and  N_22
REMARK                            x       y       z     vdW  Elec       q    Type
REMARK                         _______ _______ _______ _____ _____    ______ ____
ROOT
ATOM      1  S   UNL     1      -1.162  -3.835   1.551  0.00  0.00    +0.062 S 
ATOM      2  O   UNL     1      -2.271  -4.471   0.930  0.00  0.00    -0.153 OA
ATOM      3  O   UNL     1       0.182  -4.166   1.233  0.00  0.00    -0.153 OA
ENDROOT
BRANCH   1   4
ATOM      4  C   UNL     1      -1.346  -4.085   3.286  0.00  0.00    +0.144 A 
ATOM      5  C   UNL     1      -2.304  -3.371   3.994  0.00  0.00    +0.053 A 
ATOM      6  C   UNL     1      -2.445  -3.571   5.361  0.00  0.00    +0.025 A 
ATOM      7  C   UNL     1      -1.633  -4.479   6.013  0.00  0.00    +0.003 A 
ATOM      8  C   UNL     1      -0.680  -5.189   5.306  0.00  0.00    +0.022 A 
ATOM      9  C   UNL     1      -0.541  -4.997   3.942  0.00  0.00    +0.069 A 
ATOM     10 CL   UNL     1       0.652  -5.896   3.057  0.00  0.00    -0.081 Cl
BRANCH   5  11
ATOM     11  N   UNL     1      -3.123  -2.453   3.333  0.00  0.00    -0.356 N 
ATOM     12  H   UNL     1      -3.101  -2.393   2.365  0.00  0.00    +0.142 HD
ATOM     13  H   UNL     1      -3.713  -1.875   3.841  0.00  0.00    +0.142 HD
ENDBRANCH   5  11
ENDBRANCH   1   4
BRANCH   1  14
ATOM     14  N   UNL     1      -1.330  -2.212   1.270  0.00  0.00    -0.182 NA
ATOM     15  H   UNL     1      -2.147  -1.870   0.875  0.00  0.00    +0.149 HD
BRANCH  14  21
ATOM     16  C   UNL     1      -1.605   1.817  -0.199  0.00  0.00    +0.007 C 
ATOM     17  C   UNL     1      -1.129   0.374  -0.019  0.00  0.00    -0.012 C 
ATOM     18  C   UNL     1       0.071   0.115  -0.932  0.00  0.00    +0.003 C 
ATOM     19  C   UNL     1       0.547  -1.328  -0.752  0.00  0.00    +0.002 C 
ATOM     20  C   UNL     1       0.957  -1.552   0.705  0.00  0.00    +0.026 C 
ATOM     21  C   UNL     1      -0.244  -1.292   1.618  0.00  0.00    +0.063 C 
ATOM     22  C   UNL     1      -0.719   0.150   1.438  0.00  0.00    +0.029 C 
BRANCH  21  23
ATOM     23  C   UNL     1       0.166  -1.516   3.075  0.00  0.00    +0.179 C 
BRANCH  23  24
ATOM     24  O   UNL     1       0.751  -2.813   3.212  0.00  0.00    -0.393 OA
ATOM     25  H   UNL     1       0.987  -3.044   4.121  0.00  0.00    +0.209 HD
ENDBRANCH  23  24
ENDBRANCH  21  23
ENDBRANCH  14  21
ENDBRANCH   1  14
TORSDOF 6
