REMARK  Name = ZINC09312479
REMARK  17 active torsions:
REMARK  status: ('A' for Active; 'I' for Inactive)
REMARK    1  A    between atoms: C_1  and  C_2
REMARK    2  A    between atoms: C_2  and  N_78
REMARK    3  A    between atoms: C_3  and  C_4
REMARK    4  A    between atoms: C_3  and  N_78
REMARK    5  A    between atoms: C_5  and  C_6
REMARK    6  A    between atoms: C_5  and  N_78
REMARK    7  A    between atoms: C_6  and  N_7
REMARK    8  A    between atoms: C_8  and  C_28
REMARK    9  A    between atoms: C_11  and  C_12
REMARK   10  A    between atoms: C_11  and  O_23
REMARK   11  A    between atoms: C_19  and  C_22
REMARK   12  A    between atoms: C_32  and  O_34
REMARK   13  A    between atoms: O_34  and  C_35
REMARK   14  A    between atoms: C_35  and  C_36
REMARK   15  A    between atoms: C_36  and  C_37
REMARK   16  A    between atoms: C_37  and  C_38
REMARK   17  A    between atoms: C_37  and  C_39
REMARK                            x       y       z     vdW  Elec       q    Type
REMARK                         _______ _______ _______ _____ _____    ______ ____
ROOT
ATOM      1  N   UNL     1       0.175  -0.195   7.477  0.00  0.00    -0.285 N 
ATOM      2  C   UNL     1      -0.064   1.200   7.095  0.00  0.00    +0.144 C 
ATOM      3  C   UNL     1       0.976   2.030   7.812  0.00  0.00    +0.071 C 
ATOM      4  C   UNL     1       1.132   3.401   7.748  0.00  0.00    +0.133 C 
ATOM      5  C   UNL     1       1.752   1.126   8.554  0.00  0.00    +0.249 C 
ATOM      6  O   UNL     1       2.696   1.413   9.268  0.00  0.00    -0.282 OA
ATOM      7  C   UNL     1       1.221  -0.244   8.318  0.00  0.00    +0.288 C 
ATOM      8  O   UNL     1       1.667  -1.258   8.814  0.00  0.00    -0.266 OA
ENDROOT
BRANCH   4   9
ATOM      9  C   UNL     1       2.109   4.072   8.620  0.00  0.00    +0.017 A 
ATOM     10  C   UNL     1       2.106   3.831  10.000  0.00  0.00    +0.015 A 
ATOM     11  C   UNL     1       3.026   4.451  10.810  0.00  0.00    +0.046 A 
ATOM     12  C   UNL     1       3.963   5.335  10.271  0.00  0.00    +0.124 A 
ATOM     13  C   UNL     1       3.953   5.581   8.900  0.00  0.00    -0.002 A 
ATOM     14  C   UNL     1       3.046   4.961   8.079  0.00  0.00    +0.019 A 
ATOM     15  C   UNL     1       5.054   6.587   8.623  0.00  0.00    +0.083 C 
ATOM     16  C   UNL     1       5.360   7.125  10.041  0.00  0.00    +0.175 C 
ATOM     17  O   UNL     1       4.948   6.040  10.889  0.00  0.00    -0.488 OA
ATOM     18  C   UNL     1       4.539   8.382  10.332  0.00  0.00    +0.052 C 
ENDBRANCH   4   9
BRANCH   2  19
ATOM     19  C   UNL     1       0.086   1.360   5.604  0.00  0.00    -0.019 A 
ATOM     20  C   UNL     1       1.088   0.682   4.934  0.00  0.00    +0.006 A 
ATOM     21  C   UNL     1       1.228   0.826   3.566  0.00  0.00    +0.004 A 
ATOM     22  C   UNL     1       0.365   1.645   2.865  0.00  0.00    +0.045 A 
ATOM     23  C   UNL     1      -0.637   2.331   3.535  0.00  0.00    +0.121 A 
ATOM     24  C   UNL     1      -0.776   2.184   4.908  0.00  0.00    +0.051 A 
BRANCH  23  25
ATOM     25  O   UNL     1      -1.485   3.142   2.848  0.00  0.00    -0.492 OA
BRANCH  25  26
ATOM     26  C   UNL     1      -1.283   3.245   1.437  0.00  0.00    +0.229 C 
BRANCH  26  27
ATOM     27  C   UNL     1      -2.324   4.194   0.841  0.00  0.00    +0.044 C 
BRANCH  27  28
ATOM     28  C   UNL     1      -2.108   4.304  -0.670  0.00  0.00    -0.014 C 
ATOM     29  C   UNL     1      -2.375   2.947  -1.324  0.00  0.00    +0.007 C 
ATOM     30  C   UNL     1      -3.067   5.347  -1.247  0.00  0.00    +0.007 C 
ENDBRANCH  27  28
ENDBRANCH  26  27
ENDBRANCH  25  26
ENDBRANCH  23  25
ENDBRANCH   2  19
BRANCH   4  31
ATOM     31  O   UNL     1       0.388   4.126   6.886  0.00  0.00    -0.506 OA
ATOM     32  H   UNL     1       0.627   5.093   6.970  0.00  0.00    +0.292 HD
ENDBRANCH   4  31
BRANCH   1  33
ATOM     33  C   UNL     1      -0.601  -1.348   7.014  0.00  0.00    +0.090 C 
BRANCH  33  34
ATOM     34  C   UNL     1       0.024  -1.903   5.733  0.00  0.00    -0.060 C 
BRANCH  34  35
ATOM     35  N   UNL     1      -0.757  -3.078   5.292  0.00  0.00    +0.380 N 
ATOM     36  H   UNL     1      -0.853  -3.730   6.079  0.00  0.00    -0.082 HD
BRANCH  35  38
ATOM     37  C   UNL     1      -2.002  -1.669   3.687  0.00  0.00    -0.017 C 
ATOM     38  C   UNL     1      -2.103  -2.654   4.853  0.00  0.00    -0.082 C 
ENDBRANCH  35  38
BRANCH  35  39
ATOM     39  C   UNL     1      -0.057  -3.763   4.184  0.00  0.00    -0.082 C 
ATOM     40  C   UNL     1      -0.677  -5.148   3.993  0.00  0.00    -0.017 C 
ENDBRANCH  35  39
ENDBRANCH  34  35
ENDBRANCH  33  34
ENDBRANCH   1  33
TORSDOF 12
