REMARK  Name = ZINC16294319
REMARK  10 active torsions:
REMARK  status: ('A' for Active; 'I' for Inactive)
REMARK    1  A    between atoms: C_1  and  N_2
REMARK    2  A    between atoms: C_3  and  C_21
REMARK    3  A    between atoms: C_6  and  S_7
REMARK    4  A    between atoms: S_7  and  C_8
REMARK    5  A    between atoms: C_8  and  C_9
REMARK    6  A    between atoms: N_11  and  C_12
REMARK    7  A    between atoms: C_15  and  N_18
REMARK    8  A    between atoms: C_21  and  S_22
REMARK    9  A    between atoms: S_22  and  C_23
REMARK   10  A    between atoms: C_23  and  C_24
REMARK                            x       y       z     vdW  Elec       q    Type
REMARK                         _______ _______ _______ _____ _____    ______ ____
ROOT
ATOM      1  C   UNL     1       0.491   3.778  -1.538  0.00  0.00    +0.152 C 
ATOM      2  N   UNL     1      -0.500   2.754  -1.879  0.00  0.00    -0.308 N 
ATOM      3  C   UNL     1      -0.726   1.573  -1.227  0.00  0.00    +0.144 A 
ATOM      4  N   UNL     1      -1.687   0.959  -1.858  0.00  0.00    -0.133 NA
ATOM      5  N   UNL     1      -2.088   1.671  -2.850  0.00  0.00    -0.122 NA
ATOM      6  C   UNL     1      -1.392   2.782  -2.913  0.00  0.00    +0.192 A 
ENDROOT
BRANCH   6   7
ATOM      7  S   UNL     1      -1.573   4.066  -4.106  0.00  0.00    -0.077 S 
BRANCH   7   8
ATOM      8  C   UNL     1      -2.917   3.379  -5.106  0.00  0.00    +0.173 C 
BRANCH   8   9
ATOM      9  C   UNL     1      -3.252   4.335  -6.221  0.00  0.00    +0.227 C 
ATOM     10  O   UNL     1      -2.643   5.378  -6.330  0.00  0.00    -0.275 OA
ATOM     11  N   UNL     1      -4.229   4.031  -7.098  0.00  0.00    -0.285 N 
ATOM     12  H   UNL     1      -4.670   3.168  -7.053  0.00  0.00    +0.155 HD
BRANCH  11  13
ATOM     13  C   UNL     1      -4.607   4.959  -8.075  0.00  0.00    +0.034 A 
ATOM     14  C   UNL     1      -5.934   5.047  -8.475  0.00  0.00    +0.025 A 
ATOM     15  C   UNL     1      -6.304   5.969  -9.434  0.00  0.00    +0.034 A 
ATOM     16  C   UNL     1      -5.353   6.795 -10.005  0.00  0.00    +0.126 A 
ATOM     17  C   UNL     1      -4.030   6.706  -9.613  0.00  0.00    +0.034 A 
ATOM     18  C   UNL     1      -3.654   5.790  -8.650  0.00  0.00    +0.025 A 
BRANCH  16  19
ATOM     19  N   UNL     1      -5.753   7.777 -11.038  0.00  0.00    +0.056 N 
ATOM     20  O   UNL     1      -4.917   8.506 -11.542  0.00  0.00    -0.126 OA
ATOM     21  O   UNL     1      -6.918   7.857 -11.385  0.00  0.00    -0.126 OA
ENDBRANCH  16  19
ENDBRANCH  11  13
ENDBRANCH   8   9
ENDBRANCH   7   8
ENDBRANCH   6   7
BRANCH   3  22
ATOM     22  C   UNL     1       0.006   1.072  -0.009  0.00  0.00    +0.145 C 
BRANCH  22  23
ATOM     23  S   UNL     1      -0.845   1.644   1.487  0.00  0.00    -0.148 S 
BRANCH  23  24
ATOM     24  C   UNL     1       0.148   0.965   2.844  0.00  0.00    +0.104 C 
BRANCH  24  25
ATOM     25  C   UNL     1      -0.458   1.372   4.162  0.00  0.00    -0.038 A 
ATOM     26  C   UNL     1      -0.059   2.546   4.774  0.00  0.00    +0.004 A 
ATOM     27  C   UNL     1      -0.619   2.922   5.980  0.00  0.00    +0.000 A 
ATOM     28  C   UNL     1      -1.570   2.118   6.581  0.00  0.00    +0.000 A 
ATOM     29  C   UNL     1      -1.965   0.941   5.973  0.00  0.00    +0.000 A 
ATOM     30  C   UNL     1      -1.409   0.568   4.763  0.00  0.00    +0.004 A 
ENDBRANCH  24  25
ENDBRANCH  23  24
ENDBRANCH  22  23
ENDBRANCH   3  22
TORSDOF 9
