REMARK  Name = ZINC08846874
REMARK  14 active torsions:
REMARK  status: ('A' for Active; 'I' for Inactive)
REMARK    1  A    between atoms: C_1  and  C_2
REMARK    2  A    between atoms: C_2  and  C_3
REMARK    3  A    between atoms: C_3  and  C_4
REMARK    4  A    between atoms: C_4  and  C_5
REMARK    5  A    between atoms: C_8  and  N_11
REMARK    6  A    between atoms: C_13  and  C_18
REMARK    7  A    between atoms: C_18  and  O_20
REMARK    8  A    between atoms: O_20  and  C_21
REMARK    9  A    between atoms: C_21  and  C_22
REMARK   10  A    between atoms: N_24  and  C_25
REMARK   11  A    between atoms: C_26  and  C_36
REMARK   12  A    between atoms: C_31  and  C_35
REMARK   13  A    between atoms: C_36  and  O_38
REMARK   14  A    between atoms: O_38  and  C_39
REMARK                            x       y       z     vdW  Elec       q    Type
REMARK                         _______ _______ _______ _____ _____    ______ ____
ROOT
ATOM      1  O   UNL     1       1.527  -5.039  -0.026  0.00  0.00    -0.455 OA
ENDROOT
BRANCH   1   2
ATOM      2  C   UNL     1       2.037  -6.281  -0.033  0.00  0.00    +0.313 C 
ATOM      3  O   UNL     1       3.234  -6.443  -0.029  0.00  0.00    -0.250 OA
BRANCH   2   6
ATOM      4  N   UNL     1       1.077  -9.651  -1.047  0.00  0.00    -0.271 N 
ATOM      5  C   UNL     1       1.913  -8.787  -0.206  0.00  0.00    +0.128 C 
ATOM      6  C   UNL     1       1.115  -7.473  -0.045  0.00  0.00    +0.124 C 
ATOM      7  C   UNL     1       0.236  -7.480  -1.317  0.00  0.00    +0.112 C 
ATOM      8  C   UNL     1       0.130  -8.943  -1.687  0.00  0.00    +0.221 C 
ATOM      9  O   UNL     1      -0.689  -9.409  -2.450  0.00  0.00    -0.275 OA
BRANCH   4  13
ATOM     10  C   UNL     1       1.572 -13.773  -1.403  0.00  0.00    -0.047 A 
ATOM     11  C   UNL     1       2.486 -13.028  -0.680  0.00  0.00    +0.005 A 
ATOM     12  C   UNL     1       2.324 -11.662  -0.560  0.00  0.00    +0.024 A 
ATOM     13  C   UNL     1       1.243 -11.036  -1.167  0.00  0.00    +0.036 A 
ATOM     14  C   UNL     1       0.324 -11.787  -1.888  0.00  0.00    +0.024 A 
ATOM     15  C   UNL     1       0.494 -13.152  -2.008  0.00  0.00    +0.005 A 
BRANCH  10  16
ATOM     16  C   UNL     1       1.752 -15.263  -1.532  0.00  0.00    +0.035 C 
BRANCH  16  17
ATOM     17  C   UNL     1       1.028 -15.966  -0.382  0.00  0.00    +0.004 C 
BRANCH  17  19
ATOM     18  C   UNL     1       0.486 -18.181   0.637  0.00  0.00    +0.004 C 
ATOM     19  C   UNL     1       1.210 -17.479  -0.513  0.00  0.00    -0.003 C 
ENDBRANCH  17  19
ENDBRANCH  16  17
ENDBRANCH  10  16
ENDBRANCH   4  13
ENDBRANCH   2   6
ENDBRANCH   1   2
BRANCH   1  20
ATOM     20  C   UNL     1       2.474  -3.938  -0.014  0.00  0.00    +0.328 C 
BRANCH  20  21
ATOM     21  C   UNL     1       1.724  -2.631  -0.008  0.00  0.00    +0.255 C 
ATOM     22  O   UNL     1       0.512  -2.627  -0.013  0.00  0.00    -0.272 OA
ATOM     23  N   UNL     1       2.402  -1.466   0.003  0.00  0.00    -0.277 N 
ATOM     24  H   UNL     1       3.372  -1.469   0.007  0.00  0.00    +0.155 HD
BRANCH  23  25
ATOM     25  C   UNL     1       1.712  -0.263   0.009  0.00  0.00    +0.086 A 
ATOM     26  C   UNL     1       2.227   1.026   0.020  0.00  0.00    +0.091 A 
ATOM     27  C   UNL     1       1.278   2.127   0.023  0.00  0.00    -0.021 A 
ATOM     28  C   UNL     1      -0.023   1.766   0.015  0.00  0.00    -0.004 A 
ATOM     29  S   UNL     1      -0.001  -0.004   0.003  0.00  0.00    -0.077 S 
ATOM     30  C   UNL     1      -1.213   2.675   0.022  0.00  0.00    +0.046 C 
ATOM     31  C   UNL     1      -0.745   4.084   0.408  0.00  0.00    -0.009 C 
ATOM     32  C   UNL     1       0.492   4.440  -0.421  0.00  0.00    +0.008 C 
ATOM     33  C   UNL     1       1.684   3.596   0.035  0.00  0.00    +0.037 C 
ATOM     34  C   UNL     1      -1.860   5.092   0.124  0.00  0.00    +0.008 C 
BRANCH  26  35
ATOM     35  C   UNL     1       3.671   1.268   0.027  0.00  0.00    +0.342 C 
ATOM     36  O   UNL     1       4.275   1.376  -1.023  0.00  0.00    -0.245 OA
BRANCH  35  37
ATOM     37  O   UNL     1       4.332   1.372   1.199  0.00  0.00    -0.464 OA
ATOM     38  C   UNL     1       5.762   1.612   1.130  0.00  0.00    +0.280 C 
ENDBRANCH  35  37
ENDBRANCH  26  35
ENDBRANCH  23  25
ENDBRANCH  20  21
ENDBRANCH   1  20
TORSDOF 11
