REMARK  Name = ZINC35867516
REMARK  6 active torsions:
REMARK  status: ('A' for Active; 'I' for Inactive)
REMARK    1  A    between atoms: C_1  and  C_2
REMARK    2  A    between atoms: C_2  and  C_3
REMARK    3  A    between atoms: C_3  and  C_4
REMARK    4  A    between atoms: C_14  and  C_18
REMARK    5  A    between atoms: N_27  and  C_28
REMARK    6  A    between atoms: C_33  and  C_34
REMARK                            x       y       z     vdW  Elec       q    Type
REMARK                         _______ _______ _______ _____ _____    ______ ____
ROOT
ATOM      1  C   UNL     1      -1.566  -2.015   0.012  0.00  0.00    +0.132 A 
ATOM      2  N   UNL     1      -1.577  -2.603  -1.171  0.00  0.00    -0.217 NA
ATOM      3  C   UNL     1      -1.647  -3.918  -1.303  0.00  0.00    +0.133 A 
ATOM      4  C   UNL     1      -1.712  -4.729  -0.136  0.00  0.00    +0.051 A 
ATOM      5  C   UNL     1      -1.792  -6.187  -0.036  0.00  0.00    -0.025 A 
ATOM      6  C   UNL     1      -1.843  -6.713   1.204  0.00  0.00    -0.004 A 
ATOM      7  S   UNL     1      -1.789  -5.321   2.300  0.00  0.00    -0.073 S 
ATOM      8  C   UNL     1      -1.696  -4.030   1.088  0.00  0.00    +0.114 A 
ATOM      9  N   UNL     1      -1.619  -2.714   1.129  0.00  0.00    -0.225 NA
ATOM     10  C   UNL     1      -1.927  -8.163   1.572  0.00  0.00    +0.046 C 
ATOM     11  C   UNL     1      -1.571  -8.999   0.334  0.00  0.00    -0.009 C 
ATOM     12  C   UNL     1      -2.358  -8.461  -0.864  0.00  0.00    +0.008 C 
ATOM     13  C   UNL     1      -1.817  -7.089  -1.267  0.00  0.00    +0.037 C 
ATOM     14  C   UNL     1      -1.940 -10.463   0.580  0.00  0.00    +0.008 C 
ATOM     15  N   UNL     1      -1.657  -4.496  -2.560  0.00  0.00    -0.312 N 
ATOM     16  C   UNL     1      -2.902  -4.572  -3.338  0.00  0.00    +0.125 C 
ATOM     17  C   UNL     1      -2.668  -3.913  -4.702  0.00  0.00    +0.128 C 
ATOM     18  N   UNL     1      -1.435  -4.461  -5.284  0.00  0.00    -0.282 N 
ATOM     19  C   UNL     1      -0.190  -4.385  -4.506  0.00  0.00    +0.128 C 
ATOM     20  C   UNL     1      -0.423  -5.039  -3.143  0.00  0.00    +0.125 C 
ATOM     21  C   UNL     1      -1.445  -5.025  -6.508  0.00  0.00    +0.307 C 
ATOM     22  O   UNL     1      -2.458  -5.002  -7.180  0.00  0.00    -0.252 OA
ATOM     23  N   UNL     1      -0.331  -5.614  -6.988  0.00  0.00    -0.269 N 
ATOM     24  H   UNL     1       0.468  -5.660  -6.440  0.00  0.00    +0.156 HD
ENDROOT
BRANCH  23  25
ATOM     25  C   UNL     1      -0.328  -6.158  -8.277  0.00  0.00    +0.046 A 
ATOM     26  C   UNL     1      -1.527  -6.484  -8.898  0.00  0.00    +0.024 A 
ATOM     27  C   UNL     1      -1.520  -7.021 -10.171  0.00  0.00    +0.002 A 
ATOM     28  C   UNL     1      -0.322  -7.233 -10.827  0.00  0.00    +0.001 A 
ATOM     29  C   UNL     1       0.874  -6.910 -10.211  0.00  0.00    +0.014 A 
ATOM     30  C   UNL     1       0.873  -6.367  -8.941  0.00  0.00    +0.076 A 
BRANCH  30  31
ATOM     31  C   UNL     1       2.176  -6.009  -8.274  0.00  0.00    +0.419 C 
ATOM     32  F   UNL     1       3.238  -6.309  -9.133  0.00  0.00    -0.166 F 
ATOM     33  F   UNL     1       2.188  -4.642  -7.978  0.00  0.00    -0.166 F 
ATOM     34  F   UNL     1       2.312  -6.743  -7.091  0.00  0.00    -0.166 F 
ENDBRANCH  30  31
ENDBRANCH  23  25
BRANCH   1  35
ATOM     35  C   UNL     1      -1.483  -0.512   0.087  0.00  0.00    +0.076 C 
BRANCH  35  37
ATOM     36  C   UNL     1       0.068   1.443   0.207  0.00  0.00    +0.004 C 
ATOM     37  C   UNL     1      -0.015  -0.083   0.131  0.00  0.00    +0.004 C 
ENDBRANCH  35  37
ENDBRANCH   1  35
TORSDOF 4
