REMARK  Name = ZINC13215317
REMARK  9 active torsions:
REMARK  status: ('A' for Active; 'I' for Inactive)
REMARK    1  A    between atoms: C_1  and  C_2
REMARK    2  A    between atoms: C_2  and  C_3
REMARK    3  A    between atoms: C_2  and  C_4
REMARK    4  A    between atoms: C_4  and  C_6
REMARK    5  A    between atoms: C_4  and  S_10
REMARK    6  A    between atoms: N_8  and  N_9
REMARK    7  A    between atoms: S_10  and  C_11
REMARK    8  A    between atoms: C_14  and  C_23
REMARK    9  A    between atoms: C_15  and  C_17
REMARK                            x       y       z     vdW  Elec       q    Type
REMARK                         _______ _______ _______ _____ _____    ______ ____
ROOT
ATOM      1  C   UNL     1      -5.356   0.831  -0.342  0.00  0.00    +0.168 A 
ATOM      2  N   UNL     1      -6.594   0.993  -0.885  0.00  0.00    -0.332 N 
ATOM      3  H   UNL     1      -6.910   1.778  -1.418  0.00  0.00    +0.168 HD
ATOM      4  C   UNL     1      -7.333  -0.131  -0.562  0.00  0.00    +0.075 A 
ATOM      5  C   UNL     1      -6.497  -0.944   0.178  0.00  0.00    +0.098 A 
ATOM      6  N   UNL     1      -5.306  -0.323   0.282  0.00  0.00    -0.221 NA
ENDROOT
BRANCH   5   7
ATOM      7  C   UNL     1      -6.846  -2.266   0.750  0.00  0.00    +0.002 A 
ATOM      8  C   UNL     1      -8.088  -2.462   1.353  0.00  0.00    +0.010 A 
ATOM      9  C   UNL     1      -8.409  -3.697   1.879  0.00  0.00    +0.001 A 
ATOM     10  C   UNL     1      -7.498  -4.736   1.818  0.00  0.00    +0.000 A 
ATOM     11  C   UNL     1      -6.262  -4.546   1.225  0.00  0.00    +0.001 A 
ATOM     12  C   UNL     1      -5.931  -3.317   0.691  0.00  0.00    +0.010 A 
ENDBRANCH   5   7
BRANCH   4  13
ATOM     13  C   UNL     1      -8.734  -0.405  -0.933  0.00  0.00    +0.000 A 
ATOM     14  C   UNL     1      -9.090  -1.650  -1.458  0.00  0.00    +0.010 A 
ATOM     15  C   UNL     1     -10.402  -1.902  -1.798  0.00  0.00    +0.001 A 
ATOM     16  C   UNL     1     -11.364  -0.921  -1.631  0.00  0.00    +0.000 A 
ATOM     17  C   UNL     1     -11.018   0.317  -1.117  0.00  0.00    +0.001 A 
ATOM     18  C   UNL     1      -9.710   0.580  -0.767  0.00  0.00    +0.010 A 
ENDBRANCH   4  13
BRANCH   1  19
ATOM     19  S   UNL     1      -4.029   1.983  -0.464  0.00  0.00    -0.075 S 
BRANCH  19  20
ATOM     20  C   UNL     1      -2.812   1.175   0.604  0.00  0.00    +0.144 C 
BRANCH  20  21
ATOM     21  C   UNL     1      -1.487   1.883   0.481  0.00  0.00    +0.240 C 
ATOM     22  O   UNL     1      -1.450   3.046   0.142  0.00  0.00    -0.273 OA
ATOM     23  N   UNL     1      -0.343   1.222   0.749  0.00  0.00    -0.253 N 
ATOM     24  H   UNL     1      -0.372   0.292   1.020  0.00  0.00    +0.169 HD
BRANCH  23  25
ATOM     25  N   UNL     1       0.859   1.863   0.632  0.00  0.00    -0.254 NA
ATOM     26  H   UNL     1       0.883   2.692   1.206  0.00  0.00    +0.140 HD
ATOM     27  H   UNL     1       1.622   1.243   0.859  0.00  0.00    +0.140 HD
ENDBRANCH  23  25
ENDBRANCH  20  21
BRANCH  20  29
ATOM     28  C   UNL     1      -2.329   0.436   2.942  0.00  0.00    +0.009 C 
ATOM     29  C   UNL     1      -3.289   1.234   2.057  0.00  0.00    +0.005 C 
ATOM     30  C   UNL     1      -3.322   2.690   2.524  0.00  0.00    +0.009 C 
ENDBRANCH  20  29
ENDBRANCH  19  20
ENDBRANCH   1  19
TORSDOF 7
