REMARK  Name = ZINC43704798
REMARK  6 active torsions:
REMARK  status: ('A' for Active; 'I' for Inactive)
REMARK    1  A    between atoms: C_10  and  O_11
REMARK    2  A    between atoms: O_11  and  C_12
REMARK    3  A    between atoms: C_14  and  O_28
REMARK    4  A    between atoms: C_16  and  O_27
REMARK    5  A    between atoms: C_18  and  O_26
REMARK    6  A    between atoms: C_20  and  C_23
REMARK                            x       y       z     vdW  Elec       q    Type
REMARK                         _______ _______ _______ _____ _____    ______ ____
ROOT
ATOM      1  C   UNL     1       6.047  -0.680  -0.059  0.00  0.00    +0.340 C 
ATOM      2  C   UNL     1       7.238   0.251   0.185  0.00  0.00    +0.214 C 
ATOM      3  C   UNL     1       7.317   1.274  -0.953  0.00  0.00    +0.180 C 
ATOM      4  C   UNL     1       7.424   0.529  -2.288  0.00  0.00    +0.186 C 
ATOM      5  C   UNL     1       6.226  -0.413  -2.435  0.00  0.00    +0.266 C 
ATOM      6  O   UNL     1       6.194  -1.317  -1.329  0.00  0.00    -0.322 OA
ENDROOT
BRANCH   5   7
ATOM      7  C   UNL     1       6.355  -1.192  -3.719  0.00  0.00    +0.387 C 
ATOM      8  O   UNL     1       6.505  -2.401  -3.685  0.00  0.00    -0.243 OA
ATOM      9  O   UNL     1       6.309  -0.613  -4.790  0.00  0.00    -0.243 OA
ENDBRANCH   5   7
BRANCH   4  10
ATOM     10  O   UNL     1       8.635  -0.228  -2.316  0.00  0.00    -0.386 OA
ATOM     11  H   UNL     1       8.769  -0.726  -3.134  0.00  0.00    +0.210 HD
ENDBRANCH   4  10
BRANCH   3  12
ATOM     12  O   UNL     1       6.140   2.085  -0.950  0.00  0.00    -0.386 OA
ATOM     13  H   UNL     1       6.123   2.756  -1.645  0.00  0.00    +0.210 HD
ENDBRANCH   3  12
BRANCH   2  14
ATOM     14  O   UNL     1       8.443  -0.515   0.224  0.00  0.00    -0.383 OA
ATOM     15  H   UNL     1       8.460  -1.186   0.920  0.00  0.00    +0.210 HD
ENDBRANCH   2  14
BRANCH   1  16
ATOM     16  O   UNL     1       4.837   0.080  -0.043  0.00  0.00    -0.460 OA
BRANCH  16  26
ATOM     17  C   UNL     1      -0.016   1.357   0.009  0.00  0.00    +0.001 A 
ATOM     18  C   UNL     1       1.169   2.090   0.002  0.00  0.00    +0.001 A 
ATOM     19  C   UNL     1       2.379   1.467  -0.013  0.00  0.00    +0.012 A 
ATOM     20  C   UNL     1       2.437   0.064  -0.021  0.00  0.00    +0.024 A 
ATOM     21  C   UNL     1       1.233  -0.683  -0.013  0.00  0.00    -0.014 A 
ATOM     22  C   UNL     1       0.002  -0.004   0.002  0.00  0.00    +0.008 A 
ATOM     23  C   UNL     1       1.292  -2.087  -0.021  0.00  0.00    +0.009 A 
ATOM     24  C   UNL     1       2.501  -2.713  -0.035  0.00  0.00    +0.004 A 
ATOM     25  C   UNL     1       3.687  -1.984  -0.043  0.00  0.00    +0.046 A 
ATOM     26  C   UNL     1       3.671  -0.617  -0.036  0.00  0.00    +0.132 A 
ENDBRANCH  16  26
ENDBRANCH   1  16
TORSDOF 6
