REMARK  Name = ZINC09211157
REMARK  8 active torsions:
REMARK  status: ('A' for Active; 'I' for Inactive)
REMARK    1  A    between atoms: C_1  and  C_2
REMARK    2  A    between atoms: C_2  and  N_3
REMARK    3  A    between atoms: N_3  and  C_4
REMARK    4  A    between atoms: N_3  and  C_30
REMARK    5  A    between atoms: C_4  and  C_5
REMARK    6  A    between atoms: C_5  and  N_6
REMARK    7  A    between atoms: C_7  and  C_9
REMARK    8  A    between atoms: C_30  and  C_31
REMARK                            x       y       z     vdW  Elec       q    Type
REMARK                         _______ _______ _______ _____ _____    ______ ____
ROOT
ATOM      1  C   UNL     1       4.949   3.901  -0.788  0.00  0.00    +0.092 C 
ATOM      2  C   UNL     1       5.728   3.481  -2.037  0.00  0.00    +0.016 C 
ATOM      3  C   UNL     1       7.177   3.959  -1.920  0.00  0.00    +0.020 C 
ATOM      4  C   UNL     1       7.201   5.488  -1.827  0.00  0.00    +0.106 C 
ATOM      5  N   UNL     1       6.337   5.907  -0.715  0.00  0.00    -0.313 N 
ATOM      6  C   UNL     1       4.947   5.429  -0.681  0.00  0.00    +0.119 C 
ATOM      7  C   UNL     1       6.821   6.736   0.281  0.00  0.00    +0.152 A 
ATOM      8  C   UNL     1       6.036   7.043   1.406  0.00  0.00    +0.148 A 
ATOM      9  C   UNL     1       6.583   7.890   2.385  0.00  0.00    +0.166 A 
ATOM     10  N   UNL     1       7.812   8.366   2.214  0.00  0.00    -0.216 NA
ATOM     11  C   UNL     1       8.511   8.051   1.144  0.00  0.00    +0.225 A 
ATOM     12  N   UNL     1       8.042   7.255   0.200  0.00  0.00    -0.218 NA
ATOM     13  N   UNL     1       5.618   8.023   3.350  0.00  0.00    -0.312 N 
ATOM     14  C   UNL     1       4.544   7.276   2.966  0.00  0.00    +0.112 A 
ATOM     15  N   UNL     1       4.792   6.706   1.820  0.00  0.00    -0.227 NA
ATOM     16  C   UNL     1       3.265   7.126   3.755  0.00  0.00    +0.074 C 
ATOM     17  C   UNL     1       2.795   8.504   4.224  0.00  0.00    +0.008 C 
ATOM     18  C   UNL     1       3.430   8.828   5.573  0.00  0.00    +0.002 C 
ATOM     19  C   UNL     1       4.831   8.226   5.660  0.00  0.00    +0.022 C 
ATOM     20  C   UNL     1       5.720   8.829   4.571  0.00  0.00    +0.125 C 
ENDROOT
BRANCH   1  22
ATOM     21  N   UNL     1       3.286   2.081  -0.995  0.00  0.00    -0.317 N 
ATOM     22  C   UNL     1       3.530   3.402  -0.889  0.00  0.00    +0.218 C 
ATOM     23  O   UNL     1       2.608   4.190  -0.876  0.00  0.00    -0.275 OA
ATOM     24  H   UNL     1       4.024   1.451  -1.006  0.00  0.00    +0.149 HD
BRANCH  21  25
ATOM     25  C   UNL     1       1.907   1.597  -1.093  0.00  0.00    +0.085 C 
BRANCH  25  26
ATOM     26  C   UNL     1       1.909   0.070  -1.202  0.00  0.00    -0.059 C 
BRANCH  26  27
ATOM     27  N   UNL     1       0.527  -0.424  -1.172  0.00  0.00    +0.383 N 
ATOM     28  H   UNL     1       0.060  -0.070  -0.351  0.00  0.00    -0.081 HD
BRANCH  27  30
ATOM     29  C   UNL     1       1.148  -2.369   0.181  0.00  0.00    -0.017 C 
ATOM     30  C   UNL     1       0.533  -1.893  -1.137  0.00  0.00    -0.082 C 
ENDBRANCH  27  30
BRANCH  27  31
ATOM     31  C   UNL     1      -0.183   0.033  -2.374  0.00  0.00    -0.043 C 
BRANCH  31  32
ATOM     32  C   UNL     1      -1.633  -0.369  -2.285  0.00  0.00    -0.064 A 
ATOM     33  C   UNL     1      -2.042  -1.592  -2.784  0.00  0.00    +0.002 A 
ATOM     34  C   UNL     1      -3.372  -1.961  -2.703  0.00  0.00    +0.000 A 
ATOM     35  C   UNL     1      -4.292  -1.109  -2.122  0.00  0.00    +0.000 A 
ATOM     36  C   UNL     1      -3.882   0.113  -1.623  0.00  0.00    +0.000 A 
ATOM     37  C   UNL     1      -2.552   0.481  -1.700  0.00  0.00    +0.002 A 
ENDBRANCH  31  32
ENDBRANCH  27  31
ENDBRANCH  26  27
ENDBRANCH  25  26
ENDBRANCH  21  25
ENDBRANCH   1  22
TORSDOF 7
