REMARK  Name = ZINC04116090
REMARK  9 active torsions:
REMARK  status: ('A' for Active; 'I' for Inactive)
REMARK    1  A    between atoms: C_1  and  C_2
REMARK    2  A    between atoms: C_3  and  N_15
REMARK    3  A    between atoms: N_6  and  C_9
REMARK    4  A    between atoms: N_7  and  C_8
REMARK    5  A    between atoms: C_16  and  C_17
REMARK    6  A    between atoms: C_23  and  C_29
REMARK    7  A    between atoms: C_23  and  C_30
REMARK    8  A    between atoms: C_24  and  C_28
REMARK    9  A    between atoms: N_26  and  C_27
REMARK                            x       y       z     vdW  Elec       q    Type
REMARK                         _______ _______ _______ _____ _____    ______ ____
ROOT
ATOM      1  N   UNL     1       5.960   3.829  -0.115  0.00  0.00    -0.248 NA
ATOM      2  C   UNL     1       5.475   2.792  -0.737  0.00  0.00    +0.119 C 
ENDROOT
BRANCH   2   3
ATOM      3  C   UNL     1       4.025   2.543  -0.734  0.00  0.00    -0.007 A 
ATOM      4  C   UNL     1       3.162   3.418  -0.065  0.00  0.00    +0.011 A 
ATOM      5  C   UNL     1       1.807   3.185  -0.067  0.00  0.00    +0.024 A 
ATOM      6  C   UNL     1       1.281   2.076  -0.734  0.00  0.00    +0.034 A 
ATOM      7  C   UNL     1       2.144   1.204  -1.394  0.00  0.00    -0.018 A 
ATOM      8  C   UNL     1       3.500   1.430  -1.400  0.00  0.00    +0.015 A 
ATOM      9  C   UNL     1       1.308   0.101  -2.012  0.00  0.00    +0.010 C 
ATOM     10  C   UNL     1      -0.041   0.237  -1.269  0.00  0.00    +0.080 C 
ATOM     11  N   UNL     1      -0.047   1.660  -0.866  0.00  0.00    -0.329 N 
ATOM     12  C   UNL     1      -0.784   1.848   0.391  0.00  0.00    +0.129 C 
ATOM     13  C   UNL     1      -0.084  -0.675  -0.041  0.00  0.00    +0.029 C 
ATOM     14  C   UNL     1       1.937  -1.269  -1.747  0.00  0.00    +0.018 C 
ATOM     15  C   UNL     1       1.126   0.335  -3.513  0.00  0.00    +0.018 C 
ENDBRANCH   2   3
BRANCH   1  18
ATOM     16  C   UNL     1       7.303   6.207   1.270  0.00  0.00    +0.067 C 
ATOM     17  C   UNL     1       7.956   5.101   0.482  0.00  0.00    +0.064 A 
ATOM     18  C   UNL     1       7.309   4.060  -0.117  0.00  0.00    +0.150 A 
ATOM     19  C   UNL     1       8.336   3.237  -0.771  0.00  0.00    +0.298 A 
ATOM     20  O   UNL     1       8.152   2.221  -1.415  0.00  0.00    -0.264 OA
ATOM     21  N   UNL     1       9.524   3.828  -0.522  0.00  0.00    -0.215 N 
ATOM     22  N   UNL     1       9.293   4.971   0.251  0.00  0.00    -0.282 N 
ATOM     23  C   UNL     1      10.327   5.889   0.732  0.00  0.00    +0.171 C 
BRANCH  21  24
ATOM     24  C   UNL     1      10.772   3.374  -0.960  0.00  0.00    +0.067 A 
ATOM     25  C   UNL     1      11.665   4.258  -1.551  0.00  0.00    +0.028 A 
ATOM     26  C   UNL     1      12.900   3.808  -1.977  0.00  0.00    +0.002 A 
ATOM     27  C   UNL     1      13.242   2.476  -1.826  0.00  0.00    +0.000 A 
ATOM     28  C   UNL     1      12.352   1.592  -1.243  0.00  0.00    +0.002 A 
ATOM     29  C   UNL     1      11.118   2.037  -0.810  0.00  0.00    +0.028 A 
ENDBRANCH  21  24
ENDBRANCH   1  18
TORSDOF 3
