REMARK  Name = ZINC35588753
REMARK  10 active torsions:
REMARK  status: ('A' for Active; 'I' for Inactive)
REMARK    1  A    between atoms: C_1  and  C_2
REMARK    2  A    between atoms: C_2  and  C_3
REMARK    3  A    between atoms: C_11  and  N_13
REMARK    4  A    between atoms: N_13  and  C_14
REMARK    5  A    between atoms: N_13  and  C_29
REMARK    6  A    between atoms: C_14  and  C_15
REMARK    7  A    between atoms: C_15  and  C_16
REMARK    8  A    between atoms: N_18  and  C_19
REMARK    9  A    between atoms: C_23  and  C_25
REMARK   10  A    between atoms: C_29  and  C_30
REMARK                            x       y       z     vdW  Elec       q    Type
REMARK                         _______ _______ _______ _____ _____    ______ ____
ROOT
ATOM      1  N   UNL     1       4.070  -1.317  -2.174  0.00  0.00    -0.307 N 
ENDROOT
BRANCH   1  10
ATOM      2  C   UNL     1       0.944   0.351  -2.642  0.00  0.00    +0.132 A 
ATOM      3  N   UNL     1       0.037  -0.554  -2.360  0.00  0.00    -0.232 NA
ATOM      4  C   UNL     1       0.402  -1.791  -1.991  0.00  0.00    +0.078 A 
ATOM      5  C   UNL     1      -0.540  -2.781  -1.684  0.00  0.00    +0.048 A 
ATOM      6  C   UNL     1      -0.114  -4.024  -1.315  0.00  0.00    +0.043 A 
ATOM      7  C   UNL     1       1.245  -4.324  -1.239  0.00  0.00    +0.021 A 
ATOM      8  C   UNL     1       2.187  -3.382  -1.532  0.00  0.00    +0.015 A 
ATOM      9  C   UNL     1       1.782  -2.098  -1.914  0.00  0.00    +0.040 A 
ATOM     10  C   UNL     1       2.713  -1.079  -2.231  0.00  0.00    +0.133 A 
ATOM     11  N   UNL     1       2.244   0.109  -2.589  0.00  0.00    -0.217 NA
ATOM     12 CL   UNL     1      -1.282  -5.250  -0.933  0.00  0.00    -0.083 Cl
BRANCH   2  14
ATOM     13  C   UNL     1       0.308   1.775  -4.570  0.00  0.00    +0.012 C 
ATOM     14  C   UNL     1       0.485   1.727  -3.051  0.00  0.00    +0.073 C 
ENDBRANCH   2  14
ENDBRANCH   1  10
BRANCH   1  15
ATOM     15  C   UNL     1       4.825  -0.970  -0.967  0.00  0.00    +0.116 C 
BRANCH  15  16
ATOM     16  C   UNL     1       4.835  -2.164  -0.011  0.00  0.00    +0.115 C 
BRANCH  16  17
ATOM     17  C   UNL     1       5.611  -1.806   1.230  0.00  0.00    +0.219 C 
ATOM     18  O   UNL     1       6.108  -0.705   1.339  0.00  0.00    -0.275 OA
ATOM     19  N   UNL     1       5.754  -2.710   2.220  0.00  0.00    -0.285 N 
ATOM     20  H   UNL     1       5.430  -3.617   2.099  0.00  0.00    +0.155 HD
BRANCH  19  21
ATOM     21  C   UNL     1       6.368  -2.341   3.422  0.00  0.00    +0.034 A 
ATOM     22  C   UNL     1       7.005  -3.299   4.200  0.00  0.00    +0.023 A 
ATOM     23  C   UNL     1       7.610  -2.932   5.386  0.00  0.00    +0.002 A 
ATOM     24  C   UNL     1       7.582  -1.612   5.799  0.00  0.00    +0.012 A 
ATOM     25  C   UNL     1       6.948  -0.656   5.026  0.00  0.00    +0.057 A 
ATOM     26  C   UNL     1       6.347  -1.016   3.836  0.00  0.00    +0.035 A 
BRANCH  25  27
ATOM     27  C   UNL     1       6.920   0.781   5.479  0.00  0.00    +0.417 C 
ATOM     28  F   UNL     1       7.594   0.898   6.699  0.00  0.00    -0.166 F 
ATOM     29  F   UNL     1       7.546   1.585   4.521  0.00  0.00    -0.166 F 
ATOM     30  F   UNL     1       5.592   1.193   5.639  0.00  0.00    -0.166 F 
ENDBRANCH  25  27
ENDBRANCH  19  21
ENDBRANCH  16  17
ENDBRANCH  15  16
ENDBRANCH   1  15
BRANCH   1  31
ATOM     31  C   UNL     1       4.757  -1.917  -3.320  0.00  0.00    +0.180 C 
BRANCH  31  32
ATOM     32  C   UNL     1       5.347  -0.828  -4.179  0.00  0.00    +0.122 A 
ATOM     33  C   UNL     1       6.582  -0.309  -4.052  0.00  0.00    +0.046 A 
ATOM     34  C   UNL     1       6.716   0.678  -5.055  0.00  0.00    +0.041 A 
ATOM     35  C   UNL     1       5.555   0.703  -5.735  0.00  0.00    +0.195 A 
ATOM     36  O   UNL     1       4.732  -0.215  -5.203  0.00  0.00    -0.466 OA
ENDBRANCH  31  32
ENDBRANCH   1  31
TORSDOF 9
