REMARK  Name = ZINC21983014
REMARK  3 active torsions:
REMARK  status: ('A' for Active; 'I' for Inactive)
REMARK    1  A    between atoms: C_8  and  C_21
REMARK    2  A    between atoms: N_10  and  C_12
REMARK    3  A    between atoms: C_17  and  C_18
REMARK                            x       y       z     vdW  Elec       q    Type
REMARK                         _______ _______ _______ _____ _____    ______ ____
ROOT
ATOM      1  C   UNL     1       8.183   3.735  -1.204  0.00  0.00    +0.000 A 
ATOM      2  C   UNL     1       7.633   3.289  -2.392  0.00  0.00    +0.000 A 
ATOM      3  C   UNL     1       6.397   2.676  -2.389  0.00  0.00    +0.005 A 
ATOM      4  C   UNL     1       5.702   2.504  -1.201  0.00  0.00    -0.027 A 
ATOM      5  C   UNL     1       6.249   2.951  -0.018  0.00  0.00    -0.040 A 
ATOM      6  C   UNL     1       7.492   3.565  -0.021  0.00  0.00    +0.004 A 
ATOM      7  C   UNL     1       5.529   2.791   1.297  0.00  0.00    +0.069 C 
ATOM      8  C   UNL     1       4.417   1.752   1.160  0.00  0.00    +0.191 C 
ATOM      9  N   UNL     1       3.605   2.088  -0.020  0.00  0.00    -0.311 N 
ATOM     10  C   UNL     1       4.360   1.821  -1.248  0.00  0.00    +0.141 C 
ENDROOT
BRANCH   9  11
ATOM     11  C   UNL     1       2.404   1.391  -0.013  0.00  0.00    +0.043 A 
ATOM     12  C   UNL     1       2.402   0.002  -0.021  0.00  0.00    +0.024 A 
ATOM     13  C   UNL     1       1.208  -0.688  -0.014  0.00  0.00    +0.002 A 
ATOM     14  C   UNL     1       0.002  -0.004   0.002  0.00  0.00    +0.001 A 
ATOM     15  C   UNL     1      -0.017   1.373   0.010  0.00  0.00    +0.015 A 
ATOM     16  C   UNL     1       1.185   2.087   0.002  0.00  0.00    +0.057 A 
BRANCH  16  17
ATOM     17  C   UNL     1       1.172   3.561   0.009  0.00  0.00    +0.243 C 
ATOM     18  O   UNL     1       2.220   4.178   0.003  0.00  0.00    -0.270 OA
ATOM     19  N   UNL     1      -0.001   4.225   0.024  0.00  0.00    -0.325 N 
ATOM     20  H   UNL     1      -0.010   5.325   0.029  0.00  0.00    +0.145 HD
ATOM     21  H   UNL     1      -0.949   3.667   0.030  0.00  0.00    +0.145 HD
ENDBRANCH  16  17
ENDBRANCH   9  11
BRANCH   8  22
ATOM     22  C   UNL     1       3.551   1.772   2.393  0.00  0.00    +0.376 C 
ATOM     23  O   UNL     1       2.376   2.040   2.302  0.00  0.00    -0.244 OA
ATOM     24  O   UNL     1       4.084   1.494   3.593  0.00  0.00    -0.244 OA
ENDBRANCH   8  22
TORSDOF 3
