REMARK  Name = ZINC04989938
REMARK  11 active torsions:
REMARK  status: ('A' for Active; 'I' for Inactive)
REMARK    1  A    between atoms: C_1  and  C_2
REMARK    2  A    between atoms: C_5  and  C_27
REMARK    3  A    between atoms: C_6  and  O_8
REMARK    4  A    between atoms: O_8  and  C_9
REMARK    5  A    between atoms: C_9  and  C_10
REMARK    6  A    between atoms: N_12  and  N_13
REMARK    7  A    between atoms: C_14  and  C_15
REMARK    8  A    between atoms: C_14  and  C_16
REMARK    9  A    between atoms: C_17  and  C_18
REMARK   10  A    between atoms: C_27  and  C_28
REMARK   11  A    between atoms: C_27  and  C_29
REMARK                            x       y       z     vdW  Elec       q    Type
REMARK                         _______ _______ _______ _____ _____    ______ ____
ROOT
ATOM      1  C   UNL     1      -1.187   1.624   0.017  0.00  0.00    +0.270 C 
ATOM      2  O   UNL     1      -1.204   2.837   0.023  0.00  0.00    -0.270 OA
ATOM      3  N   UNL     1      -0.011   0.966   0.007  0.00  0.00    -0.204 N 
ATOM      4  H   UNL     1       0.002  -0.004   0.002  0.00  0.00    +0.177 HD
ENDROOT
BRANCH   3   5
ATOM      5  N   UNL     1       1.193   1.683  -0.000  0.00  0.00    -0.185 NA
ATOM      6  C   UNL     1       2.329   1.047  -0.015  0.00  0.00    +0.056 C 
ATOM      7  C   UNL     1       2.350  -0.460  -0.023  0.00  0.00    +0.067 C 
BRANCH   6   8
ATOM      8  C   UNL     1       3.547   1.772  -0.022  0.00  0.00    +0.025 C 
ATOM      9  C   UNL     1       3.529   3.122  -0.015  0.00  0.00    +0.010 C 
BRANCH   9  10
ATOM     10  C   UNL     1       4.793   3.874  -0.023  0.00  0.00    -0.021 A 
ATOM     11  C   UNL     1       6.015   3.194  -0.038  0.00  0.00    +0.012 A 
ATOM     12  C   UNL     1       7.197   3.902  -0.046  0.00  0.00    +0.050 A 
ATOM     13  C   UNL     1       7.181   5.290  -0.038  0.00  0.00    +0.166 A 
ATOM     14  C   UNL     1       5.966   5.975  -0.023  0.00  0.00    +0.167 A 
ATOM     15  C   UNL     1       4.777   5.273  -0.021  0.00  0.00    +0.057 A 
ATOM     16  O   UNL     1       6.223   7.316  -0.018  0.00  0.00    -0.453 OA
ATOM     17  C   UNL     1       7.592   7.447  -0.444  0.00  0.00    +0.466 C 
ATOM     18  O   UNL     1       8.196   6.203  -0.043  0.00  0.00    -0.453 OA
ENDBRANCH   9  10
ENDBRANCH   6   8
ENDBRANCH   3   5
BRANCH   1  19
ATOM     19  C   UNL     1      -2.482   0.853   0.018  0.00  0.00    +0.326 C 
BRANCH  19  20
ATOM     20  O   UNL     1      -3.581   1.766   0.029  0.00  0.00    -0.482 OA
BRANCH  20  26
ATOM     21  C   UNL     1      -6.443  -2.187   0.020  0.00  0.00    +0.044 C 
ATOM     22  C   UNL     1      -6.264  -0.691   0.028  0.00  0.00    -0.047 A 
ATOM     23  C   UNL     1      -7.371   0.138   0.038  0.00  0.00    +0.004 A 
ATOM     24  C   UNL     1      -7.210   1.511   0.044  0.00  0.00    +0.008 A 
ATOM     25  C   UNL     1      -5.941   2.059   0.041  0.00  0.00    -0.003 A 
ATOM     26  C   UNL     1      -4.829   1.230   0.032  0.00  0.00    +0.125 A 
ATOM     27  C   UNL     1      -4.994  -0.148   0.019  0.00  0.00    +0.049 A 
BRANCH  25  28
ATOM     28  C   UNL     1      -5.766   3.555   0.049  0.00  0.00    +0.016 C 
ATOM     29  C   UNL     1      -6.429   4.153  -1.194  0.00  0.00    +0.012 C 
ATOM     30  C   UNL     1      -6.418   4.139   1.305  0.00  0.00    +0.012 C 
ENDBRANCH  25  28
ENDBRANCH  20  26
ENDBRANCH  19  20
ENDBRANCH   1  19
TORSDOF 7
