REMARK  Name = ZINC12378685
REMARK  3 active torsions:
REMARK  status: ('A' for Active; 'I' for Inactive)
REMARK    1  A    between atoms: C_1  and  C_13
REMARK    2  A    between atoms: C_2  and  C_3
REMARK    3  A    between atoms: C_14  and  C_15
REMARK                            x       y       z     vdW  Elec       q    Type
REMARK                         _______ _______ _______ _____ _____    ______ ____
ROOT
ATOM      1  C   UNL     1      -0.293   1.611   0.034  0.00  0.00    +0.000 C 
ATOM      2  C   UNL     1      -0.457   0.231  -0.007  0.00  0.00    +0.001 C 
ENDROOT
BRANCH   2   3
ATOM      3  C   UNL     1       0.648  -0.594  -0.087  0.00  0.00    +0.018 C 
ATOM      4  C   UNL     1       0.490  -1.991  -0.021  0.00  0.00    +0.099 C 
ATOM      5  C   UNL     1      -0.801  -2.579  -0.037  0.00  0.00    +0.255 C 
ATOM      6  O   UNL     1      -1.799  -1.879  -0.108  0.00  0.00    -0.270 OA
ATOM      7  N   UNL     1      -0.910  -3.926   0.028  0.00  0.00    -0.263 N 
ATOM      8  C   UNL     1       0.183  -4.704   0.107  0.00  0.00    +0.143 C 
ATOM      9  S   UNL     1      -0.010  -6.403   0.187  0.00  0.00    -0.018 S 
ATOM     10  N   UNL     1       1.422  -4.186   0.125  0.00  0.00    -0.263 N 
ATOM     11  C   UNL     1       1.618  -2.848   0.057  0.00  0.00    +0.255 C 
ATOM     12  O   UNL     1       2.748  -2.386   0.068  0.00  0.00    -0.270 OA
ATOM     13  H   UNL     1       2.188  -4.779   0.183  0.00  0.00    +0.157 HD
ATOM     14  H   UNL     1      -1.790  -4.336   0.018  0.00  0.00    +0.157 HD
ENDBRANCH   2   3
BRANCH   1  15
ATOM     15  C   UNL     1       0.983   2.161  -0.004  0.00  0.00    +0.001 C 
ATOM     16  C   UNL     1       1.146   3.532   0.038  0.00  0.00    +0.019 C 
BRANCH  16  17
ATOM     17  C   UNL     1       2.429   4.093  -0.106  0.00  0.00    +0.104 A 
ATOM     18  C   UNL     1       2.603   5.498  -0.195  0.00  0.00    +0.263 A 
ATOM     19  O   UNL     1       1.639   6.246  -0.148  0.00  0.00    -0.267 OA
ATOM     20  N   UNL     1       3.853   5.998  -0.332  0.00  0.00    -0.302 N 
ATOM     21  C   UNL     1       4.920   5.182  -0.384  0.00  0.00    +0.161 A 
ATOM     22  S   UNL     1       6.480   5.864  -0.559  0.00  0.00    -0.013 S 
ATOM     23  N   UNL     1       4.797   3.847  -0.303  0.00  0.00    -0.302 N 
ATOM     24  C   UNL     1       3.582   3.268  -0.158  0.00  0.00    +0.263 A 
ATOM     25  O   UNL     1       3.479   2.054  -0.080  0.00  0.00    -0.267 OA
ATOM     26  H   UNL     1       5.590   3.290  -0.344  0.00  0.00    +0.171 HD
ATOM     27  H   UNL     1       3.981   6.957  -0.394  0.00  0.00    +0.171 HD
ENDBRANCH  16  17
ENDBRANCH   1  15
TORSDOF 3
