REMARK  Name = ZINC36506083
REMARK  15 active torsions:
REMARK  status: ('A' for Active; 'I' for Inactive)
REMARK    1  A    between atoms: C_1  and  C_2
REMARK    2  A    between atoms: C_2  and  C_3
REMARK    3  A    between atoms: C_2  and  C_4
REMARK    4  A    between atoms: C_2  and  C_5
REMARK    5  A    between atoms: C_5  and  C_6
REMARK    6  A    between atoms: C_6  and  C_7
REMARK    7  A    between atoms: C_6  and  C_8
REMARK    8  A    between atoms: C_6  and  N_9
REMARK    9  A    between atoms: C_10  and  C_12
REMARK   10  A    between atoms: C_12  and  C_14
REMARK   11  A    between atoms: C_12  and  N_23
REMARK   12  A    between atoms: C_17  and  N_20
REMARK   13  A    between atoms: N_23  and  C_24
REMARK   14  A    between atoms: C_24  and  C_25
REMARK   15  A    between atoms: C_30  and  C_32
REMARK                            x       y       z     vdW  Elec       q    Type
REMARK                         _______ _______ _______ _____ _____    ______ ____
ROOT
ATOM      1  C   UNL     1       5.681  -1.221  -3.438  0.00  0.00    +0.193 C 
ENDROOT
BRANCH   1   2
ATOM      2  C   UNL     1       4.784  -0.703  -4.533  0.00  0.00    -0.018 A 
ATOM      3  C   UNL     1       4.598   0.658  -4.688  0.00  0.00    +0.008 A 
ATOM      4  C   UNL     1       3.775   1.133  -5.692  0.00  0.00    +0.033 A 
ATOM      5  C   UNL     1       3.139   0.248  -6.542  0.00  0.00    +0.126 A 
ATOM      6  C   UNL     1       3.326  -1.113  -6.388  0.00  0.00    +0.033 A 
ATOM      7  C   UNL     1       4.152  -1.589  -5.386  0.00  0.00    +0.008 A 
BRANCH   5   8
ATOM      8  N   UNL     1       2.258   0.757  -7.616  0.00  0.00    +0.056 N 
ATOM      9  O   UNL     1       2.094   1.947  -7.751  0.00  0.00    -0.126 OA
ATOM     10  O   UNL     1       1.701  -0.018  -8.360  0.00  0.00    -0.126 OA
ENDBRANCH   5   8
ENDBRANCH   1   2
BRANCH   1  12
ATOM     11  N   UNL     1       3.830  -2.253  -2.161  0.00  0.00    -0.308 N 
ATOM     12  C   UNL     1       4.878  -1.405  -2.176  0.00  0.00    +0.239 C 
ATOM     13  O   UNL     1       5.175  -0.790  -1.174  0.00  0.00    -0.273 OA
ATOM     14  H   UNL     1       3.593  -2.745  -2.963  0.00  0.00    +0.149 HD
BRANCH  11  15
ATOM     15  C   UNL     1       3.050  -2.431  -0.934  0.00  0.00    +0.030 C 
ATOM     16  C   UNL     1       2.615  -1.064  -0.403  0.00  0.00    +0.031 C 
ATOM     17  C   UNL     1       3.908  -3.137   0.118  0.00  0.00    +0.031 C 
BRANCH  15  18
ATOM     18  C   UNL     1       1.813  -3.279  -1.236  0.00  0.00    +0.031 C 
BRANCH  18  20
ATOM     19  C   UNL     1       1.796  -3.009  -3.719  0.00  0.00    +0.010 C 
ATOM     20  C   UNL     1       1.058  -2.676  -2.421  0.00  0.00    -0.036 C 
ATOM     21  C   UNL     1       0.978  -1.157  -2.256  0.00  0.00    +0.010 C 
ATOM     22  C   UNL     1      -0.356  -3.258  -2.475  0.00  0.00    +0.010 C 
ENDBRANCH  18  20
ENDBRANCH  15  18
ENDBRANCH  11  15
ENDBRANCH   1  12
BRANCH   1  23
ATOM     23  N   UNL     1       6.760  -0.261  -3.196  0.00  0.00    -0.275 N 
ATOM     24  C   UNL     1       7.708  -0.061  -4.133  0.00  0.00    +0.249 C 
ATOM     25  O   UNL     1       8.615   0.720  -3.922  0.00  0.00    -0.270 OA
BRANCH  24  26
ATOM     26  C   UNL     1       7.644  -0.792  -5.415  0.00  0.00    +0.055 A 
ATOM     27  C   UNL     1       6.604  -1.690  -5.660  0.00  0.00    +0.014 A 
ATOM     28  C   UNL     1       6.550  -2.369  -6.859  0.00  0.00    +0.001 A 
ATOM     29  C   UNL     1       7.524  -2.161  -7.821  0.00  0.00    +0.001 A 
ATOM     30  C   UNL     1       8.558  -1.273  -7.586  0.00  0.00    +0.021 A 
ATOM     31  C   UNL     1       8.621  -0.582  -6.392  0.00  0.00    +0.053 A 
ATOM     32 CL   UNL     1       9.915   0.538  -6.102  0.00  0.00    -0.083 Cl
ENDBRANCH  24  26
BRANCH  23  33
ATOM     33  C   UNL     1       6.809   0.482  -1.934  0.00  0.00    +0.183 C 
BRANCH  33  34
ATOM     34  C   UNL     1       7.395  -0.393  -0.857  0.00  0.00    +0.122 A 
ATOM     35  C   UNL     1       8.686  -0.417  -0.479  0.00  0.00    +0.046 A 
ATOM     36  C   UNL     1       8.793  -1.376   0.554  0.00  0.00    +0.041 A 
ATOM     37  C   UNL     1       7.561  -1.882   0.745  0.00  0.00    +0.195 A 
ATOM     38  O   UNL     1       6.717  -1.278  -0.109  0.00  0.00    -0.466 OA
ENDBRANCH  33  34
ENDBRANCH  23  33
ENDBRANCH   1  23
TORSDOF 10
