REMARK  Name = ZINC36638102
REMARK  17 active torsions:
REMARK  status: ('A' for Active; 'I' for Inactive)
REMARK    1  A    between atoms: C_1  and  C_2
REMARK    2  A    between atoms: C_2  and  N_3
REMARK    3  A    between atoms: N_3  and  C_4
REMARK    4  A    between atoms: N_3  and  C_6
REMARK    5  A    between atoms: C_4  and  C_5
REMARK    6  A    between atoms: C_6  and  C_7
REMARK    7  A    between atoms: C_7  and  N_8
REMARK    8  A    between atoms: C_21  and  C_23
REMARK    9  A    between atoms: C_25  and  O_35
REMARK   10  A    between atoms: C_26  and  O_32
REMARK   11  A    between atoms: C_27  and  O_29
REMARK   12  A    between atoms: O_29  and  C_30
REMARK   13  A    between atoms: C_30  and  C_31
REMARK   14  A    between atoms: O_32  and  C_33
REMARK   15  A    between atoms: C_33  and  C_34
REMARK   16  A    between atoms: O_35  and  C_36
REMARK   17  A    between atoms: C_36  and  C_37
REMARK                            x       y       z     vdW  Elec       q    Type
REMARK                         _______ _______ _______ _____ _____    ______ ____
ROOT
ATOM      1  N   UNL     1      -0.912  -3.272  -0.508  0.00  0.00    -0.248 N 
ATOM      2  C   UNL     1      -0.915  -3.956   0.697  0.00  0.00    +0.168 A 
ATOM      3  N   UNL     1      -0.121  -3.806   1.731  0.00  0.00    -0.224 NA
ATOM      4  C   UNL     1      -0.241  -4.549   2.853  0.00  0.00    +0.084 A 
ATOM      5  C   UNL     1       0.545  -4.486   4.028  0.00  0.00    +0.078 A 
ATOM      6  C   UNL     1       0.293  -5.319   5.093  0.00  0.00    +0.168 A 
ATOM      7  C   UNL     1      -0.747  -6.251   5.045  0.00  0.00    +0.167 A 
ATOM      8  C   UNL     1      -1.533  -6.336   3.909  0.00  0.00    +0.066 A 
ATOM      9  C   UNL     1      -1.282  -5.504   2.846  0.00  0.00    +0.044 A 
ATOM     10  S   UNL     1      -2.008  -5.261   1.242  0.00  0.00    -0.052 S 
ATOM     11  O   UNL     1      -0.774  -6.941   6.221  0.00  0.00    -0.453 OA
ATOM     12  C   UNL     1       0.509  -6.710   6.831  0.00  0.00    +0.466 C 
ATOM     13  O   UNL     1       0.913  -5.431   6.308  0.00  0.00    -0.453 OA
ATOM     14  C   UNL     1      -1.824  -3.571  -1.454  0.00  0.00    +0.252 C 
ATOM     15  O   UNL     1      -2.704  -4.375  -1.218  0.00  0.00    -0.270 OA
ENDROOT
BRANCH  14  16
ATOM     16  C   UNL     1      -1.754  -2.921  -2.777  0.00  0.00    +0.044 A 
ATOM     17  C   UNL     1      -1.597  -3.694  -3.930  0.00  0.00    +0.062 A 
ATOM     18  C   UNL     1      -1.532  -3.083  -5.168  0.00  0.00    +0.166 A 
ATOM     19  C   UNL     1      -1.623  -1.697  -5.266  0.00  0.00    +0.204 A 
ATOM     20  C   UNL     1      -1.779  -0.923  -4.119  0.00  0.00    +0.166 A 
ATOM     21  C   UNL     1      -1.851  -1.530  -2.880  0.00  0.00    +0.062 A 
BRANCH  20  22
ATOM     22  O   UNL     1      -1.868   0.430  -4.220  0.00  0.00    -0.488 OA
BRANCH  22  23
ATOM     23  C   UNL     1      -2.028   1.161  -3.002  0.00  0.00    +0.226 C 
ATOM     24  C   UNL     1      -2.108   2.657  -3.313  0.00  0.00    +0.048 C 
ENDBRANCH  22  23
ENDBRANCH  20  22
BRANCH  19  25
ATOM     25  O   UNL     1      -1.558  -1.098  -6.485  0.00  0.00    -0.485 OA
BRANCH  25  26
ATOM     26  C   UNL     1      -2.792  -0.903  -7.178  0.00  0.00    +0.226 C 
ATOM     27  C   UNL     1      -2.520  -0.221  -8.520  0.00  0.00    +0.048 C 
ENDBRANCH  25  26
ENDBRANCH  19  25
BRANCH  18  28
ATOM     28  O   UNL     1      -1.378  -3.835  -6.290  0.00  0.00    -0.488 OA
BRANCH  28  29
ATOM     29  C   UNL     1      -1.402  -5.255  -6.128  0.00  0.00    +0.226 C 
ATOM     30  C   UNL     1      -1.120  -5.927  -7.473  0.00  0.00    +0.048 C 
ENDBRANCH  28  29
ENDBRANCH  18  28
ENDBRANCH  14  16
BRANCH   1  31
ATOM     31  C   UNL     1       0.083  -2.226  -0.753  0.00  0.00    +0.097 C 
BRANCH  31  32
ATOM     32  C   UNL     1       1.268  -2.818  -1.519  0.00  0.00    -0.059 C 
BRANCH  32  33
ATOM     33  N   UNL     1       2.292  -1.783  -1.714  0.00  0.00    +0.380 N 
ATOM     34  H   UNL     1       1.869  -0.964  -2.124  0.00  0.00    -0.082 HD
BRANCH  33  36
ATOM     35  C   UNL     1       3.910  -0.312  -0.613  0.00  0.00    -0.017 C 
ATOM     36  C   UNL     1       2.885  -1.430  -0.417  0.00  0.00    -0.082 C 
ENDBRANCH  33  36
BRANCH  33  37
ATOM     37  C   UNL     1       3.340  -2.293  -2.609  0.00  0.00    -0.082 C 
ATOM     38  C   UNL     1       2.736  -2.592  -3.983  0.00  0.00    -0.017 C 
ENDBRANCH  33  37
ENDBRANCH  32  33
ENDBRANCH  31  32
ENDBRANCH   1  31
TORSDOF 12
