REMARK  Name = ZINC58265441
REMARK  8 active torsions:
REMARK  status: ('A' for Active; 'I' for Inactive)
REMARK    1  A    between atoms: C_1  and  C_2
REMARK    2  A    between atoms: C_7  and  N_8
REMARK    3  A    between atoms: C_9  and  C_11
REMARK    4  A    between atoms: C_11  and  C_13
REMARK    5  A    between atoms: C_11  and  N_17
REMARK    6  A    between atoms: C_13  and  C_14
REMARK    7  A    between atoms: C_14  and  S_15
REMARK    8  A    between atoms: S_15  and  C_16
REMARK                            x       y       z     vdW  Elec       q    Type
REMARK                         _______ _______ _______ _____ _____    ______ ____
ROOT
ATOM      1  N   UNL     1       0.025  -0.014   2.417  0.00  0.00    -0.284 N 
ATOM      2  C   UNL     1      -0.056  -0.693   3.578  0.00  0.00    +0.238 C 
ATOM      3  O   UNL     1      -0.040  -1.906   3.574  0.00  0.00    -0.273 OA
ATOM      4  H   UNL     1       0.078   0.955   2.424  0.00  0.00    +0.155 HD
ENDROOT
BRANCH   1  11
ATOM      5  C   UNL     1      -1.264   1.183   0.181  0.00  0.00    +0.045 C 
ATOM      6  C   UNL     1      -0.584  -0.158   0.084  0.00  0.00    -0.029 A 
ATOM      7  C   UNL     1      -0.569  -0.840  -1.117  0.00  0.00    +0.006 A 
ATOM      8  C   UNL     1       0.054  -2.070  -1.207  0.00  0.00    +0.020 A 
ATOM      9  C   UNL     1       0.667  -2.622  -0.095  0.00  0.00    +0.043 A 
ATOM     10  C   UNL     1       0.655  -1.944   1.109  0.00  0.00    +0.043 A 
ATOM     11  C   UNL     1       0.034  -0.706   1.201  0.00  0.00    +0.038 A 
ATOM     12 CL   UNL     1       1.449  -4.168  -0.213  0.00  0.00    -0.083 Cl
ENDBRANCH   1  11
BRANCH   2  13
ATOM     13  C   UNL     1      -0.168   0.054   4.882  0.00  0.00    +0.161 C 
BRANCH  13  14
ATOM     14  N   UNL     1       0.232  -0.825   5.984  0.00  0.00    -0.288 N 
ATOM     15  C   UNL     1      -0.439  -1.972   6.208  0.00  0.00    +0.298 C 
ATOM     16  O   UNL     1      -1.375  -2.278   5.496  0.00  0.00    -0.253 OA
ATOM     17  N   UNL     1      -0.071  -2.781   7.222  0.00  0.00    -0.313 N 
ATOM     18  H   UNL     1       0.979  -0.581   6.553  0.00  0.00    +0.151 HD
ATOM     19  H   UNL     1       0.676  -2.537   7.790  0.00  0.00    +0.146 HD
ATOM     20  H   UNL     1      -0.553  -3.607   7.383  0.00  0.00    +0.146 HD
ENDBRANCH  13  14
BRANCH  13  21
ATOM     21  C   UNL     1      -1.615   0.506   5.089  0.00  0.00    +0.042 C 
BRANCH  21  22
ATOM     22  C   UNL     1      -1.704   1.370   6.348  0.00  0.00    +0.071 C 
BRANCH  22  23
ATOM     23  S   UNL     1      -3.420   1.905   6.594  0.00  0.00    -0.164 S 
ATOM     24  C   UNL     1      -3.355   2.906   8.106  0.00  0.00    +0.084 C 
ENDBRANCH  22  23
ENDBRANCH  21  22
ENDBRANCH  13  21
ENDBRANCH   2  13
TORSDOF 6
