REMARK  Name = ZINC46341294
REMARK  9 active torsions:
REMARK  status: ('A' for Active; 'I' for Inactive)
REMARK    1  A    between atoms: C_1  and  C_2
REMARK    2  A    between atoms: C_7  and  N_8
REMARK    3  A    between atoms: N_11  and  N_12
REMARK    4  A    between atoms: N_15  and  C_16
REMARK    5  A    between atoms: C_16  and  C_17
REMARK    6  A    between atoms: C_17  and  C_19
REMARK    7  A    between atoms: C_17  and  N_20
REMARK    8  A    between atoms: N_20  and  C_21
REMARK    9  A    between atoms: N_20  and  C_22
REMARK                            x       y       z     vdW  Elec       q    Type
REMARK                         _______ _______ _______ _____ _____    ______ ____
ROOT
ATOM      1  N   UNL     1      -0.165   1.376   4.749  0.00  0.00    -0.217 N 
ATOM      2  C   UNL     1      -0.266   2.044   5.915  0.00  0.00    +0.316 C 
ATOM      3  O   UNL     1      -0.282   3.259   5.921  0.00  0.00    -0.251 OA
ATOM      4  N   UNL     1      -0.350   1.364   7.076  0.00  0.00    -0.296 N 
ATOM      5  H   UNL     1      -0.105   1.865   3.914  0.00  0.00    +0.174 HD
ATOM      6  H   UNL     1      -0.337   0.394   7.072  0.00  0.00    +0.150 HD
ENDROOT
BRANCH   1  10
ATOM      7  N   UNL     1       0.037  -0.013   2.416  0.00  0.00    -0.268 N 
ATOM      8  C   UNL     1      -0.046  -0.693   3.577  0.00  0.00    +0.320 C 
ATOM      9  O   UNL     1      -0.031  -1.909   3.572  0.00  0.00    -0.251 OA
ATOM     10  N   UNL     1      -0.147  -0.025   4.743  0.00  0.00    -0.217 N 
ATOM     11  H   UNL     1       0.091   0.956   2.424  0.00  0.00    +0.156 HD
ATOM     12  H   UNL     1      -0.207  -0.514   5.579  0.00  0.00    +0.174 HD
BRANCH   7  19
ATOM     13  C   UNL     1      -1.249   1.186   0.179  0.00  0.00    +0.045 C 
ATOM     14  C   UNL     1      -0.569  -0.155   0.083  0.00  0.00    -0.029 A 
ATOM     15  C   UNL     1      -0.552  -0.837  -1.119  0.00  0.00    +0.005 A 
ATOM     16  C   UNL     1       0.071  -2.068  -1.208  0.00  0.00    +0.000 A 
ATOM     17  C   UNL     1       0.680  -2.620  -0.096  0.00  0.00    +0.002 A 
ATOM     18  C   UNL     1       0.667  -1.943   1.108  0.00  0.00    +0.023 A 
ATOM     19  C   UNL     1       0.047  -0.704   1.199  0.00  0.00    +0.038 A 
ENDBRANCH   7  19
ENDBRANCH   1  10
BRANCH   4  20
ATOM     20  C   UNL     1      -0.459   2.089   8.344  0.00  0.00    +0.127 C 
BRANCH  20  21
ATOM     21  C   UNL     1      -0.538   1.089   9.499  0.00  0.00    +0.087 C 
ATOM     22  C   UNL     1      -0.527   1.845  10.830  0.00  0.00    +0.029 C 
BRANCH  21  23
ATOM     23  N   UNL     1       0.613   0.185   9.441  0.00  0.00    -0.329 N 
ATOM     24  C   UNL     1       1.966   0.708   9.640  0.00  0.00    +0.129 C 
BRANCH  23  25
ATOM     25  C   UNL     1       0.419  -1.177   9.197  0.00  0.00    +0.030 A 
ATOM     26  C   UNL     1       1.513  -2.019   9.043  0.00  0.00    +0.023 A 
ATOM     27  C   UNL     1       1.319  -3.364   8.801  0.00  0.00    +0.002 A 
ATOM     28  C   UNL     1       0.036  -3.874   8.712  0.00  0.00    +0.000 A 
ATOM     29  C   UNL     1      -1.055  -3.039   8.865  0.00  0.00    +0.002 A 
ATOM     30  C   UNL     1      -0.868  -1.693   9.113  0.00  0.00    +0.023 A 
ENDBRANCH  23  25
ENDBRANCH  21  23
ENDBRANCH  20  21
ENDBRANCH   4  20
TORSDOF 6
