REMARK  Name = ZINC12530431
REMARK  7 active torsions:
REMARK  status: ('A' for Active; 'I' for Inactive)
REMARK    1  A    between atoms: C_4  and  C_7
REMARK    2  A    between atoms: N_9  and  C_10
REMARK    3  A    between atoms: C_19  and  C_22
REMARK    4  A    between atoms: C_22  and  C_23
REMARK    5  A    between atoms: C_23  and  C_24
REMARK    6  A    between atoms: N_26  and  C_27
REMARK    7  A    between atoms: C_27  and  C_28
REMARK                            x       y       z     vdW  Elec       q    Type
REMARK                         _______ _______ _______ _____ _____    ______ ____
ROOT
ATOM      1  C   UNL     1      -0.833   1.342   1.187  0.00  0.00    +0.056 C 
ATOM      2  C   UNL     1      -0.045   0.869  -0.068  0.00  0.00    +0.014 C 
ATOM      3  C   UNL     1      -0.842   1.524  -1.206  0.00  0.00    +0.021 C 
ATOM      4  C   UNL     1      -0.714   0.851  -2.535  0.00  0.00    +0.200 C 
ATOM      5  O   UNL     1       0.342   0.359  -2.873  0.00  0.00    -0.278 OA
ATOM      6  N   UNL     1      -1.783   0.796  -3.351  0.00  0.00    -0.318 N 
ATOM      7  C   UNL     1      -3.124   1.240  -2.993  0.00  0.00    +0.089 C 
ATOM      8  C   UNL     1      -3.141   2.013  -1.666  0.00  0.00    -0.050 C 
ATOM      9  C   UNL     1      -2.249   1.693   0.660  0.00  0.00    -0.055 C 
ATOM     10  H   UNL     1      -1.651   0.436  -4.242  0.00  0.00    +0.149 HD
ATOM     11  N   UNL     1      -2.189   1.280  -0.755  0.00  0.00    +0.391 N 
ATOM     12  H   UNL     1      -2.398   0.276  -0.811  0.00  0.00    -0.080 HD
ENDROOT
BRANCH   1  15
ATOM     13  C   UNL     1      -1.075   0.556   3.481  0.00  0.00    +0.244 C 
ATOM     14  O   UNL     1      -1.161   1.715   3.838  0.00  0.00    -0.270 OA
ATOM     15  N   UNL     1      -0.910   0.263   2.176  0.00  0.00    -0.310 N 
ATOM     16  H   UNL     1      -0.841  -0.662   1.891  0.00  0.00    +0.149 HD
BRANCH  13  20
ATOM     17  C   UNL     1      -1.299  -2.571   6.347  0.00  0.00    +0.000 A 
ATOM     18  C   UNL     1      -1.397  -1.253   6.757  0.00  0.00    +0.001 A 
ATOM     19  C   UNL     1      -1.325  -0.233   5.831  0.00  0.00    +0.013 A 
ATOM     20  C   UNL     1      -1.153  -0.532   4.479  0.00  0.00    +0.037 A 
ATOM     21  C   UNL     1      -1.060  -1.864   4.072  0.00  0.00    +0.013 A 
ATOM     22  C   UNL     1      -1.128  -2.875   5.008  0.00  0.00    +0.001 A 
ENDBRANCH  13  20
ENDBRANCH   1  15
BRANCH   8  23
ATOM     23  C   UNL     1      -4.559   2.027  -1.091  0.00  0.00    -0.005 C 
BRANCH  23  24
ATOM     24  C   UNL     1      -5.466   2.865  -1.993  0.00  0.00    +0.094 C 
BRANCH  24  25
ATOM     25  C   UNL     1      -6.831   2.981  -1.364  0.00  0.00    +0.213 C 
ATOM     26  O   UNL     1      -7.056   2.445  -0.299  0.00  0.00    -0.276 OA
ATOM     27  N   UNL     1      -7.803   3.679  -1.985  0.00  0.00    -0.311 N 
ATOM     28  H   UNL     1      -7.623   4.108  -2.836  0.00  0.00    +0.149 HD
BRANCH  27  29
ATOM     29  C   UNL     1      -9.129   3.791  -1.374  0.00  0.00    +0.139 C 
BRANCH  29  30
ATOM     30  C   UNL     1     -10.023   4.617  -2.262  0.00  0.00    -0.030 A 
ATOM     31  C   UNL     1     -10.090   5.987  -2.093  0.00  0.00    +0.008 A 
ATOM     32  C   UNL     1     -10.905   6.746  -2.911  0.00  0.00    +0.038 A 
ATOM     33  C   UNL     1     -11.665   6.133  -3.893  0.00  0.00    +0.123 A 
ATOM     34  C   UNL     1     -11.601   4.759  -4.058  0.00  0.00    +0.038 A 
ATOM     35  C   UNL     1     -10.781   4.003  -3.243  0.00  0.00    +0.008 A 
ATOM     36  F   UNL     1     -12.467   6.873  -4.688  0.00  0.00    -0.205 F 
ENDBRANCH  29  30
ENDBRANCH  27  29
ENDBRANCH  24  25
ENDBRANCH  23  24
ENDBRANCH   8  23
TORSDOF 7
