REMARK  Name = ZINC00330646
REMARK  2 active torsions:
REMARK  status: ('A' for Active; 'I' for Inactive)
REMARK    1  A    between atoms: C_1  and  C_2
REMARK    2  A    between atoms: N_7  and  C_8
REMARK                            x       y       z     vdW  Elec       q    Type
REMARK                         _______ _______ _______ _____ _____    ______ ____
ROOT
ATOM      1  C   UNL     1      -2.850   1.534  -0.048  0.00  0.00    +0.064 C 
ATOM      2  C   UNL     1      -2.043   1.775   1.202  0.00  0.00    +0.023 A 
ATOM      3  C   UNL     1      -2.632   2.200   2.323  0.00  0.00    +0.068 A 
ATOM      4  S   UNL     1      -1.246   2.317   3.441  0.00  0.00    -0.070 S 
ATOM      5  C   UNL     1      -0.003   1.790   2.350  0.00  0.00    +0.126 A 
ATOM      6  S   UNL     1       1.674   1.609   2.639  0.00  0.00    -0.025 S 
ATOM      7  N   UNL     1      -0.698   1.558   1.213  0.00  0.00    -0.336 N 
ATOM      8  C   UNL     1      -0.013   1.086   0.008  0.00  0.00    +0.150 C 
ENDROOT
TORSDOF 0
