REMARK  Name = ZINC45047501
REMARK  4 active torsions:
REMARK  status: ('A' for Active; 'I' for Inactive)
REMARK    1  A    between atoms: C_1  and  C_2
REMARK    2  A    between atoms: C_2  and  N_8
REMARK    3  A    between atoms: C_13  and  O_21
REMARK    4  A    between atoms: C_16  and  C_18
REMARK                            x       y       z     vdW  Elec       q    Type
REMARK                         _______ _______ _______ _____ _____    ______ ____
ROOT
ATOM      1  N   UNL     1      -1.372  -0.511   0.012  0.00  0.00    -0.294 N 
ATOM      2  C   UNL     1      -2.216  -0.192  -0.989  0.00  0.00    +0.303 C 
ATOM      3  O   UNL     1      -1.837   0.518  -1.901  0.00  0.00    -0.253 OA
ATOM      4  N   UNL     1      -3.481  -0.658  -0.979  0.00  0.00    -0.269 N 
ATOM      5  C   UNL     1      -4.071  -1.518   0.063  0.00  0.00    +0.141 C 
ATOM      6  C   UNL     1      -5.596  -1.262  -0.029  0.00  0.00    +0.134 C 
ATOM      7  C   UNL     1      -5.794  -1.106  -1.561  0.00  0.00    +0.067 C 
ATOM      8  C   UNL     1      -4.501  -0.389  -2.003  0.00  0.00    +0.193 C 
ATOM      9  H   UNL     1      -1.675  -1.077   0.740  0.00  0.00    +0.151 HD
ENDROOT
BRANCH   1  11
ATOM     10  C   UNL     1      -0.019   1.526   0.010  0.00  0.00    +0.031 C 
ATOM     11  C   UNL     1       0.002  -0.004   0.002  0.00  0.00    +0.033 C 
ATOM     12  C   UNL     1       0.718  -0.497  -1.257  0.00  0.00    +0.025 C 
ATOM     13  C   UNL     1       0.739  -2.027  -1.265  0.00  0.00    +0.002 C 
ATOM     14  C   UNL     1       1.479  -2.534  -0.026  0.00  0.00    +0.000 C 
ATOM     15  C   UNL     1       0.763  -2.041   1.233  0.00  0.00    +0.002 C 
ATOM     16  C   UNL     1       0.742  -0.511   1.242  0.00  0.00    +0.025 C 
ENDBRANCH   1  11
BRANCH   8  17
ATOM     17  C   UNL     1      -4.047  -0.930  -3.334  0.00  0.00    +0.376 C 
ATOM     18  O   UNL     1      -3.048  -1.626  -3.400  0.00  0.00    -0.244 OA
ATOM     19  O   UNL     1      -4.679  -0.673  -4.344  0.00  0.00    -0.244 OA
ENDBRANCH   8  17
BRANCH   6  20
ATOM     20  O   UNL     1      -5.957  -0.062   0.659  0.00  0.00    -0.390 OA
ATOM     21  H   UNL     1      -5.760  -0.078   1.605  0.00  0.00    +0.210 HD
ENDBRANCH   6  20
TORSDOF 3
