REMARK  Name = ZINC09228165
REMARK  9 active torsions:
REMARK  status: ('A' for Active; 'I' for Inactive)
REMARK    1  A    between atoms: C_1  and  C_2
REMARK    2  A    between atoms: C_2  and  C_3
REMARK    3  A    between atoms: C_6  and  C_9
REMARK    4  A    between atoms: C_11  and  C_26
REMARK    5  A    between atoms: C_13  and  C_19
REMARK    6  A    between atoms: C_22  and  C_25
REMARK    7  A    between atoms: N_28  and  C_29
REMARK    8  A    between atoms: C_29  and  C_30
REMARK    9  A    between atoms: C_33  and  C_36
REMARK                            x       y       z     vdW  Elec       q    Type
REMARK                         _______ _______ _______ _____ _____    ______ ____
ROOT
ATOM      1  C   UNL     1       2.549  -0.205  -5.800  0.00  0.00    +0.102 A 
ATOM      2  C   UNL     1       3.937  -0.655  -5.707  0.00  0.00    +0.058 A 
ATOM      3  C   UNL     1       4.960  -0.491  -4.750  0.00  0.00    +0.051 A 
ATOM      4  C   UNL     1       6.194  -1.080  -5.007  0.00  0.00    +0.042 A 
ATOM      5  C   UNL     1       6.370  -1.804  -6.190  0.00  0.00    +0.074 A 
ATOM      6  N   UNL     1       5.391  -1.940  -7.068  0.00  0.00    -0.228 NA
ATOM      7  C   UNL     1       4.196  -1.400  -6.875  0.00  0.00    +0.158 A 
ATOM      8  N   UNL     1       3.039  -1.392  -7.611  0.00  0.00    -0.260 N 
ATOM      9  N   UNL     1       2.060  -0.664  -6.928  0.00  0.00    -0.171 NA
ATOM     10  H   UNL     1       2.918  -1.827  -8.469  0.00  0.00    +0.191 HD
ENDROOT
BRANCH   5  11
ATOM     11  C   UNL     1       7.684  -2.433  -6.466  0.00  0.00    +0.000 A 
ATOM     12  C   UNL     1       8.727  -2.305  -5.550  0.00  0.00    +0.010 A 
ATOM     13  C   UNL     1       9.948  -2.893  -5.812  0.00  0.00    +0.004 A 
ATOM     14  C   UNL     1      10.138  -3.607  -6.981  0.00  0.00    -0.050 A 
ATOM     15  C   UNL     1       9.106  -3.737  -7.894  0.00  0.00    +0.004 A 
ATOM     16  C   UNL     1       7.880  -3.158  -7.640  0.00  0.00    +0.010 A 
ATOM     17  C   UNL     1      11.473  -4.247  -7.262  0.00  0.00    +0.044 C 
ENDBRANCH   5  11
BRANCH   1  21
ATOM     18  C   UNL     1       0.471   2.146  -2.931  0.00  0.00    -0.048 A 
ATOM     19  C   UNL     1      -0.136   1.029  -3.477  0.00  0.00    +0.004 A 
ATOM     20  C   UNL     1       0.533   0.262  -4.409  0.00  0.00    +0.010 A 
ATOM     21  C   UNL     1       1.824   0.615  -4.800  0.00  0.00    +0.003 A 
ATOM     22  C   UNL     1       2.431   1.742  -4.247  0.00  0.00    +0.010 A 
ATOM     23  C   UNL     1       1.750   2.504  -3.320  0.00  0.00    +0.004 A 
BRANCH  18  25
ATOM     24  C   UNL     1      -1.063   4.070  -2.631  0.00  0.00    +0.009 C 
ATOM     25  C   UNL     1      -0.266   2.979  -1.914  0.00  0.00    +0.032 C 
ENDBRANCH  18  25
ENDBRANCH   1  21
BRANCH   3  26
ATOM     26  C   UNL     1       4.728   0.284  -3.511  0.00  0.00    +0.245 C 
ATOM     27  O   UNL     1       3.746   0.062  -2.830  0.00  0.00    -0.270 OA
ATOM     28  N   UNL     1       5.605   1.237  -3.139  0.00  0.00    -0.307 N 
ATOM     29  H   UNL     1       6.389   1.414  -3.682  0.00  0.00    +0.149 HD
BRANCH  28  30
ATOM     30  C   UNL     1       5.376   2.005  -1.912  0.00  0.00    +0.139 C 
BRANCH  30  31
ATOM     31  C   UNL     1       6.494   2.998  -1.724  0.00  0.00    -0.030 A 
ATOM     32  C   UNL     1       7.627   2.638  -1.018  0.00  0.00    +0.005 A 
ATOM     33  C   UNL     1       8.652   3.548  -0.846  0.00  0.00    +0.003 A 
ATOM     34  C   UNL     1       8.545   4.819  -1.380  0.00  0.00    -0.050 A 
ATOM     35  C   UNL     1       7.413   5.178  -2.087  0.00  0.00    +0.003 A 
ATOM     36  C   UNL     1       6.389   4.266  -2.263  0.00  0.00    +0.005 A 
ATOM     37  C   UNL     1       9.663   5.812  -1.191  0.00  0.00    +0.044 C 
ENDBRANCH  30  31
ENDBRANCH  28  30
ENDBRANCH   3  26
TORSDOF 6
