REMARK  Name = ZINC35263862
REMARK  14 active torsions:
REMARK  status: ('A' for Active; 'I' for Inactive)
REMARK    1  A    between atoms: C_1  and  C_2
REMARK    2  A    between atoms: C_3  and  C_31
REMARK    3  A    between atoms: C_4  and  C_19
REMARK    4  A    between atoms: C_10  and  C_11
REMARK    5  A    between atoms: C_22  and  O_27
REMARK    6  A    between atoms: C_23  and  O_25
REMARK    7  A    between atoms: O_25  and  C_26
REMARK    8  A    between atoms: O_27  and  C_28
REMARK    9  A    between atoms: C_28  and  C_29
REMARK   10  A    between atoms: C_31  and  O_33
REMARK   11  A    between atoms: O_33  and  C_34
REMARK   12  A    between atoms: C_34  and  C_35
REMARK   13  A    between atoms: C_35  and  C_36
REMARK   14  A    between atoms: C_35  and  C_37
REMARK                            x       y       z     vdW  Elec       q    Type
REMARK                         _______ _______ _______ _____ _____    ______ ____
ROOT
ATOM      1  C   UNL     1       0.260   1.511  -0.468  0.00  0.00    +0.066 C 
ATOM      2  C   UNL     1       0.113   0.013  -0.383  0.00  0.00    +0.053 C 
ATOM      3  C   UNL     1      -1.135  -0.543  -0.326  0.00  0.00    +0.085 C 
ATOM      4  C   UNL     1      -1.240  -2.049  -0.242  0.00  0.00    +0.162 C 
ATOM      5  N   UNL     1       0.034  -2.819  -0.227  0.00  0.00    -0.275 N 
ATOM      6  C   UNL     1       0.159  -4.149  -0.157  0.00  0.00    +0.268 A 
ATOM      7  O   UNL     1      -0.830  -4.858  -0.098  0.00  0.00    -0.266 OA
ATOM      8  C   UNL     1       1.458  -4.727  -0.153  0.00  0.00    +0.081 A 
ATOM      9  C   UNL     1       1.820  -6.041  -0.089  0.00  0.00    +0.035 C 
ATOM     10  S   UNL     1       2.488  -3.271  -0.254  0.00  0.00    -0.046 S 
ATOM     11  C   UNL     1       1.181  -2.060  -0.292  0.00  0.00    +0.178 A 
ATOM     12  N   UNL     1       1.196  -0.754  -0.369  0.00  0.00    -0.228 NA
ENDROOT
BRANCH   4  13
ATOM     13  C   UNL     1      -2.002  -2.390   1.013  0.00  0.00    -0.016 A 
ATOM     14  C   UNL     1      -1.394  -2.257   2.247  0.00  0.00    +0.010 A 
ATOM     15  C   UNL     1      -2.089  -2.570   3.401  0.00  0.00    +0.050 A 
ATOM     16  C   UNL     1      -3.399  -3.017   3.321  0.00  0.00    +0.162 A 
ATOM     17  C   UNL     1      -4.011  -3.150   2.079  0.00  0.00    +0.162 A 
ATOM     18  C   UNL     1      -3.310  -2.831   0.927  0.00  0.00    +0.055 A 
BRANCH  17  19
ATOM     19  O   UNL     1      -5.295  -3.588   1.996  0.00  0.00    -0.491 OA
ATOM     20  C   UNL     1      -5.823  -3.808   0.686  0.00  0.00    +0.277 C 
ENDBRANCH  17  19
BRANCH  16  21
ATOM     21  O   UNL     1      -4.083  -3.324   4.455  0.00  0.00    -0.484 OA
BRANCH  21  22
ATOM     22  C   UNL     1      -3.392  -3.164   5.695  0.00  0.00    +0.256 C 
BRANCH  22  23
ATOM     23  C   UNL     1      -4.302  -3.550   6.832  0.00  0.00    +0.006 C 
ATOM     24  C   UNL     1      -3.853  -4.306   7.803  0.00  0.00    +0.007 C 
ENDBRANCH  22  23
ENDBRANCH  21  22
ENDBRANCH  16  21
ENDBRANCH   4  13
BRANCH   9  25
ATOM     25  C   UNL     1       3.187  -6.398  -0.099  0.00  0.00    +0.013 A 
ATOM     26  C   UNL     1       3.764  -7.664  -0.049  0.00  0.00    +0.015 A 
ATOM     27  C   UNL     1       5.137  -7.693  -0.075  0.00  0.00    +0.008 A 
ATOM     28  C   UNL     1       5.821  -6.523  -0.146  0.00  0.00    +0.046 A 
ATOM     29  S   UNL     1       4.623  -5.346  -0.188  0.00  0.00    -0.097 S 
ENDBRANCH   9  25
BRANCH   3  30
ATOM     30  C   UNL     1      -2.285   0.261  -0.345  0.00  0.00    +0.339 C 
ATOM     31  O   UNL     1      -3.387  -0.254  -0.408  0.00  0.00    -0.245 OA
BRANCH  30  32
ATOM     32  O   UNL     1      -2.170   1.606  -0.294  0.00  0.00    -0.461 OA
BRANCH  32  33
ATOM     33  C   UNL     1      -3.382   2.358  -0.203  0.00  0.00    +0.235 C 
BRANCH  33  34
ATOM     34  C   UNL     1      -3.062   3.852  -0.279  0.00  0.00    +0.020 C 
ATOM     35  C   UNL     1      -2.493   4.182  -1.661  0.00  0.00    +0.010 C 
ATOM     36  C   UNL     1      -4.340   4.660  -0.048  0.00  0.00    +0.010 C 
ENDBRANCH  33  34
ENDBRANCH  32  33
ENDBRANCH  30  32
ENDBRANCH   3  30
TORSDOF 10
