REMARK  Name = ZINC19892601
REMARK  15 active torsions:
REMARK  status: ('A' for Active; 'I' for Inactive)
REMARK    1  A    between atoms: C_1  and  C_2
REMARK    2  A    between atoms: C_2  and  C_3
REMARK    3  A    between atoms: C_3  and  C_5
REMARK    4  A    between atoms: C_3  and  O_6
REMARK    5  A    between atoms: O_6  and  C_7
REMARK    6  A    between atoms: C_7  and  C_9
REMARK    7  A    between atoms: C_10  and  C_40
REMARK    8  A    between atoms: C_14  and  C_16
REMARK    9  A    between atoms: C_21  and  O_22
REMARK   10  A    between atoms: O_22  and  C_23
REMARK   11  A    between atoms: C_27  and  C_30
REMARK   12  A    between atoms: C_33  and  O_38
REMARK   13  A    between atoms: C_34  and  O_36
REMARK   14  A    between atoms: O_36  and  C_37
REMARK   15  A    between atoms: O_38  and  C_39
REMARK                            x       y       z     vdW  Elec       q    Type
REMARK                         _______ _______ _______ _____ _____    ______ ____
ROOT
ATOM      1  C   UNL     1      -9.407  -4.457   1.418  0.00  0.00    +0.065 C 
ATOM      2  C   UNL     1      -8.711  -4.139   2.523  0.00  0.00    +0.016 C 
ATOM      3  N   UNL     1      -7.708  -3.212   2.467  0.00  0.00    -0.321 N 
ATOM      4  C   UNL     1      -7.125  -2.886   1.272  0.00  0.00    +0.016 C 
ATOM      5  C   UNL     1      -7.753  -3.156   0.107  0.00  0.00    +0.024 C 
ATOM      6  C   UNL     1      -9.114  -3.805   0.099  0.00  0.00    +0.096 C 
ATOM      7  C   UNL     1      -7.158  -2.842  -1.127  0.00  0.00    +0.162 C 
ATOM      8  O   UNL     1      -7.755  -3.087  -2.156  0.00  0.00    -0.292 OA
ATOM      9  C   UNL     1      -5.793  -2.212  -1.200  0.00  0.00    +0.088 C 
ATOM     10  C   UNL     1      -4.987  -2.627   0.035  0.00  0.00    +0.032 C 
ATOM     11  C   UNL     1      -5.769  -2.226   1.288  0.00  0.00    +0.059 C 
ATOM     12  C   UNL     1      -9.038  -4.809   3.833  0.00  0.00    +0.061 C 
ATOM     13  H   UNL     1      -7.362  -2.720   3.388  0.00  0.00    +0.152 HD
ENDROOT
BRANCH   6  14
ATOM     14  C   UNL     1     -10.162  -2.758  -0.179  0.00  0.00    +0.006 A 
ATOM     15  C   UNL     1     -10.328  -1.698   0.692  0.00  0.00    +0.008 A 
ATOM     16  C   UNL     1     -11.289  -0.737   0.438  0.00  0.00    +0.001 A 
ATOM     17  C   UNL     1     -12.085  -0.833  -0.688  0.00  0.00    +0.004 A 
ATOM     18  C   UNL     1     -11.922  -1.890  -1.562  0.00  0.00    +0.046 A 
ATOM     19  C   UNL     1     -10.956  -2.854  -1.312  0.00  0.00    +0.124 A 
BRANCH  19  20
ATOM     20  O   UNL     1     -10.790  -3.892  -2.173  0.00  0.00    -0.495 OA
ATOM     21  C   UNL     1     -11.643  -3.926  -3.319  0.00  0.00    +0.277 C 
ENDBRANCH  19  20
ENDBRANCH   6  14
BRANCH  10  22
ATOM     22  C   UNL     1      -3.652  -1.928   0.026  0.00  0.00    -0.040 A 
ATOM     23  C   UNL     1      -3.596  -0.546   0.034  0.00  0.00    +0.008 A 
ATOM     24  C   UNL     1      -2.374   0.099   0.031  0.00  0.00    +0.049 A 
ATOM     25  C   UNL     1      -1.201  -0.638   0.010  0.00  0.00    +0.161 A 
ATOM     26  C   UNL     1      -1.257  -2.028   0.003  0.00  0.00    +0.162 A 
ATOM     27  C   UNL     1      -2.485  -2.669   0.011  0.00  0.00    +0.053 A 
BRANCH  26  28
ATOM     28  O   UNL     1      -0.108  -2.756  -0.011  0.00  0.00    -0.491 OA
ATOM     29  C   UNL     1      -0.242  -4.179  -0.018  0.00  0.00    +0.277 C 
ENDBRANCH  26  28
BRANCH  25  30
ATOM     30  O   UNL     1       0.002  -0.004   0.002  0.00  0.00    -0.491 OA
ATOM     31  C   UNL     1      -0.017   1.425   0.010  0.00  0.00    +0.277 C 
ENDBRANCH  25  30
ENDBRANCH  10  22
BRANCH   1  32
ATOM     32  C   UNL     1     -10.436  -5.425   1.501  0.00  0.00    +0.338 C 
ATOM     33  O   UNL     1     -10.683  -5.961   2.565  0.00  0.00    -0.245 OA
BRANCH  32  34
ATOM     34  O   UNL     1     -11.143  -5.754   0.400  0.00  0.00    -0.458 OA
BRANCH  34  35
ATOM     35  C   UNL     1     -12.166  -6.739   0.556  0.00  0.00    +0.173 C 
ATOM     36  C   UNL     1     -13.485  -6.051   0.913  0.00  0.00    +0.052 C 
BRANCH  35  38
ATOM     37  C   UNL     1     -11.055  -8.301  -1.046  0.00  0.00    +0.007 C 
ATOM     38  C   UNL     1     -12.333  -7.513  -0.753  0.00  0.00    +0.041 C 
ENDBRANCH  35  38
ENDBRANCH  34  35
ENDBRANCH  32  34
ENDBRANCH   1  32
TORSDOF 9
