REMARK  Name = ZINC04574710
REMARK  6 active torsions:
REMARK  status: ('A' for Active; 'I' for Inactive)
REMARK    1  A    between atoms: C_1  and  C_2
REMARK    2  A    between atoms: C_2  and  O_3
REMARK    3  A    between atoms: O_3  and  C_4
REMARK    4  A    between atoms: C_13  and  C_14
REMARK    5  A    between atoms: C_16  and  C_23
REMARK    6  A    between atoms: C_17  and  C_22
REMARK                            x       y       z     vdW  Elec       q    Type
REMARK                         _______ _______ _______ _____ _____    ______ ____
ROOT
ATOM      1  C   UNL     1      -1.286   1.706  -0.006  0.00  0.00    +0.143 C 
ATOM      2  C   UNL     1      -1.284   3.222  -0.025  0.00  0.00    +0.055 C 
ATOM      3  C   UNL     1      -0.088   3.848  -0.008  0.00  0.00    +0.017 C 
ATOM      4  N   UNL     1       1.079   3.140   0.030  0.00  0.00    -0.300 N 
ATOM      5  C   UNL     1       1.135   1.802   0.053  0.00  0.00    +0.135 C 
ATOM      6  S   UNL     1       2.666   1.038   0.099  0.00  0.00    -0.019 S 
ATOM      7  N   UNL     1       0.025   1.038   0.040  0.00  0.00    -0.315 N 
ATOM      8  C   UNL     1      -0.040   5.354  -0.031  0.00  0.00    +0.061 C 
ATOM      9  H   UNL     1       2.043   3.668   0.043  0.00  0.00    +0.154 HD
ATOM     10  H   UNL     1       0.082  -0.061   0.063  0.00  0.00    +0.149 HD
ENDROOT
BRANCH   1  20
ATOM     11  C   UNL     1      -1.493   1.238   2.432  0.00  0.00    +0.126 A 
ATOM     12  C   UNL     1      -2.215   0.833   3.559  0.00  0.00    +0.046 A 
ATOM     13  C   UNL     1      -3.514   0.443   3.454  0.00  0.00    +0.012 A 
ATOM     14  C   UNL     1      -4.145   0.451   2.198  0.00  0.00    -0.017 A 
ATOM     15  C   UNL     1      -5.486   0.055   2.054  0.00  0.00    +0.008 A 
ATOM     16  C   UNL     1      -6.065   0.074   0.823  0.00  0.00    +0.001 A 
ATOM     17  C   UNL     1      -5.349   0.482  -0.301  0.00  0.00    +0.001 A 
ATOM     18  C   UNL     1      -4.050   0.873  -0.200  0.00  0.00    +0.009 A 
ATOM     19  C   UNL     1      -3.417   0.866   1.055  0.00  0.00    -0.009 A 
ATOM     20  C   UNL     1      -2.077   1.262   1.197  0.00  0.00    +0.027 A 
BRANCH  11  21
ATOM     21  O   UNL     1      -0.195   1.616   2.567  0.00  0.00    -0.492 OA
BRANCH  21  23
ATOM     22  C   UNL     1       1.820   2.027   3.837  0.00  0.00    +0.048 C 
ATOM     23  C   UNL     1       0.361   1.569   3.883  0.00  0.00    +0.225 C 
ENDBRANCH  21  23
ENDBRANCH  11  21
ENDBRANCH   1  20
BRANCH   2  24
ATOM     24  C   UNL     1      -2.494   3.955  -0.064  0.00  0.00    +0.241 C 
ATOM     25  O   UNL     1      -3.096   4.081  -1.115  0.00  0.00    -0.271 OA
ATOM     26  N   UNL     1      -2.980   4.515   1.062  0.00  0.00    -0.326 N 
ATOM     27  H   UNL     1      -3.921   5.085   1.031  0.00  0.00    +0.145 HD
ATOM     28  H   UNL     1      -2.437   4.401   2.011  0.00  0.00    +0.145 HD
ENDBRANCH   2  24
TORSDOF 4
