REMARK  Name = ZINC27520865
REMARK  10 active torsions:
REMARK  status: ('A' for Active; 'I' for Inactive)
REMARK    1  A    between atoms: C_1  and  C_2
REMARK    2  A    between atoms: C_2  and  C_28
REMARK    3  A    between atoms: C_3  and  C_4
REMARK    4  A    between atoms: C_3  and  N_19
REMARK    5  A    between atoms: N_6  and  N_7
REMARK    6  A    between atoms: C_8  and  C_9
REMARK    7  A    between atoms: C_11  and  O_17
REMARK    8  A    between atoms: C_12  and  O_16
REMARK    9  A    between atoms: O_17  and  C_18
REMARK   10  A    between atoms: C_20  and  C_22
REMARK                            x       y       z     vdW  Elec       q    Type
REMARK                         _______ _______ _______ _____ _____    ______ ____
ROOT
ATOM      1  C   UNL     1      -2.079  -3.822  -0.081  0.00  0.00    +0.277 C 
ATOM      2  O   UNL     1      -1.755  -4.961   0.194  0.00  0.00    -0.267 OA
ATOM      3  N   UNL     1      -3.352  -3.550  -0.433  0.00  0.00    -0.202 N 
ATOM      4  H   UNL     1      -3.626  -2.537  -0.763  0.00  0.00    +0.178 HD
ENDROOT
BRANCH   1   7
ATOM      5  C   UNL     1       0.483  -4.337   1.003  0.00  0.00    +0.041 C 
ATOM      6  C   UNL     1       0.152  -2.986   0.422  0.00  0.00    -0.049 C 
ATOM      7  C   UNL     1      -1.080  -2.738  -0.031  0.00  0.00    +0.097 C 
ATOM      8  C   UNL     1       1.210  -1.915   0.354  0.00  0.00    +0.041 C 
BRANCH   7   9
ATOM      9  N   UNL     1      -1.423  -1.450  -0.459  0.00  0.00    -0.277 N 
ATOM     10  C   UNL     1      -1.831  -1.248  -1.728  0.00  0.00    +0.248 C 
ATOM     11  O   UNL     1      -1.834  -2.170  -2.520  0.00  0.00    -0.270 OA
ATOM     12  H   UNL     1      -1.358  -0.603   0.239  0.00  0.00    +0.155 HD
BRANCH  10  13
ATOM     13  C   UNL     1      -2.275   0.096  -2.156  0.00  0.00    +0.037 A 
ATOM     14  C   UNL     1      -2.279   1.155  -1.247  0.00  0.00    +0.013 A 
ATOM     15  C   UNL     1      -2.689   2.408  -1.654  0.00  0.00    +0.001 A 
ATOM     16  C   UNL     1      -3.108   2.612  -2.957  0.00  0.00    +0.000 A 
ATOM     17  C   UNL     1      -3.112   1.565  -3.861  0.00  0.00    +0.001 A 
ATOM     18  C   UNL     1      -2.699   0.309  -3.469  0.00  0.00    +0.013 A 
ENDBRANCH  10  13
ENDBRANCH   7   9
ENDBRANCH   1   7
BRANCH   3  19
ATOM     19  N   UNL     1      -4.325  -4.556  -0.377  0.00  0.00    -0.187 NA
ATOM     20  C   UNL     1      -5.550  -4.294  -0.716  0.00  0.00    +0.138 C 
BRANCH  20  21
ATOM     21  C   UNL     1      -6.574  -5.353  -0.657  0.00  0.00    -0.001 A 
ATOM     22  C   UNL     1      -7.895  -5.071  -1.016  0.00  0.00    +0.059 A 
ATOM     23  C   UNL     1      -8.850  -6.069  -0.965  0.00  0.00    +0.163 A 
ATOM     24  C   UNL     1      -8.497  -7.350  -0.546  0.00  0.00    +0.173 A 
ATOM     25  C   UNL     1      -7.187  -7.629  -0.184  0.00  0.00    +0.063 A 
ATOM     26  C   UNL     1      -6.227  -6.639  -0.238  0.00  0.00    +0.028 A 
ATOM     27 BR   UNL     1      -6.716  -9.370   0.384  0.00  0.00    -0.046 Br
BRANCH  24  28
ATOM     28  O   UNL     1      -9.439  -8.329  -0.491  0.00  0.00    -0.503 OA
ATOM     29  H   UNL     1      -9.163  -9.341  -0.160  0.00  0.00    +0.292 HD
ENDBRANCH  24  28
BRANCH  23  30
ATOM     30  O   UNL     1     -10.135  -5.799  -1.320  0.00  0.00    -0.491 OA
ATOM     31  C   UNL     1     -10.425  -4.464  -1.740  0.00  0.00    +0.277 C 
ENDBRANCH  23  30
ENDBRANCH  20  21
ENDBRANCH   3  19
TORSDOF 7
