REMARK  Name = ZINC31046702
REMARK  12 active torsions:
REMARK  status: ('A' for Active; 'I' for Inactive)
REMARK    1  A    between atoms: C_1  and  C_2
REMARK    2  A    between atoms: C_2  and  C_3
REMARK    3  A    between atoms: C_2  and  C_4
REMARK    4  A    between atoms: C_4  and  C_5
REMARK    5  A    between atoms: C_5  and  C_7
REMARK    6  A    between atoms: C_5  and  N_15
REMARK    7  A    between atoms: C_10  and  O_13
REMARK    8  A    between atoms: O_13  and  C_14
REMARK    9  A    between atoms: C_16  and  C_18
REMARK   10  A    between atoms: N_23  and  C_25
REMARK   11  A    between atoms: C_25  and  C_26
REMARK   12  A    between atoms: C_28  and  C_31
REMARK                            x       y       z     vdW  Elec       q    Type
REMARK                         _______ _______ _______ _____ _____    ______ ____
ROOT
ATOM      1  C   UNL     1      -5.451   1.585   2.397  0.00  0.00    +0.058 C 
ATOM      2  C   UNL     1      -4.707   2.182   3.594  0.00  0.00    +0.009 C 
ATOM      3  C   UNL     1      -5.721   2.809   4.555  0.00  0.00    -0.018 C 
ATOM      4  C   UNL     1      -6.729   1.744   4.991  0.00  0.00    -0.078 C 
ATOM      5  N   UNL     1      -7.415   1.204   3.810  0.00  0.00    +0.386 N 
ATOM      6  C   UNL     1      -6.467   0.555   2.896  0.00  0.00    -0.065 C 
ATOM      7  H   UNL     1      -7.874   2.049   3.275  0.00  0.00    -0.081 HD
ENDROOT
BRANCH   1   9
ATOM      8  N   UNL     1      -3.471   1.630   0.915  0.00  0.00    -0.308 N 
ATOM      9  C   UNL     1      -4.466   0.913   1.475  0.00  0.00    +0.215 C 
ATOM     10  O   UNL     1      -4.568  -0.271   1.237  0.00  0.00    -0.276 OA
ATOM     11  H   UNL     1      -3.378   2.704   1.131  0.00  0.00    +0.149 HD
BRANCH   8  12
ATOM     12  C   UNL     1      -2.513   0.977   0.019  0.00  0.00    +0.103 C 
BRANCH  12  13
ATOM     13  C   UNL     1      -1.220   1.750   0.017  0.00  0.00    -0.027 A 
ATOM     14  C   UNL     1      -0.013   1.076   0.008  0.00  0.00    +0.009 A 
ATOM     15  C   UNL     1       1.175   1.782   0.000  0.00  0.00    +0.046 A 
ATOM     16  C   UNL     1       1.155   3.169   0.008  0.00  0.00    +0.120 A 
ATOM     17  C   UNL     1      -0.057   3.844   0.023  0.00  0.00    +0.046 A 
ATOM     18  C   UNL     1      -1.242   3.133   0.031  0.00  0.00    +0.009 A 
BRANCH  16  19
ATOM     19  O   UNL     1       2.322   3.866   0.000  0.00  0.00    -0.495 OA
ATOM     20  C   UNL     1       2.225   5.292   0.009  0.00  0.00    +0.277 C 
ENDBRANCH  16  19
ENDBRANCH  12  13
BRANCH  12  21
ATOM     21  C   UNL     1      -3.086   0.939  -1.399  0.00  0.00    +0.030 C 
BRANCH  21  23
ATOM     22  C   UNL     1      -4.976   0.111  -2.809  0.00  0.00    +0.007 C 
ATOM     23  C   UNL     1      -4.332   0.051  -1.423  0.00  0.00    -0.015 C 
ATOM     24  C   UNL     1      -3.935  -1.393  -1.107  0.00  0.00    +0.007 C 
ENDBRANCH  21  23
ENDBRANCH  12  21
ENDBRANCH   8  12
ENDBRANCH   1   9
BRANCH   5  25
ATOM     25  C   UNL     1      -8.487   0.279   4.201  0.00  0.00    +0.022 C 
BRANCH  25  26
ATOM     26  C   UNL     1      -9.567   1.040   4.927  0.00  0.00    +0.211 A 
ATOM     27  N   UNL     1     -10.611   1.617   4.386  0.00  0.00    -0.193 NA
ATOM     28  C   UNL     1     -11.295   2.168   5.413  0.00  0.00    +0.202 A 
ATOM     29  N   UNL     1     -10.629   1.903   6.507  0.00  0.00    -0.056 NA
ATOM     30  O   UNL     1      -9.636   1.257   6.244  0.00  0.00    -0.340 OA
BRANCH  28  31
ATOM     31  C   UNL     1     -12.562   2.935   5.318  0.00  0.00    +0.023 A 
ATOM     32  C   UNL     1     -13.159   3.145   4.077  0.00  0.00    +0.013 A 
ATOM     33  C   UNL     1     -14.341   3.853   3.994  0.00  0.00    +0.021 A 
ATOM     34  C   UNL     1     -14.926   4.365   5.139  0.00  0.00    +0.041 A 
ATOM     35  C   UNL     1     -14.332   4.165   6.374  0.00  0.00    +0.021 A 
ATOM     36  C   UNL     1     -13.154   3.452   6.468  0.00  0.00    +0.013 A 
ATOM     37 CL   UNL     1     -16.408   5.262   5.027  0.00  0.00    -0.084 Cl
ENDBRANCH  28  31
ENDBRANCH  25  26
ENDBRANCH   5  25
TORSDOF 9
