REMARK  Name = ZINC36545449
REMARK  9 active torsions:
REMARK  status: ('A' for Active; 'I' for Inactive)
REMARK    1  A    between atoms: C_5  and  N_7
REMARK    2  A    between atoms: N_7  and  C_8
REMARK    3  A    between atoms: C_8  and  C_10
REMARK    4  A    between atoms: C_8  and  C_19
REMARK    5  A    between atoms: C_13  and  N_16
REMARK    6  A    between atoms: N_21  and  C_22
REMARK    7  A    between atoms: C_28  and  C_30
REMARK    8  A    between atoms: C_34  and  O_37
REMARK    9  A    between atoms: C_35  and  O_36
REMARK                            x       y       z     vdW  Elec       q    Type
REMARK                         _______ _______ _______ _____ _____    ______ ____
ROOT
ATOM      1  N   UNL     1       1.114  -1.972   0.033  0.00  0.00    -0.250 N 
ATOM      2  C   UNL     1       0.339  -2.507   0.997  0.00  0.00    +0.255 C 
ATOM      3  O   UNL     1      -0.382  -3.453   0.743  0.00  0.00    -0.269 OA
ENDROOT
BRANCH   1   8
ATOM      4  C   UNL     1       2.566   1.379   0.462  0.00  0.00    +0.002 A 
ATOM      5  C   UNL     1       3.812   1.061   0.972  0.00  0.00    +0.002 A 
ATOM      6  C   UNL     1       4.164  -0.261   1.171  0.00  0.00    +0.022 A 
ATOM      7  C   UNL     1       3.272  -1.270   0.861  0.00  0.00    +0.062 A 
ATOM      8  C   UNL     1       2.019  -0.954   0.349  0.00  0.00    +0.056 A 
ATOM      9  C   UNL     1       1.669   0.375   0.150  0.00  0.00    +0.025 A 
ATOM     10 CL   UNL     1       3.716  -2.929   1.110  0.00  0.00    -0.082 Cl
ENDBRANCH   1   8
BRANCH   2  11
ATOM     11  C   UNL     1       0.365  -1.946   2.361  0.00  0.00    +0.082 A 
ATOM     12  C   UNL     1       0.200  -0.572   2.559  0.00  0.00    +0.017 A 
ATOM     13  C   UNL     1       0.226  -0.052   3.834  0.00  0.00    +0.005 A 
ATOM     14  C   UNL     1       0.414  -0.883   4.926  0.00  0.00    +0.049 A 
ATOM     15  C   UNL     1       0.578  -2.246   4.746  0.00  0.00    +0.159 A 
ATOM     16  C   UNL     1       0.550  -2.788   3.465  0.00  0.00    +0.171 A 
BRANCH  16  17
ATOM     17  O   UNL     1       0.705  -4.124   3.285  0.00  0.00    -0.503 OA
ATOM     18  H   UNL     1       1.625  -4.401   3.171  0.00  0.00    +0.292 HD
ENDBRANCH  16  17
BRANCH  15  19
ATOM     19  O   UNL     1       0.763  -3.057   5.823  0.00  0.00    -0.503 OA
ATOM     20  H   UNL     1      -0.057  -3.405   6.199  0.00  0.00    +0.292 HD
ENDBRANCH  15  19
ENDBRANCH   2  11
BRANCH   1  21
ATOM     21  C   UNL     1       1.008  -2.457  -1.345  0.00  0.00    +0.198 C 
BRANCH  21  22
ATOM     22  C   UNL     1      -0.375  -2.174  -1.872  0.00  0.00    -0.018 A 
ATOM     23  C   UNL     1      -1.032  -1.014  -1.504  0.00  0.00    +0.008 A 
ATOM     24  C   UNL     1      -2.300  -0.755  -1.987  0.00  0.00    +0.033 A 
ATOM     25  C   UNL     1      -2.913  -1.654  -2.840  0.00  0.00    +0.126 A 
ATOM     26  C   UNL     1      -2.256  -2.813  -3.209  0.00  0.00    +0.033 A 
ATOM     27  C   UNL     1      -0.986  -3.071  -2.729  0.00  0.00    +0.008 A 
BRANCH  25  28
ATOM     28  N   UNL     1      -4.272  -1.376  -3.357  0.00  0.00    +0.056 N 
ATOM     29  O   UNL     1      -4.846  -0.363  -3.033  0.00  0.00    -0.126 OA
ATOM     30  O   UNL     1      -4.807  -2.163  -4.102  0.00  0.00    -0.126 OA
ENDBRANCH  25  28
ENDBRANCH  21  22
BRANCH  21  31
ATOM     31  C   UNL     1       2.026  -1.754  -2.205  0.00  0.00    +0.239 C 
ATOM     32  O   UNL     1       2.755  -0.915  -1.718  0.00  0.00    -0.273 OA
ATOM     33  N   UNL     1       2.128  -2.057  -3.514  0.00  0.00    -0.311 N 
ATOM     34  H   UNL     1       1.545  -2.727  -3.903  0.00  0.00    +0.149 HD
BRANCH  33  35
ATOM     35  C   UNL     1       3.118  -1.373  -4.350  0.00  0.00    +0.073 C 
ATOM     36  C   UNL     1       2.536  -0.050  -4.851  0.00  0.00    +0.022 C 
ATOM     37  C   UNL     1       3.571   0.664  -5.724  0.00  0.00    +0.002 C 
ATOM     38  C   UNL     1       3.928  -0.222  -6.919  0.00  0.00    +0.000 C 
ATOM     39  C   UNL     1       4.509  -1.545  -6.418  0.00  0.00    +0.002 C 
ATOM     40  C   UNL     1       3.475  -2.259  -5.545  0.00  0.00    +0.022 C 
ENDBRANCH  33  35
ENDBRANCH  21  31
ENDBRANCH   1  21
TORSDOF 9
