REMARK  Name = ZINC01218704
REMARK  6 active torsions:
REMARK  status: ('A' for Active; 'I' for Inactive)
REMARK    1  A    between atoms: C_1  and  C_2
REMARK    2  A    between atoms: C_3  and  N_9
REMARK    3  A    between atoms: C_10  and  C_12
REMARK    4  A    between atoms: C_13  and  C_29
REMARK    5  A    between atoms: C_18  and  C_20
REMARK    6  A    between atoms: C_24  and  N_26
REMARK                            x       y       z     vdW  Elec       q    Type
REMARK                         _______ _______ _______ _____ _____    ______ ____
ROOT
ATOM      1  C   UNL     1       3.851   2.208   1.215  0.00  0.00    +0.056 C 
ATOM      2  C   UNL     1       5.125   1.793   1.373  0.00  0.00    +0.017 C 
ATOM      3  N   UNL     1       5.824   1.249   0.334  0.00  0.00    -0.300 N 
ATOM      4  C   UNL     1       5.320   1.088  -0.896  0.00  0.00    +0.135 C 
ATOM      5  S   UNL     1       6.306   0.393  -2.111  0.00  0.00    -0.019 S 
ATOM      6  N   UNL     1       4.062   1.456  -1.209  0.00  0.00    -0.315 N 
ATOM      7  C   UNL     1       3.224   2.052  -0.156  0.00  0.00    +0.139 C 
ATOM      8  C   UNL     1       5.787   1.931   2.720  0.00  0.00    +0.061 C 
ATOM      9  H   UNL     1       6.737   0.965   0.495  0.00  0.00    +0.154 HD
ATOM     10  H   UNL     1       3.716   1.330  -2.107  0.00  0.00    +0.149 HD
ENDROOT
BRANCH   7  11
ATOM     11  C   UNL     1       1.988   1.202  -0.008  0.00  0.00    -0.020 A 
ATOM     12  C   UNL     1       2.096  -0.176   0.013  0.00  0.00    +0.006 A 
ATOM     13  C   UNL     1       0.963  -0.957   0.149  0.00  0.00    +0.003 A 
ATOM     14  C   UNL     1      -0.278  -0.358   0.265  0.00  0.00    +0.033 A 
ATOM     15  C   UNL     1      -0.386   1.019   0.245  0.00  0.00    +0.127 A 
ATOM     16  C   UNL     1       0.748   1.800   0.109  0.00  0.00    +0.038 A 
BRANCH  15  17
ATOM     17  N   UNL     1      -1.715   1.659   0.363  0.00  0.00    +0.056 N 
ATOM     18  O   UNL     1      -2.721   0.973   0.390  0.00  0.00    -0.126 OA
ATOM     19  O   UNL     1      -1.803   2.872   0.433  0.00  0.00    -0.126 OA
ENDBRANCH  15  17
ENDBRANCH   7  11
BRANCH   1  21
ATOM     20  N   UNL     1       2.823   2.018   3.368  0.00  0.00    -0.281 N 
ATOM     21  C   UNL     1       3.125   2.771   2.292  0.00  0.00    +0.248 C 
ATOM     22  O   UNL     1       2.773   3.936   2.247  0.00  0.00    -0.270 OA
ATOM     23  H   UNL     1       3.071   1.081   3.389  0.00  0.00    +0.155 HD
BRANCH  20  26
ATOM     24  C   UNL     1       1.969   0.301   5.471  0.00  0.00    +0.047 C 
ATOM     25  C   UNL     1       1.718   1.786   5.503  0.00  0.00    -0.011 A 
ATOM     26  C   UNL     1       2.152   2.588   4.455  0.00  0.00    +0.038 A 
ATOM     27  C   UNL     1       1.924   3.957   4.491  0.00  0.00    +0.023 A 
ATOM     28  C   UNL     1       1.256   4.517   5.563  0.00  0.00    +0.003 A 
ATOM     29  C   UNL     1       0.825   3.718   6.605  0.00  0.00    +0.020 A 
ATOM     30  C   UNL     1       1.056   2.353   6.575  0.00  0.00    +0.046 A 
ATOM     31 CL   UNL     1       0.513   1.353   7.886  0.00  0.00    -0.083 Cl
ENDBRANCH  20  26
ENDBRANCH   1  21
TORSDOF 4
