REMARK  Name = ZINC04146271
REMARK  8 active torsions:
REMARK  status: ('A' for Active; 'I' for Inactive)
REMARK    1  A    between atoms: C_1  and  C_2
REMARK    2  A    between atoms: C_2  and  C_3
REMARK    3  A    between atoms: C_3  and  C_4
REMARK    4  A    between atoms: C_4  and  N_5
REMARK    5  A    between atoms: C_12  and  C_13
REMARK    6  A    between atoms: C_17  and  C_26
REMARK    7  A    between atoms: C_22  and  C_24
REMARK    8  A    between atoms: C_22  and  C_25
REMARK                            x       y       z     vdW  Elec       q    Type
REMARK                         _______ _______ _______ _____ _____    ______ ____
ROOT
ATOM      1  C   UNL     1      -0.284   4.112  -2.386  0.00  0.00    +0.263 C 
ATOM      2  O   UNL     1       0.569   4.939  -2.654  0.00  0.00    -0.268 OA
ATOM      3  N   UNL     1      -0.189   3.389  -1.252  0.00  0.00    -0.293 N 
ATOM      4  C   UNL     1      -1.089   2.296  -0.852  0.00  0.00    +0.115 C 
ATOM      5  C   UNL     1      -0.609   1.822   0.539  0.00  0.00    -0.014 C 
ATOM      6  C   UNL     1       0.905   2.168   0.503  0.00  0.00    +0.030 C 
ATOM      7  C   UNL     1       0.838   3.546  -0.205  0.00  0.00    +0.077 C 
ATOM      8  C   UNL     1       0.351   4.555   0.834  0.00  0.00    +0.029 C 
ATOM      9  C   UNL     1      -0.967   4.180   1.486  0.00  0.00    -0.033 C 
ATOM     10  C   UNL     1      -1.253   2.697   1.611  0.00  0.00    +0.014 C 
ATOM     11  C   UNL     1      -0.949   4.766   2.921  0.00  0.00    +0.011 C 
ATOM     12  C   UNL     1      -2.123   4.876   0.750  0.00  0.00    +0.011 C 
ATOM     13  C   UNL     1      -0.861   0.323   0.764  0.00  0.00    +0.013 C 
ENDROOT
BRANCH   1  21
ATOM     14  N   UNL     1      -1.700   4.659  -4.417  0.00  0.00    -0.334 N 
ATOM     15  C   UNL     1      -2.830   4.153  -5.005  0.00  0.00    +0.088 A 
ATOM     16  C   UNL     1      -3.746   4.282  -6.075  0.00  0.00    +0.067 A 
ATOM     17  C   UNL     1      -4.667   3.313  -5.928  0.00  0.00    +0.198 A 
ATOM     18  O   UNL     1      -4.382   2.588  -4.833  0.00  0.00    -0.461 OA
ATOM     19  C   UNL     1      -3.267   3.072  -4.245  0.00  0.00    +0.153 A 
ATOM     20  C   UNL     1      -2.374   2.924  -3.178  0.00  0.00    +0.079 A 
ATOM     21  C   UNL     1      -1.413   3.903  -3.296  0.00  0.00    +0.109 A 
BRANCH  14  22
ATOM     22  C   UNL     1      -0.925   5.806  -4.897  0.00  0.00    +0.122 C 
BRANCH  22  23
ATOM     23  C   UNL     1       0.225   5.312  -5.777  0.00  0.00    +0.021 C 
BRANCH  23  25
ATOM     24  C   UNL     1       2.183   6.024  -7.155  0.00  0.00    +0.004 C 
ATOM     25  C   UNL     1       1.105   6.497  -6.179  0.00  0.00    -0.002 C 
ENDBRANCH  23  25
ENDBRANCH  22  23
ENDBRANCH  14  22
ENDBRANCH   1  21
TORSDOF 4
