REMARK  Name = ZINC08837527
REMARK  16 active torsions:
REMARK  status: ('A' for Active; 'I' for Inactive)
REMARK    1  A    between atoms: C_1  and  C_2
REMARK    2  A    between atoms: C_2  and  N_68
REMARK    3  A    between atoms: C_3  and  C_4
REMARK    4  A    between atoms: C_3  and  N_68
REMARK    5  A    between atoms: C_5  and  C_6
REMARK    6  A    between atoms: C_5  and  N_68
REMARK    7  A    between atoms: C_6  and  N_7
REMARK    8  A    between atoms: C_8  and  C_27
REMARK    9  A    between atoms: C_11  and  C_12
REMARK   10  A    between atoms: C_11  and  O_22
REMARK   11  A    between atoms: C_15  and  O_18
REMARK   12  A    between atoms: O_18  and  C_19
REMARK   13  A    between atoms: C_19  and  C_20
REMARK   14  A    between atoms: C_19  and  C_21
REMARK   15  A    between atoms: C_30  and  O_33
REMARK   16  A    between atoms: O_33  and  C_34
REMARK                            x       y       z     vdW  Elec       q    Type
REMARK                         _______ _______ _______ _____ _____    ______ ____
ROOT
ATOM      1  N   UNL     1      -3.396   4.095   0.426  0.00  0.00    -0.285 N 
ATOM      2  C   UNL     1      -3.524   2.744  -0.128  0.00  0.00    +0.144 C 
ATOM      3  C   UNL     1      -2.123   2.191  -0.245  0.00  0.00    +0.071 C 
ATOM      4  C   UNL     1      -1.760   0.944  -0.717  0.00  0.00    +0.133 C 
ATOM      5  C   UNL     1      -1.264   3.200   0.215  0.00  0.00    +0.249 C 
ATOM      6  O   UNL     1      -0.050   3.133   0.272  0.00  0.00    -0.282 OA
ATOM      7  C   UNL     1      -2.095   4.365   0.623  0.00  0.00    +0.288 C 
ATOM      8  O   UNL     1      -1.660   5.408   1.067  0.00  0.00    -0.266 OA
ENDROOT
BRANCH   4   9
ATOM      9  C   UNL     1      -0.338   0.591  -0.844  0.00  0.00    +0.017 A 
ATOM     10  C   UNL     1       0.525   1.406  -1.587  0.00  0.00    +0.015 A 
ATOM     11  C   UNL     1       1.854   1.068  -1.706  0.00  0.00    +0.046 A 
ATOM     12  C   UNL     1       2.340  -0.081  -1.092  0.00  0.00    +0.121 A 
ATOM     13  C   UNL     1       1.487  -0.894  -0.353  0.00  0.00    +0.046 A 
ATOM     14  C   UNL     1       0.157  -0.565  -0.227  0.00  0.00    +0.015 A 
BRANCH  12  15
ATOM     15  O   UNL     1       3.651  -0.409  -1.212  0.00  0.00    -0.489 OA
BRANCH  15  16
ATOM     16  C   UNL     1       4.110  -1.534  -0.460  0.00  0.00    +0.167 C 
ATOM     17  C   UNL     1       3.808  -2.821  -1.231  0.00  0.00    +0.051 C 
ATOM     18  C   UNL     1       5.619  -1.416  -0.235  0.00  0.00    +0.051 C 
ENDBRANCH  15  16
ENDBRANCH  12  15
ENDBRANCH   4   9
BRANCH   2  19
ATOM     19  C   UNL     1      -4.342   1.885   0.801  0.00  0.00    -0.022 A 
ATOM     20  C   UNL     1      -4.187   2.006   2.170  0.00  0.00    +0.009 A 
ATOM     21  C   UNL     1      -4.940   1.223   3.023  0.00  0.00    +0.046 A 
ATOM     22  C   UNL     1      -5.844   0.306   2.506  0.00  0.00    +0.120 A 
ATOM     23  C   UNL     1      -5.993   0.182   1.132  0.00  0.00    +0.046 A 
ATOM     24  C   UNL     1      -5.242   0.972   0.283  0.00  0.00    +0.009 A 
BRANCH  22  25
ATOM     25  O   UNL     1      -6.581  -0.470   3.343  0.00  0.00    -0.495 OA
ATOM     26  C   UNL     1      -6.375  -0.288   4.746  0.00  0.00    +0.277 C 
ENDBRANCH  22  25
ENDBRANCH   2  19
BRANCH   4  27
ATOM     27  O   UNL     1      -2.711   0.050  -1.062  0.00  0.00    -0.506 OA
ATOM     28  H   UNL     1      -2.276  -0.793  -1.380  0.00  0.00    +0.292 HD
ENDBRANCH   4  27
BRANCH   1  29
ATOM     29  C   UNL     1      -4.507   5.006   0.713  0.00  0.00    +0.090 C 
BRANCH  29  30
ATOM     30  C   UNL     1      -4.802   5.856  -0.525  0.00  0.00    -0.060 C 
BRANCH  30  31
ATOM     31  N   UNL     1      -5.938   6.754  -0.227  0.00  0.00    +0.380 N 
ATOM     32  H   UNL     1      -6.714   6.196   0.147  0.00  0.00    -0.082 HD
BRANCH  31  34
ATOM     33  C   UNL     1      -4.404   8.634   0.247  0.00  0.00    -0.017 C 
ATOM     34  C   UNL     1      -5.537   7.757   0.782  0.00  0.00    -0.082 C 
ENDBRANCH  31  34
BRANCH  31  35
ATOM     35  C   UNL     1      -6.383   7.431  -1.463  0.00  0.00    -0.082 C 
ATOM     36  C   UNL     1      -7.693   8.168  -1.176  0.00  0.00    -0.017 C 
ENDBRANCH  31  35
ENDBRANCH  30  31
ENDBRANCH  29  30
ENDBRANCH   1  29
TORSDOF 11
