REMARK  Name = ZINC40844713
REMARK  7 active torsions:
REMARK  status: ('A' for Active; 'I' for Inactive)
REMARK    1  A    between atoms: C_1  and  O_2
REMARK    2  A    between atoms: O_2  and  C_3
REMARK    3  A    between atoms: C_3  and  C_5
REMARK    4  A    between atoms: C_9  and  N_10
REMARK    5  A    between atoms: N_13  and  N_14
REMARK    6  A    between atoms: C_15  and  C_16
REMARK    7  A    between atoms: C_21  and  O_22
REMARK                            x       y       z     vdW  Elec       q    Type
REMARK                         _______ _______ _______ _____ _____    ______ ____
ROOT
ATOM      1  N   UNL     1       2.477  -2.324   0.860  0.00  0.00    -0.262 N 
ATOM      2  C   UNL     1       3.288  -3.068   1.638  0.00  0.00    +0.324 C 
ATOM      3  O   UNL     1       2.969  -4.203   1.937  0.00  0.00    -0.251 OA
ATOM      4  N   UNL     1       4.451  -2.554   2.084  0.00  0.00    -0.191 N 
ATOM      5  H   UNL     1       2.731  -1.418   0.621  0.00  0.00    +0.157 HD
ATOM      6  H   UNL     1       5.034  -3.090   2.644  0.00  0.00    +0.179 HD
ENDROOT
BRANCH   1  11
ATOM      7  C   UNL     1       0.330  -2.238  -0.402  0.00  0.00    +0.091 A 
ATOM      8  C   UNL     1      -0.845  -3.018  -0.752  0.00  0.00    -0.021 A 
ATOM      9  C   UNL     1      -0.858  -4.263  -0.230  0.00  0.00    -0.004 A 
ATOM     10  S   UNL     1       0.649  -4.380   0.690  0.00  0.00    -0.077 S 
ATOM     11  C   UNL     1       1.281  -2.852   0.401  0.00  0.00    +0.088 A 
ATOM     12  C   UNL     1      -1.923  -5.301  -0.405  0.00  0.00    +0.043 C 
ATOM     13  C   UNL     1      -3.181  -4.613  -0.954  0.00  0.00    +0.005 C 
ATOM     14  C   UNL     1      -2.783  -3.719  -2.132  0.00  0.00    +0.005 C 
ATOM     15  C   UNL     1      -1.985  -2.515  -1.626  0.00  0.00    +0.037 C 
BRANCH   7  16
ATOM     16  C   UNL     1       0.507  -0.866  -0.882  0.00  0.00    +0.342 C 
ATOM     17  O   UNL     1       1.071  -0.660  -1.939  0.00  0.00    -0.245 OA
BRANCH  16  19
ATOM     18  C   UNL     1       0.250   1.480  -0.679  0.00  0.00    +0.280 C 
ATOM     19  O   UNL     1       0.043   0.168  -0.151  0.00  0.00    -0.464 OA
ENDBRANCH  16  19
ENDBRANCH   7  16
ENDBRANCH   1  11
BRANCH   4  20
ATOM     20  N   UNL     1       4.818  -1.247   1.740  0.00  0.00    -0.186 NA
ATOM     21  C   UNL     1       5.984  -0.789   2.079  0.00  0.00    +0.142 C 
BRANCH  21  22
ATOM     22  C   UNL     1       7.015  -1.708   2.594  0.00  0.00    +0.036 A 
ATOM     23  C   UNL     1       6.991  -3.059   2.241  0.00  0.00    +0.013 A 
ATOM     24  C   UNL     1       7.958  -3.913   2.726  0.00  0.00    +0.001 A 
ATOM     25  C   UNL     1       8.955  -3.438   3.561  0.00  0.00    +0.004 A 
ATOM     26  C   UNL     1       8.989  -2.103   3.918  0.00  0.00    +0.046 A 
ATOM     27  C   UNL     1       8.028  -1.230   3.435  0.00  0.00    +0.125 A 
BRANCH  27  28
ATOM     28  O   UNL     1       8.065   0.084   3.780  0.00  0.00    -0.506 OA
ATOM     29  H   UNL     1       7.510   0.306   4.541  0.00  0.00    +0.292 HD
ENDBRANCH  27  28
ENDBRANCH  21  22
ENDBRANCH   4  20
TORSDOF 6
