REMARK  Name = ZINC58968207
REMARK  10 active torsions:
REMARK  status: ('A' for Active; 'I' for Inactive)
REMARK    1  A    between atoms: C_1  and  O_2
REMARK    2  A    between atoms: O_2  and  C_3
REMARK    3  A    between atoms: C_3  and  C_5
REMARK    4  A    between atoms: C_9  and  N_10
REMARK    5  A    between atoms: C_11  and  C_13
REMARK    6  A    between atoms: C_13  and  C_14
REMARK    7  A    between atoms: C_14  and  S_15
REMARK    8  A    between atoms: S_15  and  C_16
REMARK    9  A    between atoms: C_18  and  C_26
REMARK   10  A    between atoms: C_20  and  C_22
REMARK                            x       y       z     vdW  Elec       q    Type
REMARK                         _______ _______ _______ _____ _____    ______ ____
ROOT
ATOM      1  C   UNL     1      -3.544  -2.704   3.624  0.00  0.00    +0.107 C 
ENDROOT
BRANCH   1   3
ATOM      2  N   UNL     1      -1.446  -2.345   2.363  0.00  0.00    -0.279 N 
ATOM      3  C   UNL     1      -2.309  -3.214   2.927  0.00  0.00    +0.218 C 
ATOM      4  O   UNL     1      -2.092  -4.406   2.873  0.00  0.00    -0.275 OA
ATOM      5  H   UNL     1      -1.620  -1.392   2.406  0.00  0.00    +0.155 HD
BRANCH   2  10
ATOM      6  C   UNL     1       0.680  -2.076   1.092  0.00  0.00    +0.091 A 
ATOM      7  C   UNL     1       1.781  -2.814   0.496  0.00  0.00    -0.021 A 
ATOM      8  C   UNL     1       1.687  -4.153   0.635  0.00  0.00    -0.004 A 
ATOM      9  S   UNL     1       0.182  -4.408   1.529  0.00  0.00    -0.077 S 
ATOM     10  C   UNL     1      -0.310  -2.815   1.722  0.00  0.00    +0.086 A 
ATOM     11  C   UNL     1       2.655  -5.180   0.133  0.00  0.00    +0.043 C 
ATOM     12  C   UNL     1       3.582  -4.508  -0.892  0.00  0.00    +0.005 C 
ATOM     13  C   UNL     1       4.097  -3.191  -0.305  0.00  0.00    +0.005 C 
ATOM     14  C   UNL     1       2.956  -2.174  -0.228  0.00  0.00    +0.037 C 
BRANCH   6  15
ATOM     15  C   UNL     1       0.621  -0.614   1.034  0.00  0.00    +0.342 C 
ATOM     16  O   UNL     1       1.131   0.051   1.916  0.00  0.00    -0.245 OA
BRANCH  15  18
ATOM     17  C   UNL     1      -0.017   1.425   0.010  0.00  0.00    +0.280 C 
ATOM     18  O   UNL     1       0.002  -0.004   0.002  0.00  0.00    -0.464 OA
ENDBRANCH  15  18
ENDBRANCH   6  15
ENDBRANCH   2  10
ENDBRANCH   1   3
BRANCH   1  19
ATOM     19  C   UNL     1      -4.346  -3.886   4.171  0.00  0.00    +0.086 C 
BRANCH  19  20
ATOM     20  S   UNL     1      -5.833  -3.272   5.010  0.00  0.00    -0.086 S 
BRANCH  20  21
ATOM     21  C   UNL     1      -6.637  -4.734   5.576  0.00  0.00    +0.189 A 
ATOM     22  N   UNL     1      -7.779  -4.627   6.237  0.00  0.00    -0.222 NA
ATOM     23  C   UNL     1      -8.412  -5.712   6.678  0.00  0.00    +0.076 A 
ATOM     24  C   UNL     1      -7.851  -6.968   6.433  0.00  0.00    +0.060 A 
ATOM     25  C   UNL     1      -6.656  -7.034   5.738  0.00  0.00    +0.148 A 
ATOM     26  N   UNL     1      -6.086  -5.913   5.325  0.00  0.00    -0.218 NA
BRANCH  23  27
ATOM     27  C   UNL     1      -9.691  -5.589   7.419  0.00  0.00    +0.000 A 
ATOM     28  C   UNL     1     -10.343  -6.731   7.882  0.00  0.00    +0.010 A 
ATOM     29  C   UNL     1     -11.533  -6.611   8.571  0.00  0.00    +0.001 A 
ATOM     30  C   UNL     1     -12.078  -5.361   8.802  0.00  0.00    +0.000 A 
ATOM     31  C   UNL     1     -11.435  -4.224   8.344  0.00  0.00    +0.001 A 
ATOM     32  C   UNL     1     -10.242  -4.332   7.659  0.00  0.00    +0.010 A 
ENDBRANCH  23  27
BRANCH  25  33
ATOM     33  C   UNL     1      -6.014  -8.366   5.450  0.00  0.00    +0.434 C 
ATOM     34  F   UNL     1      -6.481  -8.853   4.224  0.00  0.00    -0.164 F 
ATOM     35  F   UNL     1      -4.625  -8.212   5.393  0.00  0.00    -0.164 F 
ATOM     36  F   UNL     1      -6.342  -9.271   6.466  0.00  0.00    -0.164 F 
ENDBRANCH  25  33
ENDBRANCH  20  21
ENDBRANCH  19  20
ENDBRANCH   1  19
TORSDOF 9
