REMARK  Name = ZINC55477854
REMARK  3 active torsions:
REMARK  status: ('A' for Active; 'I' for Inactive)
REMARK    1  A    between atoms: C_9  and  C_13
REMARK    2  A    between atoms: N_15  and  C_16
REMARK    3  A    between atoms: N_23  and  C_25
REMARK                            x       y       z     vdW  Elec       q    Type
REMARK                         _______ _______ _______ _____ _____    ______ ____
ROOT
ATOM      1  C   UNL     1       2.765  -4.233  -0.047  0.00  0.00    +0.249 C 
ATOM      2  O   UNL     1       3.869  -4.733  -0.154  0.00  0.00    -0.270 OA
ATOM      3  N   UNL     1       1.676  -5.019   0.061  0.00  0.00    -0.308 N 
ATOM      4  H   UNL     1       0.791  -4.623   0.072  0.00  0.00    +0.149 HD
ENDROOT
BRANCH   1  13
ATOM      5  C   UNL     1      -0.016   1.373  -0.006  0.00  0.00    +0.001 A 
ATOM      6  C   UNL     1       1.173   2.090   0.001  0.00  0.00    +0.002 A 
ATOM      7  C   UNL     1       2.387   1.438  -0.003  0.00  0.00    +0.026 A 
ATOM      8  C   UNL     1       2.429   0.046  -0.014  0.00  0.00    +0.050 A 
ATOM      9  C   UNL     1       1.224  -0.676  -0.021  0.00  0.00    +0.046 A 
ATOM     10  C   UNL     1       0.003  -0.004  -0.016  0.00  0.00    +0.014 A 
ATOM     11  C   UNL     1       1.284  -2.150  -0.032  0.00  0.00    +0.201 A 
ATOM     12  O   UNL     1       0.271  -2.826  -0.038  0.00  0.00    -0.286 OA
ATOM     13  C   UNL     1       2.619  -2.768  -0.036  0.00  0.00    +0.100 A 
ATOM     14  C   UNL     1       3.732  -1.953  -0.029  0.00  0.00    +0.100 A 
ATOM     15  N   UNL     1       3.637  -0.617  -0.019  0.00  0.00    -0.360 N 
ATOM     16  H   UNL     1       4.454  -0.094  -0.014  0.00  0.00    +0.165 HD
ENDBRANCH   1  13
BRANCH   3  17
ATOM     17  C   UNL     1       1.829  -6.469   0.163  0.00  0.00    +0.076 C 
ATOM     18  C   UNL     1       1.910  -7.098  -1.230  0.00  0.00    -0.007 C 
ATOM     19  C   UNL     1       0.668  -6.732  -2.035  0.00  0.00    +0.003 C 
ATOM     20  C   UNL     1      -0.617  -7.164  -1.343  0.00  0.00    +0.001 C 
ATOM     21  C   UNL     1      -0.661  -6.760   0.123  0.00  0.00    +0.003 C 
ATOM     22  C   UNL     1       0.621  -7.085   0.872  0.00  0.00    -0.007 C 
ATOM     23  C   UNL     1       0.833  -8.590   0.998  0.00  0.00    -0.073 C 
ATOM     24  N   UNL     1       1.048  -9.242  -0.291  0.00  0.00    +0.382 N 
ATOM     25  C   UNL     1       2.079  -8.605  -1.104  0.00  0.00    -0.073 C 
ATOM     26  H   UNL     1       0.182  -9.300  -0.801  0.00  0.00    -0.081 HD
BRANCH  24  27
ATOM     27  C   UNL     1       1.466 -10.626  -0.033  0.00  0.00    -0.069 C 
ATOM     28  C   UNL     1       0.705 -11.740  -0.756  0.00  0.00    -0.017 C 
ATOM     29  C   UNL     1       0.499 -11.523   0.744  0.00  0.00    -0.017 C 
ENDBRANCH  24  27
ENDBRANCH   3  17
TORSDOF 3
