REMARK  Name = ZINC09193114
REMARK  9 active torsions:
REMARK  status: ('A' for Active; 'I' for Inactive)
REMARK    1  A    between atoms: C_1  and  C_2
REMARK    2  A    between atoms: C_2  and  C_3
REMARK    3  A    between atoms: C_3  and  C_4
REMARK    4  A    between atoms: N_17  and  C_18
REMARK    5  A    between atoms: C_18  and  C_19
REMARK    6  A    between atoms: N_21  and  C_22
REMARK    7  A    between atoms: C_27  and  C_28
REMARK    8  A    between atoms: C_30  and  C_33
REMARK    9  A    between atoms: C_30  and  C_34
REMARK                            x       y       z     vdW  Elec       q    Type
REMARK                         _______ _______ _______ _____ _____    ______ ____
ROOT
ATOM      1  C   UNL     1       0.694  -0.478  -1.232  0.00  0.00    +0.113 A 
ATOM      2  N   UNL     1       1.155   0.401  -2.064  0.00  0.00    -0.232 NA
ATOM      3  C   UNL     1       1.813   0.044  -3.205  0.00  0.00    +0.094 A 
ATOM      4  C   UNL     1       2.382   0.936  -4.229  0.00  0.00    +0.034 A 
ATOM      5  C   UNL     1       2.369   2.349  -4.251  0.00  0.00    +0.020 A 
ATOM      6  C   UNL     1       2.958   3.015  -5.307  0.00  0.00    +0.000 A 
ATOM      7  C   UNL     1       3.557   2.300  -6.330  0.00  0.00    +0.051 A 
ATOM      8  N   UNL     1       3.564   0.978  -6.301  0.00  0.00    -0.244 NA
ATOM      9  C   UNL     1       3.013   0.303  -5.316  0.00  0.00    +0.111 A 
ATOM     10  S   UNL     1       2.844  -1.430  -4.967  0.00  0.00    -0.062 S 
ATOM     11  C   UNL     1       1.966  -1.321  -3.431  0.00  0.00    +0.105 A 
ATOM     12  C   UNL     1       1.465  -2.268  -2.526  0.00  0.00    +0.269 A 
ATOM     13  O   UNL     1       1.602  -3.462  -2.728  0.00  0.00    -0.266 OA
ATOM     14  N   UNL     1       0.830  -1.816  -1.418  0.00  0.00    -0.287 N 
ATOM     15  C   UNL     1       4.215   2.999  -7.493  0.00  0.00    +0.090 C 
ATOM     16  C   UNL     1       3.745   4.453  -7.556  0.00  0.00    +0.070 C 
ATOM     17  O   UNL     1       3.877   5.030  -6.252  0.00  0.00    -0.369 OA
ATOM     18  C   UNL     1       2.929   4.522  -5.315  0.00  0.00    +0.197 C 
ATOM     19  C   UNL     1       4.608   5.230  -8.552  0.00  0.00    +0.041 C 
ATOM     20  C   UNL     1       2.281   4.501  -7.998  0.00  0.00    +0.041 C 
ENDROOT
BRANCH   1  21
ATOM     21  C   UNL     1      -0.021   0.006   0.004  0.00  0.00    +0.074 C 
BRANCH  21  23
ATOM     22  C   UNL     1      -0.776   2.028   1.263  0.00  0.00    +0.004 C 
ATOM     23  C   UNL     1      -0.050   1.536   0.009  0.00  0.00    +0.004 C 
ENDBRANCH  21  23
ENDBRANCH   1  21
BRANCH  14  24
ATOM     24  C   UNL     1       0.292  -2.760  -0.436  0.00  0.00    +0.222 C 
BRANCH  24  25
ATOM     25  C   UNL     1      -1.127  -3.111  -0.802  0.00  0.00    +0.237 C 
ATOM     26  O   UNL     1      -1.638  -2.622  -1.786  0.00  0.00    -0.274 OA
ATOM     27  N   UNL     1      -1.827  -3.970  -0.035  0.00  0.00    -0.284 N 
ATOM     28  H   UNL     1      -1.394  -4.423   0.706  0.00  0.00    +0.155 HD
BRANCH  27  29
ATOM     29  C   UNL     1      -3.179  -4.208  -0.306  0.00  0.00    +0.036 A 
ATOM     30  C   UNL     1      -3.934  -3.251  -0.973  0.00  0.00    +0.023 A 
ATOM     31  C   UNL     1      -5.266  -3.491  -1.244  0.00  0.00    +0.002 A 
ATOM     32  C   UNL     1      -5.852  -4.678  -0.843  0.00  0.00    +0.000 A 
ATOM     33  C   UNL     1      -5.105  -5.630  -0.175  0.00  0.00    +0.005 A 
ATOM     34  C   UNL     1      -3.771  -5.398   0.095  0.00  0.00    -0.029 A 
ATOM     35  C   UNL     1      -2.957  -6.436   0.825  0.00  0.00    +0.045 C 
ENDBRANCH  27  29
ENDBRANCH  24  25
ENDBRANCH  14  24
TORSDOF 5
