REMARK  Name = ZINC35300253
REMARK  9 active torsions:
REMARK  status: ('A' for Active; 'I' for Inactive)
REMARK    1  A    between atoms: C_1  and  C_2
REMARK    2  A    between atoms: C_2  and  C_3
REMARK    3  A    between atoms: C_3  and  C_5
REMARK    4  A    between atoms: C_3  and  C_6
REMARK    5  A    between atoms: C_6  and  C_8
REMARK    6  A    between atoms: C_6  and  N_23
REMARK    7  A    between atoms: C_14  and  C_16
REMARK    8  A    between atoms: C_24  and  C_26
REMARK    9  A    between atoms: C_29  and  N_33
REMARK                            x       y       z     vdW  Elec       q    Type
REMARK                         _______ _______ _______ _____ _____    ______ ____
ROOT
ATOM      1  C   UNL     1       0.849  -2.021  -1.205  0.00  0.00    +0.162 C 
ENDROOT
BRANCH   1   2
ATOM      2  C   UNL     1       1.645  -2.416   0.013  0.00  0.00    +0.239 C 
ATOM      3  O   UNL     1       1.147  -3.130   0.857  0.00  0.00    -0.273 OA
ATOM      4  N   UNL     1       2.909  -1.975   0.164  0.00  0.00    -0.262 N 
ATOM      5  C   UNL     1       3.643  -2.339   1.286  0.00  0.00    +0.188 A 
ATOM      6  N   UNL     1       3.303  -3.104   2.315  0.00  0.00    -0.125 NA
ATOM      7  N   UNL     1       4.099  -3.337   3.265  0.00  0.00    -0.140 NA
ATOM      8  C   UNL     1       5.325  -2.829   3.292  0.00  0.00    +0.134 A 
ATOM      9  S   UNL     1       5.318  -1.914   1.753  0.00  0.00    -0.030 S 
ATOM     10  H   UNL     1       3.308  -1.403  -0.511  0.00  0.00    +0.157 HD
BRANCH   8  11
ATOM     11  C   UNL     1       6.394  -2.981   4.302  0.00  0.00    +0.009 A 
ATOM     12  C   UNL     1       7.622  -2.341   4.124  0.00  0.00    +0.013 A 
ATOM     13  C   UNL     1       8.616  -2.487   5.069  0.00  0.00    +0.039 A 
ATOM     14  C   UNL     1       8.397  -3.266   6.194  0.00  0.00    +0.123 A 
ATOM     15  C   UNL     1       7.180  -3.903   6.376  0.00  0.00    +0.039 A 
ATOM     16  C   UNL     1       6.177  -3.760   5.440  0.00  0.00    +0.013 A 
ATOM     17  F   UNL     1       9.374  -3.405   7.117  0.00  0.00    -0.205 F 
ENDBRANCH   8  11
ENDBRANCH   1   2
BRANCH   1  18
ATOM     18  N   UNL     1      -0.484  -2.624  -1.134  0.00  0.00    -0.300 N 
ATOM     19  C   UNL     1      -1.182  -2.851  -2.264  0.00  0.00    +0.246 C 
ATOM     20  O   UNL     1      -0.705  -2.557  -3.343  0.00  0.00    -0.270 OA
ATOM     21  H   UNL     1      -0.865  -2.859  -0.273  0.00  0.00    +0.150 HD
BRANCH  19  22
ATOM     22  C   UNL     1      -2.527  -3.459  -2.192  0.00  0.00    +0.055 A 
ATOM     23  C   UNL     1      -3.080  -3.794  -0.955  0.00  0.00    +0.017 A 
ATOM     24  C   UNL     1      -4.336  -4.360  -0.895  0.00  0.00    +0.033 A 
ATOM     25  C   UNL     1      -5.048  -4.598  -2.057  0.00  0.00    +0.128 A 
ATOM     26  C   UNL     1      -4.508  -4.271  -3.287  0.00  0.00    +0.053 A 
ATOM     27  C   UNL     1      -3.253  -3.697  -3.362  0.00  0.00    +0.055 A 
ATOM     28 CL   UNL     1      -2.578  -3.279  -4.905  0.00  0.00    -0.083 Cl
BRANCH  25  29
ATOM     29  N   UNL     1      -6.396  -5.207  -1.984  0.00  0.00    +0.056 N 
ATOM     30  O   UNL     1      -6.871  -5.495  -0.910  0.00  0.00    -0.126 OA
ATOM     31  O   UNL     1      -7.020  -5.417  -2.998  0.00  0.00    -0.126 OA
ENDBRANCH  25  29
ENDBRANCH  19  22
ENDBRANCH   1  18
BRANCH   1  32
ATOM     32  C   UNL     1       0.718  -0.497  -1.257  0.00  0.00    +0.015 C 
ATOM     33  C   UNL     1      -0.089  -0.097  -2.493  0.00  0.00    +0.010 C 
BRANCH  32  35
ATOM     34  C   UNL     1      -0.019   1.526   0.010  0.00  0.00    +0.004 C 
ATOM     35  C   UNL     1       0.002  -0.004   0.002  0.00  0.00    +0.002 C 
ENDBRANCH  32  35
ENDBRANCH   1  32
TORSDOF 7
