REMARK  Name = ZINC57212661
REMARK  7 active torsions:
REMARK  status: ('A' for Active; 'I' for Inactive)
REMARK    1  A    between atoms: C_1  and  C_2
REMARK    2  A    between atoms: C_5  and  C_7
REMARK    3  A    between atoms: C_7  and  C_8
REMARK    4  A    between atoms: N_10  and  C_11
REMARK    5  A    between atoms: C_11  and  C_13
REMARK    6  A    between atoms: C_11  and  C_14
REMARK    7  A    between atoms: C_17  and  N_20
REMARK                            x       y       z     vdW  Elec       q    Type
REMARK                         _______ _______ _______ _____ _____    ______ ____
ROOT
ATOM      1  C   UNL     1       1.879  -6.209  -3.095  0.00  0.00    +0.100 C 
ATOM      2  C   UNL     1       3.146  -5.739  -3.812  0.00  0.00    +0.033 C 
ENDROOT
BRANCH   1   3
ATOM      3  C   UNL     1       1.801  -7.713  -3.147  0.00  0.00    -0.027 A 
ATOM      4  C   UNL     1       2.539  -8.473  -2.258  0.00  0.00    +0.007 A 
ATOM      5  C   UNL     1       2.470  -9.852  -2.303  0.00  0.00    +0.023 A 
ATOM      6  C   UNL     1       1.659 -10.475  -3.243  0.00  0.00    +0.035 A 
ATOM      7  C   UNL     1       0.919  -9.709  -4.134  0.00  0.00    +0.023 A 
ATOM      8  C   UNL     1       0.988  -8.331  -4.080  0.00  0.00    +0.007 A 
BRANCH   6   9
ATOM      9  N   UNL     1       1.587 -11.872  -3.291  0.00  0.00    -0.270 N 
ATOM     10  C   UNL     1       1.695 -12.592  -2.157  0.00  0.00    +0.301 C 
ATOM     11  O   UNL     1       1.756 -12.027  -1.082  0.00  0.00    -0.253 OA
ATOM     12  N   UNL     1       1.733 -13.938  -2.215  0.00  0.00    -0.313 N 
ATOM     13  H   UNL     1       1.460 -12.322  -4.141  0.00  0.00    +0.156 HD
ATOM     14  H   UNL     1       1.684 -14.388  -3.072  0.00  0.00    +0.146 HD
ATOM     15  H   UNL     1       1.811 -14.456  -1.398  0.00  0.00    +0.146 HD
ENDBRANCH   6   9
ENDBRANCH   1   3
BRANCH   1  18
ATOM     16  C   UNL     1       1.489  -4.535  -1.368  0.00  0.00    +0.218 C 
ATOM     17  O   UNL     1       1.073  -3.788  -2.228  0.00  0.00    -0.275 OA
ATOM     18  N   UNL     1       1.916  -5.770  -1.698  0.00  0.00    -0.308 N 
ATOM     19  H   UNL     1       2.249  -6.368  -1.010  0.00  0.00    +0.149 HD
BRANCH  16  20
ATOM     20  C   UNL     1       1.528  -4.084   0.069  0.00  0.00    +0.138 C 
BRANCH  20  25
ATOM     21  C   UNL     1       0.483   1.479   0.298  0.00  0.00    +0.051 C 
ATOM     22  C   UNL     1       0.502  -0.027   0.277  0.00  0.00    -0.013 A 
ATOM     23  C   UNL     1      -0.528  -0.896   0.424  0.00  0.00    +0.011 A 
ATOM     24  C   UNL     1      -0.273  -2.253   0.368  0.00  0.00    +0.012 A 
ATOM     25  C   UNL     1       0.999  -2.676   0.168  0.00  0.00    -0.001 A 
ATOM     26  S   UNL     1       1.886  -1.131   0.045  0.00  0.00    -0.098 S 
ENDBRANCH  20  25
ENDBRANCH  16  20
ENDBRANCH   1  18
TORSDOF 5
