REMARK  Name = ZINC39863085
REMARK  3 active torsions:
REMARK  status: ('A' for Active; 'I' for Inactive)
REMARK    1  A    between atoms: C_5  and  N_7
REMARK    2  A    between atoms: N_9  and  C_21
REMARK    3  A    between atoms: C_13  and  C_14
REMARK                            x       y       z     vdW  Elec       q    Type
REMARK                         _______ _______ _______ _____ _____    ______ ____
ROOT
ATOM      1  N   UNL     1       1.195  -2.058   0.228  0.00  0.00    -0.206 NA
ATOM      2  C   UNL     1       2.349  -2.669   0.065  0.00  0.00    +0.170 C 
ATOM      3  N   UNL     1       3.609  -2.117   0.009  0.00  0.00    -0.243 N 
ATOM      4  C   UNL     1       4.674  -2.881  -0.161  0.00  0.00    +0.259 C 
ATOM      5  O   UNL     1       5.795  -2.409  -0.212  0.00  0.00    -0.269 OA
ATOM      6  C   UNL     1       4.441  -4.335  -0.285  0.00  0.00    +0.078 C 
ATOM      7  C   UNL     1       5.336  -5.338  -0.463  0.00  0.00    +0.029 C 
ATOM      8  S   UNL     1       2.663  -4.416  -0.128  0.00  0.00    -0.049 S 
ENDROOT
BRANCH   1  13
ATOM      9  C   UNL     1       0.986   1.333  -1.082  0.00  0.00    +0.005 A 
ATOM     10  C   UNL     1       1.008   2.025   0.124  0.00  0.00    +0.020 A 
ATOM     11  C   UNL     1       1.091   1.321   1.309  0.00  0.00    +0.113 A 
ATOM     12  N   UNL     1       1.150   0.004   1.312  0.00  0.00    -0.236 NA
ATOM     13  C   UNL     1       1.132  -0.696   0.182  0.00  0.00    +0.155 A 
ATOM     14  C   UNL     1       1.048  -0.046  -1.054  0.00  0.00    +0.048 A 
ENDBRANCH   1  13
BRANCH   7  15
ATOM     15  C   UNL     1       4.883  -6.736  -0.459  0.00  0.00    -0.006 A 
ATOM     16  C   UNL     1       3.514  -7.044  -0.452  0.00  0.00    +0.011 A 
ATOM     17  C   UNL     1       3.142  -8.375  -0.448  0.00  0.00    +0.020 A 
ATOM     18  C   UNL     1       4.122  -9.353  -0.451  0.00  0.00    +0.111 A 
ATOM     19  N   UNL     1       5.402  -9.037  -0.457  0.00  0.00    -0.263 NA
ATOM     20  C   UNL     1       5.810  -7.785  -0.467  0.00  0.00    +0.118 A 
ENDBRANCH   7  15
BRANCH   3  21
ATOM     21  C   UNL     1       3.771  -0.666   0.139  0.00  0.00    +0.084 C 
ATOM     22  C   UNL     1       4.283  -0.090  -1.183  0.00  0.00    +0.023 C 
ATOM     23  C   UNL     1       4.452   1.424  -1.047  0.00  0.00    +0.002 C 
ATOM     24  C   UNL     1       5.458   1.728   0.065  0.00  0.00    +0.000 C 
ATOM     25  C   UNL     1       4.946   1.152   1.387  0.00  0.00    +0.002 C 
ATOM     26  C   UNL     1       4.777  -0.363   1.251  0.00  0.00    +0.023 C 
ENDBRANCH   3  21
TORSDOF 3
