REMARK  Name = ZINC59382992
REMARK  12 active torsions:
REMARK  status: ('A' for Active; 'I' for Inactive)
REMARK    1  A    between atoms: C_1  and  C_2
REMARK    2  A    between atoms: C_2  and  C_3
REMARK    3  A    between atoms: C_2  and  C_4
REMARK    4  A    between atoms: C_4  and  O_5
REMARK    5  A    between atoms: O_5  and  C_6
REMARK    6  A    between atoms: C_9  and  C_12
REMARK    7  A    between atoms: N_13  and  N_14
REMARK    8  A    between atoms: C_15  and  C_17
REMARK    9  A    between atoms: C_17  and  N_18
REMARK   10  A    between atoms: N_18  and  C_19
REMARK   11  A    between atoms: N_18  and  S_26
REMARK   12  A    between atoms: S_26  and  C_29
REMARK                            x       y       z     vdW  Elec       q    Type
REMARK                         _______ _______ _______ _____ _____    ______ ____
ROOT
ATOM      1  C   UNL     1     -10.832  -1.028  -4.828  0.00  0.00    +0.228 C 
ENDROOT
BRANCH   1   3
ATOM      2  N   UNL     1      -9.094   0.722  -5.008  0.00  0.00    -0.206 N 
ATOM      3  C   UNL     1     -10.170   0.118  -5.549  0.00  0.00    +0.251 C 
ATOM      4  O   UNL     1     -10.605   0.495  -6.617  0.00  0.00    -0.272 OA
ATOM      5  H   UNL     1      -8.746   0.420  -4.154  0.00  0.00    +0.177 HD
BRANCH   2   7
ATOM      6  C   UNL     1      -7.441   2.369  -5.157  0.00  0.00    +0.138 C 
ATOM      7  N   UNL     1      -8.477   1.787  -5.678  0.00  0.00    -0.188 NA
BRANCH   6  11
ATOM      8  C   UNL     1      -5.574   5.595  -7.190  0.00  0.00    +0.121 A 
ATOM      9  C   UNL     1      -5.074   5.165  -5.967  0.00  0.00    +0.046 A 
ATOM     10  C   UNL     1      -5.677   4.118  -5.304  0.00  0.00    +0.013 A 
ATOM     11  C   UNL     1      -6.793   3.490  -5.863  0.00  0.00    -0.005 A 
ATOM     12  C   UNL     1      -7.292   3.926  -7.093  0.00  0.00    +0.013 A 
ATOM     13  C   UNL     1      -6.686   4.977  -7.747  0.00  0.00    +0.046 A 
BRANCH   8  14
ATOM     14  O   UNL     1      -4.976   6.628  -7.840  0.00  0.00    -0.492 OA
BRANCH  14  15
ATOM     15  C   UNL     1      -3.837   7.218  -7.211  0.00  0.00    +0.232 C 
BRANCH  15  17
ATOM     16  C   UNL     1      -4.348   9.472  -8.161  0.00  0.00    +0.010 C 
ATOM     17  C   UNL     1      -3.305   8.356  -8.085  0.00  0.00    +0.020 C 
ATOM     18  C   UNL     1      -2.014   8.906  -7.475  0.00  0.00    +0.010 C 
ENDBRANCH  15  17
ENDBRANCH  14  15
ENDBRANCH   8  14
ENDBRANCH   6  11
ENDBRANCH   2   7
ENDBRANCH   1   3
BRANCH   1  19
ATOM     19  N   UNL     1     -11.970  -1.508  -5.616  0.00  0.00    -0.194 N 
BRANCH  19  20
ATOM     20  C   UNL     1     -11.769  -2.442  -6.635  0.00  0.00    +0.053 A 
ATOM     21  C   UNL     1     -11.963  -2.078  -7.962  0.00  0.00    +0.025 A 
ATOM     22  C   UNL     1     -11.763  -3.002  -8.967  0.00  0.00    +0.003 A 
ATOM     23  C   UNL     1     -11.370  -4.291  -8.656  0.00  0.00    +0.020 A 
ATOM     24  C   UNL     1     -11.175  -4.658  -7.336  0.00  0.00    +0.043 A 
ATOM     25  C   UNL     1     -11.368  -3.735  -6.325  0.00  0.00    +0.044 A 
ATOM     26 CL   UNL     1     -10.682  -6.277  -6.949  0.00  0.00    -0.083 Cl
ENDBRANCH  19  20
BRANCH  19  27
ATOM     27  S   UNL     1     -13.494  -0.945  -5.299  0.00  0.00    +0.075 S 
ATOM     28  O   UNL     1     -14.399  -1.862  -5.898  0.00  0.00    -0.150 OA
ATOM     29  O   UNL     1     -13.532  -0.633  -3.913  0.00  0.00    -0.150 OA
BRANCH  27  30
ATOM     30  C   UNL     1     -13.676   0.580  -6.163  0.00  0.00    +0.109 A 
ATOM     31  C   UNL     1     -13.200   1.752  -5.605  0.00  0.00    +0.029 A 
ATOM     32  C   UNL     1     -13.343   2.948  -6.282  0.00  0.00    +0.002 A 
ATOM     33  C   UNL     1     -13.962   2.972  -7.519  0.00  0.00    +0.000 A 
ATOM     34  C   UNL     1     -14.437   1.801  -8.077  0.00  0.00    +0.002 A 
ATOM     35  C   UNL     1     -14.290   0.604  -7.401  0.00  0.00    +0.029 A 
ENDBRANCH  27  30
ENDBRANCH  19  27
ENDBRANCH   1  19
TORSDOF 10
