REMARK  Name = ZINC62874572
REMARK  4 active torsions:
REMARK  status: ('A' for Active; 'I' for Inactive)
REMARK    1  A    between atoms: C_1  and  C_2
REMARK    2  A    between atoms: C_2  and  C_20
REMARK    3  A    between atoms: N_10  and  C_11
REMARK    4  A    between atoms: C_17  and  N_19
REMARK                            x       y       z     vdW  Elec       q    Type
REMARK                         _______ _______ _______ _____ _____    ______ ____
ROOT
ATOM      1  C   UNL     1      -0.018   1.530   0.011  0.00  0.00    +0.024 C 
ATOM      2  C   UNL     1       0.002  -0.000   0.001  0.00  0.00    +0.085 C 
ATOM      3  C   UNL     1      -1.434  -0.530   0.016  0.00  0.00    +0.021 C 
ATOM      4  C   UNL     1      -2.159  -0.009   1.259  0.00  0.00    +0.020 C 
ATOM      5  C   UNL     1      -1.443  -0.519   2.514  0.00  0.00    +0.109 C 
ATOM      6  N   UNL     1      -0.026  -0.138   2.438  0.00  0.00    -0.285 N 
ATOM      7  C   UNL     1       0.743  -0.510   1.242  0.00  0.00    +0.127 C 
ATOM      8  C   UNL     1       0.557   0.541   3.445  0.00  0.00    +0.302 C 
ATOM      9  O   UNL     1       1.751   0.770   3.412  0.00  0.00    -0.253 OA
ATOM     10  N   UNL     1      -0.182   0.964   4.489  0.00  0.00    -0.298 N 
ATOM     11  H   UNL     1      -1.118   0.718   4.552  0.00  0.00    +0.150 HD
ENDROOT
BRANCH  10  12
ATOM     12  C   UNL     1       0.428   1.797   5.529  0.00  0.00    +0.060 C 
ATOM     13  C   UNL     1       0.390   3.264   5.096  0.00  0.00    +0.021 C 
ATOM     14  C   UNL     1       1.027   4.133   6.182  0.00  0.00    +0.002 C 
ATOM     15  C   UNL     1       0.250   3.967   7.489  0.00  0.00    -0.001 C 
ATOM     16  C   UNL     1       0.288   2.500   7.922  0.00  0.00    -0.014 C 
ATOM     17  C   UNL     1      -0.349   1.631   6.836  0.00  0.00    -0.054 C 
BRANCH  17  18
ATOM     18  N   UNL     1      -0.313   0.223   7.253  0.00  0.00    +0.381 N 
ATOM     19  H   UNL     1       0.645  -0.062   7.393  0.00  0.00    -0.090 HD
ATOM     20  H   UNL     1      -0.826   0.113   8.115  0.00  0.00    -0.090 HD
ATOM     21  H   UNL     1      -0.733  -0.351   6.536  0.00  0.00    -0.090 HD
ENDBRANCH  17  18
ENDBRANCH  10  12
BRANCH   2  22
ATOM     22  C   UNL     1       0.706  -0.486  -1.240  0.00  0.00    +0.363 C 
ATOM     23  O   UNL     1       1.867  -0.175  -1.443  0.00  0.00    -0.246 OA
ATOM     24  O   UNL     1       0.114  -1.190  -2.040  0.00  0.00    -0.246 OA
ENDBRANCH   2  22
TORSDOF 3
