REMARK  Name = ZINC01127875
REMARK  7 active torsions:
REMARK  status: ('A' for Active; 'I' for Inactive)
REMARK    1  A    between atoms: C_1  and  C_2
REMARK    2  A    between atoms: C_5  and  C_8
REMARK    3  A    between atoms: C_8  and  N_9
REMARK    4  A    between atoms: C_10  and  C_23
REMARK    5  A    between atoms: N_14  and  C_17
REMARK    6  A    between atoms: C_23  and  C_24
REMARK    7  A    between atoms: N_26  and  C_27
REMARK                            x       y       z     vdW  Elec       q    Type
REMARK                         _______ _______ _______ _____ _____    ______ ____
ROOT
ATOM      1  N   UNL     1       1.473  -5.225  -0.472  0.00  0.00    -0.269 N 
ATOM      2  C   UNL     1       2.345  -5.373  -1.650  0.00  0.00    +0.173 C 
ATOM      3  C   UNL     1       3.600  -6.010  -1.087  0.00  0.00    +0.248 C 
ATOM      4  O   UNL     1       4.601  -6.319  -1.696  0.00  0.00    -0.273 OA
ATOM      5  N   UNL     1       3.371  -6.160   0.233  0.00  0.00    -0.193 N 
ATOM      6  C   UNL     1       2.161  -5.707   0.579  0.00  0.00    +0.317 C 
ATOM      7  O   UNL     1       1.729  -5.731   1.715  0.00  0.00    -0.252 OA
ENDROOT
BRANCH   5   8
ATOM      8  C   UNL     1       4.290  -6.718   1.133  0.00  0.00    +0.045 A 
ATOM      9  C   UNL     1       4.001  -6.752   2.490  0.00  0.00    +0.024 A 
ATOM     10  C   UNL     1       4.908  -7.303   3.375  0.00  0.00    +0.002 A 
ATOM     11  C   UNL     1       6.103  -7.820   2.909  0.00  0.00    +0.000 A 
ATOM     12  C   UNL     1       6.393  -7.788   1.558  0.00  0.00    +0.002 A 
ATOM     13  C   UNL     1       5.487  -7.244   0.668  0.00  0.00    +0.024 A 
ENDBRANCH   5   8
BRANCH   1  14
ATOM     14  C   UNL     1       0.123  -4.657  -0.448  0.00  0.00    +0.145 C 
BRANCH  14  19
ATOM     15  C   UNL     1      -3.764  -8.901  -0.970  0.00  0.00    +0.044 C 
ATOM     16  C   UNL     1      -2.751  -7.794  -0.834  0.00  0.00    -0.050 A 
ATOM     17  C   UNL     1      -2.236  -7.478   0.409  0.00  0.00    +0.003 A 
ATOM     18  C   UNL     1      -1.306  -6.462   0.534  0.00  0.00    +0.005 A 
ATOM     19  C   UNL     1      -0.890  -5.764  -0.585  0.00  0.00    -0.030 A 
ATOM     20  C   UNL     1      -1.405  -6.081  -1.828  0.00  0.00    +0.005 A 
ATOM     21  C   UNL     1      -2.331  -7.099  -1.953  0.00  0.00    +0.003 A 
ENDBRANCH  14  19
ENDBRANCH   1  14
BRANCH   2  22
ATOM     22  C   UNL     1       2.659  -4.006  -2.263  0.00  0.00    +0.128 C 
BRANCH  22  23
ATOM     23  C   UNL     1       1.415  -3.443  -2.899  0.00  0.00    +0.219 C 
ATOM     24  O   UNL     1       0.471  -4.169  -3.133  0.00  0.00    -0.275 OA
ATOM     25  N   UNL     1       1.350  -2.133  -3.208  0.00  0.00    -0.285 N 
ATOM     26  H   UNL     1       2.137  -1.574  -3.117  0.00  0.00    +0.155 HD
BRANCH  25  27
ATOM     27  C   UNL     1       0.147  -1.580  -3.662  0.00  0.00    +0.033 A 
ATOM     28  C   UNL     1      -1.064  -2.066  -3.189  0.00  0.00    +0.023 A 
ATOM     29  C   UNL     1      -2.250  -1.518  -3.639  0.00  0.00    +0.002 A 
ATOM     30  C   UNL     1      -2.231  -0.486  -4.559  0.00  0.00    +0.000 A 
ATOM     31  C   UNL     1      -1.026   0.000  -5.032  0.00  0.00    +0.002 A 
ATOM     32  C   UNL     1       0.163  -0.540  -4.582  0.00  0.00    +0.023 A 
ENDBRANCH  25  27
ENDBRANCH  22  23
ENDBRANCH   2  22
TORSDOF 6
