REMARK  Name = ZINC08751080
REMARK  3 active torsions:
REMARK  status: ('A' for Active; 'I' for Inactive)
REMARK    1  A    between atoms: C_3  and  C_9
REMARK    2  A    between atoms: C_9  and  S_10
REMARK    3  A    between atoms: S_10  and  C_11
REMARK                            x       y       z     vdW  Elec       q    Type
REMARK                         _______ _______ _______ _____ _____    ______ ____
ROOT
ATOM      1  C   UNL     1       4.519  -0.090  -1.458  0.00  0.00    +0.195 A 
ATOM      2  N   UNL     1       4.940  -0.321  -0.218  0.00  0.00    -0.189 NA
ATOM      3  C   UNL     1       6.083  -0.967  -0.014  0.00  0.00    +0.218 A 
ATOM      4  N   UNL     1       6.811  -1.374  -1.049  0.00  0.00    -0.181 NA
ATOM      5  C   UNL     1       6.392  -1.140  -2.289  0.00  0.00    +0.218 A 
ATOM      6  N   UNL     1       5.247  -0.498  -2.494  0.00  0.00    -0.189 NA
ATOM      7  N   UNL     1       7.148  -1.563  -3.364  0.00  0.00    -0.327 N 
ATOM      8  N   UNL     1       6.519  -1.210   1.273  0.00  0.00    -0.327 N 
ATOM      9  H   UNL     1       6.842  -1.392  -4.269  0.00  0.00    +0.145 HD
ATOM     10  H   UNL     1       7.984  -2.032  -3.215  0.00  0.00    +0.145 HD
ATOM     11  H   UNL     1       7.355  -1.678   1.422  0.00  0.00    +0.145 HD
ATOM     12  H   UNL     1       5.988  -0.913   2.029  0.00  0.00    +0.145 HD
ENDROOT
BRANCH   1  13
ATOM     13  S   UNL     1       3.000   0.760  -1.729  0.00  0.00    -0.081 S 
BRANCH  13  14
ATOM     14  C   UNL     1       2.490   1.046  -0.016  0.00  0.00    +0.113 C 
BRANCH  14  17
ATOM     15  C   UNL     1      -1.219   1.750   0.017  0.00  0.00    +0.039 A 
ATOM     16  C   UNL     1      -0.013   1.076   0.008  0.00  0.00    +0.008 A 
ATOM     17  C   UNL     1       1.175   1.783   0.000  0.00  0.00    -0.023 A 
ATOM     18  C   UNL     1       1.158   3.166   0.007  0.00  0.00    +0.025 A 
ATOM     19  C   UNL     1      -0.048   3.842   0.022  0.00  0.00    +0.054 A 
ATOM     20  C   UNL     1      -1.238   3.135   0.030  0.00  0.00    +0.124 A 
ATOM     21  F   UNL     1      -2.417   3.794   0.045  0.00  0.00    -0.205 F 
ATOM     22 BR   UNL     1       2.783   4.132  -0.003  0.00  0.00    -0.050 Br
ENDBRANCH  14  17
ENDBRANCH  13  14
ENDBRANCH   1  13
TORSDOF 3
