REMARK  Name = ZINC02444355
REMARK  13 active torsions:
REMARK  status: ('A' for Active; 'I' for Inactive)
REMARK    1  A    between atoms: C_1  and  C_2
REMARK    2  A    between atoms: C_2  and  O_3
REMARK    3  A    between atoms: O_3  and  C_4
REMARK    4  A    between atoms: C_9  and  N_10
REMARK    5  A    between atoms: C_11  and  C_13
REMARK    6  A    between atoms: C_13  and  S_14
REMARK    7  A    between atoms: S_14  and  C_15
REMARK    8  A    between atoms: C_18  and  C_21
REMARK    9  A    between atoms: N_19  and  C_20
REMARK   10  A    between atoms: C_24  and  C_27
REMARK   11  A    between atoms: C_27  and  C_28
REMARK   12  A    between atoms: C_27  and  C_29
REMARK   13  A    between atoms: C_27  and  C_30
REMARK                            x       y       z     vdW  Elec       q    Type
REMARK                         _______ _______ _______ _____ _____    ______ ____
ROOT
ATOM      1  C   UNL     1       1.678   2.253  -0.101  0.00  0.00    +0.192 A 
ATOM      2  N   UNL     1       2.666   1.405   0.075  0.00  0.00    -0.122 NA
ATOM      3  N   UNL     1       3.784   2.035   0.134  0.00  0.00    -0.128 NA
ATOM      4  C   UNL     1       3.578   3.326   0.010  0.00  0.00    +0.165 A 
ATOM      5  N   UNL     1       2.223   3.505  -0.145  0.00  0.00    -0.305 N 
ATOM      6  C   UNL     1       1.512   4.774  -0.320  0.00  0.00    +0.153 C 
ENDROOT
BRANCH   4   7
ATOM      7  C   UNL     1       4.607   4.386   0.032  0.00  0.00    +0.019 A 
ATOM      8  C   UNL     1       5.951   4.064  -0.166  0.00  0.00    +0.012 A 
ATOM      9  C   UNL     1       6.906   5.059  -0.149  0.00  0.00    +0.005 A 
ATOM     10  C   UNL     1       6.536   6.373   0.074  0.00  0.00    -0.042 A 
ATOM     11  C   UNL     1       5.207   6.699   0.277  0.00  0.00    +0.005 A 
ATOM     12  C   UNL     1       4.241   5.714   0.257  0.00  0.00    +0.012 A 
BRANCH  10  13
ATOM     13  C   UNL     1       7.585   7.455   0.098  0.00  0.00    -0.013 C 
ATOM     14  C   UNL     1       7.576   8.145   1.463  0.00  0.00    +0.015 C 
ATOM     15  C   UNL     1       8.962   6.835  -0.151  0.00  0.00    +0.015 C 
ATOM     16  C   UNL     1       7.284   8.482  -0.995  0.00  0.00    +0.015 C 
ENDBRANCH  10  13
ENDBRANCH   4   7
BRANCH   1  17
ATOM     17  S   UNL     1      -0.031   1.851  -0.246  0.00  0.00    -0.077 S 
BRANCH  17  18
ATOM     18  C   UNL     1       0.055   0.050  -0.093  0.00  0.00    +0.173 C 
BRANCH  18  20
ATOM     19  N   UNL     1      -1.514  -1.863  -0.103  0.00  0.00    -0.282 N 
ATOM     20  C   UNL     1      -1.332  -0.530  -0.190  0.00  0.00    +0.228 C 
ATOM     21  O   UNL     1      -2.286   0.203  -0.347  0.00  0.00    -0.275 OA
ATOM     22  H   UNL     1      -0.747  -2.454  -0.056  0.00  0.00    +0.155 HD
BRANCH  19  28
ATOM     23  C   UNL     1      -3.035  -3.705  -0.488  0.00  0.00    +0.142 A 
ATOM     24  C   UNL     1      -4.320  -4.225  -0.463  0.00  0.00    +0.047 A 
ATOM     25  C   UNL     1      -5.374  -3.441  -0.031  0.00  0.00    +0.004 A 
ATOM     26  C   UNL     1      -5.151  -2.139   0.376  0.00  0.00    +0.002 A 
ATOM     27  C   UNL     1      -3.872  -1.615   0.358  0.00  0.00    +0.027 A 
ATOM     28  C   UNL     1      -2.810  -2.393  -0.079  0.00  0.00    +0.076 A 
BRANCH  23  29
ATOM     29  O   UNL     1      -1.998  -4.475  -0.912  0.00  0.00    -0.490 OA
BRANCH  29  31
ATOM     30  C   UNL     1      -1.019  -6.517  -1.757  0.00  0.00    +0.048 C 
ATOM     31  C   UNL     1      -2.303  -5.811  -1.317  0.00  0.00    +0.226 C 
ENDBRANCH  29  31
ENDBRANCH  23  29
ENDBRANCH  19  28
ENDBRANCH  18  20
ENDBRANCH  17  18
ENDBRANCH   1  17
TORSDOF 8
