REMARK  Name = ZINC41519354
REMARK  6 active torsions:
REMARK  status: ('A' for Active; 'I' for Inactive)
REMARK    1  A    between atoms: C_4  and  N_11
REMARK    2  A    between atoms: C_5  and  C_7
REMARK    3  A    between atoms: C_7  and  C_8
REMARK    4  A    between atoms: C_12  and  C_14
REMARK    5  A    between atoms: N_16  and  C_17
REMARK    6  A    between atoms: C_17  and  C_18
REMARK                            x       y       z     vdW  Elec       q    Type
REMARK                         _______ _______ _______ _____ _____    ______ ____
ROOT
ATOM      1  C   UNL     1       6.067  -0.690  -0.298  0.00  0.00    +0.300 C 
ATOM      2  O   UNL     1       6.082  -1.904  -0.293  0.00  0.00    -0.265 OA
ATOM      3  N   UNL     1       7.221  -0.003  -0.405  0.00  0.00    -0.303 N 
ATOM      4  H   UNL     1       7.210   0.967  -0.410  0.00  0.00    +0.149 HD
ENDROOT
BRANCH   1   6
ATOM      5  N   UNL     1       3.615  -0.646  -0.081  0.00  0.00    -0.277 N 
ATOM      6  C   UNL     1       4.770   0.042  -0.187  0.00  0.00    +0.303 C 
ATOM      7  O   UNL     1       4.755   1.255  -0.193  0.00  0.00    -0.265 OA
ATOM      8  H   UNL     1       3.631  -1.613  -0.014  0.00  0.00    +0.155 HD
BRANCH   5  12
ATOM      9  C   UNL     1      -0.020   1.385  -0.038  0.00  0.00    +0.000 A 
ATOM     10  C   UNL     1       1.095   1.955   0.549  0.00  0.00    +0.002 A 
ATOM     11  C   UNL     1       2.302   1.284   0.537  0.00  0.00    +0.023 A 
ATOM     12  C   UNL     1       2.396   0.035  -0.066  0.00  0.00    +0.037 A 
ATOM     13  C   UNL     1       1.273  -0.534  -0.654  0.00  0.00    -0.017 A 
ATOM     14  C   UNL     1       0.069   0.143  -0.639  0.00  0.00    +0.006 A 
BRANCH  13  15
ATOM     15  C   UNL     1       1.370  -1.887  -1.310  0.00  0.00    +0.132 C 
BRANCH  15  16
ATOM     16  C   UNL     1       1.191  -2.963  -0.269  0.00  0.00    +0.215 C 
ATOM     17  O   UNL     1       1.004  -2.660   0.890  0.00  0.00    -0.276 OA
ATOM     18  N   UNL     1       1.239  -4.261  -0.627  0.00  0.00    -0.329 N 
ATOM     19  H   UNL     1       1.389  -4.504  -1.554  0.00  0.00    +0.145 HD
ATOM     20  H   UNL     1       1.124  -4.954   0.043  0.00  0.00    +0.145 HD
ENDBRANCH  15  16
ENDBRANCH  13  15
ENDBRANCH   5  12
ENDBRANCH   1   6
BRANCH   3  21
ATOM     21  C   UNL     1       8.494  -0.721  -0.514  0.00  0.00    +0.141 C 
BRANCH  21  22
ATOM     22  C   UNL     1       9.623   0.272  -0.621  0.00  0.00    -0.014 A 
ATOM     23  C   UNL     1      10.038   0.731  -1.864  0.00  0.00    +0.010 A 
ATOM     24  C   UNL     1      11.078   1.641  -1.917  0.00  0.00    +0.042 A 
ATOM     25  C   UNL     1      11.669   2.064  -0.731  0.00  0.00    +0.099 A 
ATOM     26  N   UNL     1      11.245   1.602   0.435  0.00  0.00    -0.349 N 
ATOM     27  C   UNL     1      10.251   0.738   0.517  0.00  0.00    +0.089 A 
ATOM     28  N   UNL     1      12.716   2.978  -0.770  0.00  0.00    -0.317 N 
ATOM     29  C   UNL     1      13.441   3.338   0.456  0.00  0.00    +0.106 C 
ATOM     30  C   UNL     1      14.940   3.121   0.224  0.00  0.00    +0.019 C 
ATOM     31  C   UNL     1      15.378   3.901  -1.018  0.00  0.00    +0.003 C 
ATOM     32  C   UNL     1      14.619   3.383  -2.242  0.00  0.00    +0.019 C 
ATOM     33  C   UNL     1      13.121   3.598  -2.039  0.00  0.00    +0.106 C 
ATOM     34  H   UNL     1      11.672   1.910   1.250  0.00  0.00    +0.167 HD
ENDBRANCH  21  22
ENDBRANCH   3  21
TORSDOF 6
