REMARK  Name = ZINC43093513
REMARK  11 active torsions:
REMARK  status: ('A' for Active; 'I' for Inactive)
REMARK    1  A    between atoms: C_1  and  C_2
REMARK    2  A    between atoms: C_2  and  C_4
REMARK    3  A    between atoms: C_2  and  N_22
REMARK    4  A    between atoms: C_4  and  C_6
REMARK    5  A    between atoms: C_4  and  N_13
REMARK    6  A    between atoms: N_13  and  C_14
REMARK    7  A    between atoms: N_13  and  C_18
REMARK    8  A    between atoms: C_14  and  C_15
REMARK    9  A    between atoms: C_15  and  C_16
REMARK   10  A    between atoms: C_15  and  C_17
REMARK   11  A    between atoms: C_18  and  C_19
REMARK                            x       y       z     vdW  Elec       q    Type
REMARK                         _______ _______ _______ _____ _____    ______ ____
ROOT
ATOM      1  C   UNL     1       0.736  -0.414   1.088  0.00  0.00    +0.074 C 
ENDROOT
BRANCH   1   2
ATOM      2  C   UNL     1       0.745  -1.915   0.959  0.00  0.00    -0.018 A 
ATOM      3  C   UNL     1      -0.210  -2.671   1.613  0.00  0.00    +0.006 A 
ATOM      4  C   UNL     1      -0.203  -4.048   1.494  0.00  0.00    +0.000 A 
ATOM      5  C   UNL     1       0.759  -4.670   0.720  0.00  0.00    +0.001 A 
ATOM      6  C   UNL     1       1.714  -3.916   0.065  0.00  0.00    +0.015 A 
ATOM      7  C   UNL     1       1.704  -2.537   0.180  0.00  0.00    +0.022 A 
ATOM      8 BR   UNL     1       3.005  -1.503  -0.722  0.00  0.00    -0.050 Br
ENDBRANCH   1   2
BRANCH   1  10
ATOM      9  C   UNL     1      -0.298   1.700   0.247  0.00  0.00    -0.012 C 
ATOM     10  C   UNL     1      -0.326   0.173   0.156  0.00  0.00    -0.056 C 
BRANCH  10  11
ATOM     11  N   UNL     1      -0.047  -0.240  -1.226  0.00  0.00    +0.381 N 
ATOM     12  H   UNL     1      -0.066  -1.248  -1.286  0.00  0.00    -0.090 HD
ATOM     13  H   UNL     1      -0.748   0.146  -1.840  0.00  0.00    -0.090 HD
ATOM     14  H   UNL     1       0.864   0.096  -1.500  0.00  0.00    -0.090 HD
ENDBRANCH  10  11
ENDBRANCH   1  10
BRANCH   1  15
ATOM     15  N   UNL     1       0.428  -0.044   2.476  0.00  0.00    -0.288 NA
BRANCH  15  16
ATOM     16  C   UNL     1      -1.022   0.054   2.685  0.00  0.00    +0.088 C 
BRANCH  16  17
ATOM     17  C   UNL     1      -1.300   0.811   3.985  0.00  0.00    -0.003 C 
ATOM     18  C   UNL     1      -0.789   2.247   3.859  0.00  0.00    +0.008 C 
ATOM     19  C   UNL     1      -2.807   0.827   4.254  0.00  0.00    +0.008 C 
ENDBRANCH  16  17
ENDBRANCH  15  16
BRANCH  15  20
ATOM     20  C   UNL     1       1.034  -0.992   3.420  0.00  0.00    +0.180 C 
BRANCH  20  21
ATOM     21  C   UNL     1       2.513  -0.721   3.525  0.00  0.00    +0.225 C 
ATOM     22  O   UNL     1       2.996   0.234   2.955  0.00  0.00    -0.275 OA
ATOM     23  N   UNL     1       3.298  -1.540   4.253  0.00  0.00    -0.328 N 
ATOM     24  H   UNL     1       2.911  -2.303   4.710  0.00  0.00    +0.145 HD
ATOM     25  H   UNL     1       4.250  -1.365   4.321  0.00  0.00    +0.145 HD
ENDBRANCH  20  21
ENDBRANCH  15  20
ENDBRANCH   1  15
TORSDOF 8
