REMARK  Name = ZINC03618099
REMARK  6 active torsions:
REMARK  status: ('A' for Active; 'I' for Inactive)
REMARK    1  A    between atoms: C_1  and  C_2
REMARK    2  A    between atoms: C_7  and  C_17
REMARK    3  A    between atoms: C_7  and  C_21
REMARK    4  A    between atoms: C_9  and  C_10
REMARK    5  A    between atoms: C_17  and  O_19
REMARK    6  A    between atoms: O_19  and  C_20
REMARK                            x       y       z     vdW  Elec       q    Type
REMARK                         _______ _______ _______ _____ _____    ______ ____
ROOT
ATOM      1  C   UNL     1      -4.706   5.288   0.473  0.00  0.00    +0.045 C 
ATOM      2  C   UNL     1      -4.785   3.788   0.356  0.00  0.00    -0.036 C 
ATOM      3  C   UNL     1      -3.655   3.066   0.243  0.00  0.00    +0.087 C 
ATOM      4  N   UNL     1      -3.696   1.699   0.135  0.00  0.00    -0.245 N 
ATOM      5  C   UNL     1      -4.911   1.052   0.143  0.00  0.00    +0.129 C 
ATOM      6  N   UNL     1      -4.984  -0.259   0.042  0.00  0.00    -0.220 NA
ATOM      7  C   UNL     1      -3.740  -1.032  -0.082  0.00  0.00    +0.347 C 
ATOM      8  N   UNL     1      -2.472  -0.289  -0.091  0.00  0.00    -0.220 NA
ATOM      9  C   UNL     1      -2.503   1.005   0.020  0.00  0.00    +0.136 C 
ATOM     10  C   UNL     1      -6.107   1.801   0.263  0.00  0.00    +0.044 C 
ATOM     11  C   UNL     1      -6.040   3.152   0.368  0.00  0.00    +0.008 C 
ENDROOT
BRANCH   9  12
ATOM     12  C   UNL     1      -1.230   1.758   0.017  0.00  0.00    +0.015 A 
ATOM     13  C   UNL     1      -0.269   1.506  -0.962  0.00  0.00    +0.014 A 
ATOM     14  C   UNL     1       0.914   2.214  -0.963  0.00  0.00    +0.039 A 
ATOM     15  C   UNL     1       1.152   3.172   0.010  0.00  0.00    +0.123 A 
ATOM     16  C   UNL     1       0.202   3.423   0.988  0.00  0.00    +0.039 A 
ATOM     17  C   UNL     1      -0.984   2.721   0.997  0.00  0.00    +0.014 A 
ATOM     18  F   UNL     1       2.313   3.863   0.005  0.00  0.00    -0.205 F 
ENDBRANCH   9  12
BRANCH   7  19
ATOM     19  C   UNL     1      -3.816  -1.834  -1.383  0.00  0.00    +0.446 C 
ATOM     20  F   UNL     1      -3.952  -0.957  -2.464  0.00  0.00    -0.166 F 
ATOM     21  F   UNL     1      -2.645  -2.585  -1.537  0.00  0.00    -0.166 F 
ATOM     22  F   UNL     1      -4.919  -2.693  -1.338  0.00  0.00    -0.166 F 
ENDBRANCH   7  19
BRANCH   7  23
ATOM     23  C   UNL     1      -3.694  -2.017   1.058  0.00  0.00    +0.367 C 
ATOM     24  O   UNL     1      -2.673  -2.165   1.687  0.00  0.00    -0.246 OA
BRANCH  23  25
ATOM     25  O   UNL     1      -4.787  -2.729   1.374  0.00  0.00    -0.465 OA
ATOM     26  C   UNL     1      -4.670  -3.658   2.484  0.00  0.00    +0.280 C 
ENDBRANCH  23  25
ENDBRANCH   7  23
TORSDOF 4
