REMARK  Name = ZINC40361155
REMARK  11 active torsions:
REMARK  status: ('A' for Active; 'I' for Inactive)
REMARK    1  A    between atoms: C_2  and  C_3
REMARK    2  A    between atoms: C_3  and  N_4
REMARK    3  A    between atoms: C_5  and  C_32
REMARK    4  A    between atoms: C_6  and  C_26
REMARK    5  A    between atoms: C_8  and  S_9
REMARK    6  A    between atoms: S_9  and  C_10
REMARK    7  A    between atoms: C_10  and  C_11
REMARK    8  A    between atoms: C_11  and  N_12
REMARK    9  A    between atoms: C_13  and  C_15
REMARK   10  A    between atoms: C_16  and  C_17
REMARK   11  A    between atoms: C_20  and  N_23
REMARK                            x       y       z     vdW  Elec       q    Type
REMARK                         _______ _______ _______ _____ _____    ______ ____
ROOT
ATOM      1  N   UNL     1       1.367  -1.676   1.111  0.00  0.00    -0.314 N 
ATOM      2  C   UNL     1       1.841  -1.406   2.382  0.00  0.00    +0.078 A 
ATOM      3  C   UNL     1       1.695  -2.573   3.107  0.00  0.00    +0.098 A 
ATOM      4  N   UNL     1       1.154  -3.497   2.289  0.00  0.00    -0.221 NA
ATOM      5  C   UNL     1       0.950  -2.972   1.104  0.00  0.00    +0.170 A 
ENDROOT
BRANCH   3   6
ATOM      6  C   UNL     1       2.068  -2.772   4.526  0.00  0.00    +0.002 A 
ATOM      7  C   UNL     1       3.185  -2.125   5.055  0.00  0.00    +0.010 A 
ATOM      8  C   UNL     1       3.527  -2.315   6.378  0.00  0.00    +0.001 A 
ATOM      9  C   UNL     1       2.764  -3.146   7.180  0.00  0.00    +0.000 A 
ATOM     10  C   UNL     1       1.655  -3.790   6.662  0.00  0.00    +0.001 A 
ATOM     11  C   UNL     1       1.300  -3.603   5.342  0.00  0.00    +0.010 A 
ENDBRANCH   3   6
BRANCH   2  12
ATOM     12  C   UNL     1       2.394  -0.127   2.867  0.00  0.00    +0.001 A 
ATOM     13  C   UNL     1       3.308   0.584   2.086  0.00  0.00    +0.010 A 
ATOM     14  C   UNL     1       3.820   1.780   2.546  0.00  0.00    +0.001 A 
ATOM     15  C   UNL     1       3.430   2.275   3.778  0.00  0.00    +0.000 A 
ATOM     16  C   UNL     1       2.526   1.575   4.558  0.00  0.00    +0.001 A 
ATOM     17  C   UNL     1       2.001   0.382   4.108  0.00  0.00    +0.010 A 
ENDBRANCH   2  12
BRANCH   1  18
ATOM     18  C   UNL     1       1.317  -0.740  -0.015  0.00  0.00    +0.151 C 
BRANCH  18  20
ATOM     19  C   UNL     1      -0.016   1.306   0.009  0.00  0.00    +0.005 C 
ATOM     20  C   UNL     1       0.002  -0.004   0.002  0.00  0.00    -0.013 C 
ENDBRANCH  18  20
ENDBRANCH   1  18
BRANCH   5  21
ATOM     21  S   UNL     1       0.252  -3.812  -0.278  0.00  0.00    -0.086 S 
BRANCH  21  22
ATOM     22  C   UNL     1      -0.087  -5.481   0.348  0.00  0.00    +0.096 C 
BRANCH  22  23
ATOM     23  C   UNL     1      -0.704  -6.328  -0.767  0.00  0.00    +0.115 C 
BRANCH  23  24
ATOM     24  N   UNL     1      -0.979  -7.675  -0.262  0.00  0.00    -0.311 N 
ATOM     25  C   UNL     1      -1.527  -8.601  -1.073  0.00  0.00    +0.237 C 
ATOM     26  O   UNL     1      -1.794  -8.317  -2.226  0.00  0.00    -0.271 OA
ATOM     27  H   UNL     1      -0.765  -7.901   0.657  0.00  0.00    +0.149 HD
BRANCH  25  28
ATOM     28  C   UNL     1      -1.801  -9.947  -0.568  0.00  0.00    +0.068 C 
ATOM     29  C   UNL     1      -2.349 -10.873  -1.380  0.00  0.00    +0.013 C 
BRANCH  29  30
ATOM     30  C   UNL     1      -2.625 -12.227  -0.873  0.00  0.00    -0.025 A 
ATOM     31  C   UNL     1      -2.324 -12.555   0.453  0.00  0.00    +0.010 A 
ATOM     32  C   UNL     1      -2.586 -13.825   0.922  0.00  0.00    +0.033 A 
ATOM     33  C   UNL     1      -3.143 -14.775   0.083  0.00  0.00    +0.126 A 
ATOM     34  C   UNL     1      -3.443 -14.458  -1.230  0.00  0.00    +0.033 A 
ATOM     35  C   UNL     1      -3.193 -13.191  -1.712  0.00  0.00    +0.010 A 
BRANCH  33  36
ATOM     36  N   UNL     1      -3.421 -16.136   0.594  0.00  0.00    +0.056 N 
ATOM     37  O   UNL     1      -3.160 -16.416   1.741  0.00  0.00    -0.126 OA
ATOM     38  O   UNL     1      -3.908 -16.968  -0.136  0.00  0.00    -0.126 OA
ENDBRANCH  33  36
ENDBRANCH  29  30
ENDBRANCH  25  28
ENDBRANCH  23  24
ENDBRANCH  22  23
ENDBRANCH  21  22
ENDBRANCH   5  21
TORSDOF 11
