REMARK  Name = ZINC37425875
REMARK  14 active torsions:
REMARK  status: ('A' for Active; 'I' for Inactive)
REMARK    1  A    between atoms: C_1  and  C_2
REMARK    2  A    between atoms: C_6  and  N_9
REMARK    3  A    between atoms: C_7  and  C_8
REMARK    4  A    between atoms: C_12  and  C_14
REMARK    5  A    between atoms: C_14  and  C_15
REMARK    6  A    between atoms: C_14  and  C_16
REMARK    7  A    between atoms: C_14  and  C_17
REMARK    8  A    between atoms: C_18  and  C_33
REMARK    9  A    between atoms: N_24  and  C_25
REMARK   10  A    between atoms: C_25  and  C_26
REMARK   11  A    between atoms: N_28  and  C_29
REMARK   12  A    between atoms: C_29  and  C_30
REMARK   13  A    between atoms: C_30  and  C_31
REMARK   14  A    between atoms: C_30  and  C_32
REMARK                            x       y       z     vdW  Elec       q    Type
REMARK                         _______ _______ _______ _____ _____    ______ ____
ROOT
ATOM      1  N   UNL     1      -2.260  -2.567   3.291  0.00  0.00    -0.217 N 
ATOM      2  C   UNL     1      -2.992  -3.599   3.772  0.00  0.00    +0.136 A 
ATOM      3  C   UNL     1      -2.315  -4.150   4.805  0.00  0.00    +0.034 A 
ATOM      4  C   UNL     1      -1.125  -3.439   4.965  0.00  0.00    +0.075 A 
ATOM      5  N   UNL     1      -1.085  -2.495   4.057  0.00  0.00    -0.169 NA
ATOM      6  C   UNL     1      -2.795  -5.323   5.622  0.00  0.00    +0.112 C 
ATOM      7  S   UNL     1      -2.634  -6.840   4.613  0.00  0.00    -0.138 S 
ATOM      8  C   UNL     1      -3.186  -6.262   2.973  0.00  0.00    +0.166 C 
ATOM      9  C   UNL     1      -4.386  -5.374   3.100  0.00  0.00    +0.231 C 
ATOM     10  O   UNL     1      -5.500  -5.847   3.006  0.00  0.00    -0.274 OA
ATOM     11  N   UNL     1      -4.236  -4.064   3.317  0.00  0.00    -0.246 N 
ENDROOT
BRANCH   1  17
ATOM     12  C   UNL     1      -1.382  -0.930  -1.263  0.00  0.00    +0.044 C 
ATOM     13  C   UNL     1      -2.198  -0.917   0.003  0.00  0.00    -0.046 A 
ATOM     14  C   UNL     1      -3.292  -0.076   0.112  0.00  0.00    +0.004 A 
ATOM     15  C   UNL     1      -4.043  -0.061   1.272  0.00  0.00    +0.002 A 
ATOM     16  C   UNL     1      -3.703  -0.885   2.327  0.00  0.00    +0.028 A 
ATOM     17  C   UNL     1      -2.607  -1.730   2.222  0.00  0.00    +0.071 A 
ATOM     18  C   UNL     1      -1.857  -1.747   1.053  0.00  0.00    -0.022 A 
ATOM     19  C   UNL     1      -0.670  -2.667   0.931  0.00  0.00    +0.046 C 
ENDBRANCH   1  17
BRANCH   6  20
ATOM     20  C   UNL     1      -1.958  -5.448   6.868  0.00  0.00    -0.030 A 
ATOM     21  C   UNL     1      -2.364  -4.833   8.038  0.00  0.00    +0.008 A 
ATOM     22  C   UNL     1      -1.598  -4.948   9.182  0.00  0.00    +0.038 A 
ATOM     23  C   UNL     1      -0.422  -5.679   9.156  0.00  0.00    +0.123 A 
ATOM     24  C   UNL     1      -0.016  -6.294   7.985  0.00  0.00    +0.038 A 
ATOM     25  C   UNL     1      -0.787  -6.183   6.843  0.00  0.00    +0.008 A 
ATOM     26  F   UNL     1       0.329  -5.791  10.274  0.00  0.00    -0.205 F 
ENDBRANCH   6  20
BRANCH   4  27
ATOM     27  C   UNL     1      -0.064  -3.714   6.000  0.00  0.00    +0.007 C 
ATOM     28  C   UNL     1       0.637  -5.034   5.674  0.00  0.00    +0.017 C 
ATOM     29  C   UNL     1       0.960  -2.577   5.995  0.00  0.00    +0.017 C 
ATOM     30  C   UNL     1      -0.714  -3.809   7.383  0.00  0.00    +0.017 C 
ENDBRANCH   4  27
BRANCH  11  31
ATOM     31  C   UNL     1      -5.343  -3.133   3.084  0.00  0.00    +0.210 C 
BRANCH  31  32
ATOM     32  C   UNL     1      -5.424  -2.805   1.615  0.00  0.00    +0.231 C 
ATOM     33  O   UNL     1      -4.639  -3.306   0.838  0.00  0.00    -0.274 OA
ATOM     34  N   UNL     1      -6.367  -1.954   1.166  0.00  0.00    -0.314 N 
ATOM     35  H   UNL     1      -6.947  -1.497   1.795  0.00  0.00    +0.149 HD
BRANCH  34  36
ATOM     36  C   UNL     1      -6.516  -1.718  -0.272  0.00  0.00    +0.107 C 
BRANCH  36  37
ATOM     37  C   UNL     1      -7.611  -0.676  -0.508  0.00  0.00    -0.000 C 
ATOM     38  C   UNL     1      -7.171   0.667   0.079  0.00  0.00    +0.009 C 
ATOM     39  C   UNL     1      -7.853  -0.521  -2.011  0.00  0.00    +0.009 C 
ENDBRANCH  36  37
ENDBRANCH  34  36
ENDBRANCH  31  32
ENDBRANCH  11  31
TORSDOF 7
