REMARK  Name = ZINC34756727
REMARK  6 active torsions:
REMARK  status: ('A' for Active; 'I' for Inactive)
REMARK    1  A    between atoms: C_2  and  C_3
REMARK    2  A    between atoms: C_3  and  N_4
REMARK    3  A    between atoms: C_17  and  S_19
REMARK    4  A    between atoms: S_19  and  C_20
REMARK    5  A    between atoms: C_20  and  C_21
REMARK    6  A    between atoms: N_23  and  C_24
REMARK                            x       y       z     vdW  Elec       q    Type
REMARK                         _______ _______ _______ _____ _____    ______ ____
ROOT
ATOM      1  N   UNL     1       0.330  -1.741   1.907  0.00  0.00    +0.384 N 
ATOM      2  C   UNL     1       0.152  -2.443   3.184  0.00  0.00    -0.059 C 
ATOM      3  C   UNL     1       1.404  -3.273   3.488  0.00  0.00    +0.088 C 
ATOM      4  N   UNL     1       1.668  -4.156   2.341  0.00  0.00    -0.318 N 
ATOM      5  C   UNL     1       1.701  -3.556   0.998  0.00  0.00    +0.088 C 
ATOM      6  C   UNL     1       0.435  -2.713   0.812  0.00  0.00    -0.059 C 
ATOM      7  C   UNL     1       1.880  -5.510   2.520  0.00  0.00    +0.134 A 
ATOM      8  C   UNL     1       3.204  -6.024   2.624  0.00  0.00    +0.051 A 
ATOM      9  C   UNL     1       4.474  -5.298   2.566  0.00  0.00    -0.025 A 
ATOM     10  C   UNL     1       5.601  -6.026   2.692  0.00  0.00    -0.004 A 
ATOM     11  S   UNL     1       5.051  -7.699   2.893  0.00  0.00    -0.073 S 
ATOM     12  C   UNL     1       3.302  -7.418   2.806  0.00  0.00    +0.115 A 
ATOM     13  N   UNL     1       2.230  -8.183   2.874  0.00  0.00    -0.214 NA
ATOM     14  C   UNL     1       1.020  -7.650   2.770  0.00  0.00    +0.191 A 
ATOM     15  N   UNL     1       0.856  -6.342   2.603  0.00  0.00    -0.206 NA
ATOM     16  C   UNL     1       7.013  -5.526   2.665  0.00  0.00    +0.043 C 
ATOM     17  C   UNL     1       7.011  -4.098   2.100  0.00  0.00    +0.005 C 
ATOM     18  C   UNL     1       5.920  -3.291   2.809  0.00  0.00    +0.005 C 
ATOM     19  C   UNL     1       4.541  -3.785   2.371  0.00  0.00    +0.037 C 
ATOM     20  H   UNL     1       1.172  -1.187   1.946  0.00  0.00    -0.081 HD
ENDROOT
BRANCH   1  21
ATOM     21  C   UNL     1      -0.822  -0.861   1.670  0.00  0.00    -0.052 C 
BRANCH  21  23
ATOM     22  C   UNL     1      -0.885   1.476   2.376  0.00  0.00    +0.002 C 
ATOM     23  C   UNL     1      -0.860   0.213   2.726  0.00  0.00    -0.053 C 
ENDBRANCH  21  23
ENDBRANCH   1  21
BRANCH  14  24
ATOM     24  S   UNL     1      -0.397  -8.694   2.862  0.00  0.00    -0.077 S 
BRANCH  24  25
ATOM     25  C   UNL     1       0.297 -10.354   3.096  0.00  0.00    +0.173 C 
BRANCH  25  26
ATOM     26  C   UNL     1      -0.824 -11.357   3.192  0.00  0.00    +0.227 C 
ATOM     27  O   UNL     1      -1.976 -10.988   3.111  0.00  0.00    -0.275 OA
ATOM     28  N   UNL     1      -0.545 -12.664   3.367  0.00  0.00    -0.285 N 
ATOM     29  H   UNL     1       0.371 -12.950   3.510  0.00  0.00    +0.155 HD
BRANCH  28  30
ATOM     30  C   UNL     1      -1.577 -13.609   3.344  0.00  0.00    +0.033 A 
ATOM     31  C   UNL     1      -1.519 -14.723   4.171  0.00  0.00    +0.023 A 
ATOM     32  C   UNL     1      -2.539 -15.654   4.146  0.00  0.00    +0.002 A 
ATOM     33  C   UNL     1      -3.617 -15.477   3.298  0.00  0.00    +0.000 A 
ATOM     34  C   UNL     1      -3.678 -14.369   2.473  0.00  0.00    +0.002 A 
ATOM     35  C   UNL     1      -2.664 -13.431   2.498  0.00  0.00    +0.023 A 
ENDBRANCH  28  30
ENDBRANCH  25  26
ENDBRANCH  24  25
ENDBRANCH  14  24
TORSDOF 6
