REMARK  Name = ZINC39711121
REMARK  14 active torsions:
REMARK  status: ('A' for Active; 'I' for Inactive)
REMARK    1  A    between atoms: C_1  and  C_2
REMARK    2  A    between atoms: C_2  and  C_3
REMARK    3  A    between atoms: C_3  and  C_4
REMARK    4  A    between atoms: C_3  and  C_5
REMARK    5  A    between atoms: C_3  and  N_6
REMARK    6  A    between atoms: C_7  and  C_12
REMARK    7  A    between atoms: C_12  and  C_14
REMARK    8  A    between atoms: C_12  and  N_28
REMARK    9  A    between atoms: C_18  and  C_27
REMARK   10  A    between atoms: C_21  and  C_26
REMARK   11  A    between atoms: N_28  and  C_29
REMARK   12  A    between atoms: N_28  and  C_36
REMARK   13  A    between atoms: C_29  and  C_30
REMARK   14  A    between atoms: C_36  and  C_37
REMARK                            x       y       z     vdW  Elec       q    Type
REMARK                         _______ _______ _______ _____ _____    ______ ____
ROOT
ATOM      1  C   UNL     1      -3.017  -3.971   1.275  0.00  0.00    -0.010 C 
ENDROOT
BRANCH   1   2
ATOM      2  C   UNL     1      -2.053  -4.233   2.434  0.00  0.00    +0.088 C 
ATOM      3  C   UNL     1      -1.815  -2.917   3.148  0.00  0.00    -0.006 C 
ATOM      4  C   UNL     1      -0.527  -2.478   3.236  0.00  0.00    -0.004 A 
ATOM      5  C   UNL     1      -0.208  -1.217   3.907  0.00  0.00    -0.042 A 
ATOM      6  C   UNL     1       1.089  -0.819   3.970  0.00  0.00    +0.004 A 
ATOM      7  C   UNL     1       2.112  -1.585   3.411  0.00  0.00    +0.005 A 
ATOM      8  C   UNL     1       1.882  -2.763   2.774  0.00  0.00    -0.029 A 
ATOM      9  C   UNL     1       0.573  -3.266   2.654  0.00  0.00    +0.043 A 
ATOM     10  N   UNL     1       0.359  -4.423   2.029  0.00  0.00    -0.284 N 
ATOM     11  C   UNL     1      -0.843  -4.950   1.879  0.00  0.00    +0.223 C 
ATOM     12  O   UNL     1      -0.976  -6.010   1.296  0.00  0.00    -0.275 OA
ATOM     13  C   UNL     1       3.037  -3.537   2.193  0.00  0.00    +0.045 C 
ATOM     14  C   UNL     1      -1.299  -0.375   4.517  0.00  0.00    +0.044 C 
ATOM     15  H   UNL     1       1.122  -4.900   1.665  0.00  0.00    +0.155 HD
ENDBRANCH   1   2
BRANCH   1  17
ATOM     16  N   UNL     1      -1.704  -2.127   0.279  0.00  0.00    -0.211 N 
ATOM     17  C   UNL     1      -2.229  -3.488   0.056  0.00  0.00    +0.183 C 
ATOM     18  N   UNL     1      -1.003  -4.287  -0.129  0.00  0.00    -0.229 N 
ATOM     19  N   UNL     1       0.063  -3.387  -0.006  0.00  0.00    -0.064 NA
ATOM     20  N   UNL     1      -0.311  -2.237   0.205  0.00  0.00    -0.061 NA
ATOM     21  H   UNL     1      -0.947  -5.240  -0.299  0.00  0.00    +0.172 HD
BRANCH  16  22
ATOM     22  C   UNL     1      -2.482  -0.909   0.521  0.00  0.00    +0.050 C 
ATOM     23  C   UNL     1      -3.402  -1.123   1.725  0.00  0.00    +0.033 C 
ATOM     24  C   UNL     1      -3.326  -0.589  -0.715  0.00  0.00    +0.033 C 
BRANCH  22  26
ATOM     25  C   UNL     1      -2.340   1.543   0.978  0.00  0.00    +0.006 C 
ATOM     26  C   UNL     1      -1.532   0.255   0.806  0.00  0.00    +0.023 C 
ENDBRANCH  22  26
ENDBRANCH  16  22
ENDBRANCH   1  17
BRANCH   1  27
ATOM     27  N   UNL     1      -3.727  -5.212   0.939  0.00  0.00    +0.390 N 
ATOM     28  H   UNL     1      -3.058  -5.924   0.686  0.00  0.00    -0.080 HD
BRANCH  27  29
ATOM     29  C   UNL     1      -4.632  -4.967  -0.192  0.00  0.00    -0.042 C 
BRANCH  29  30
ATOM     30  C   UNL     1      -5.588  -3.857   0.160  0.00  0.00    -0.064 A 
ATOM     31  C   UNL     1      -6.497  -4.028   1.188  0.00  0.00    +0.002 A 
ATOM     32  C   UNL     1      -7.374  -3.010   1.511  0.00  0.00    +0.000 A 
ATOM     33  C   UNL     1      -7.342  -1.820   0.808  0.00  0.00    +0.000 A 
ATOM     34  C   UNL     1      -6.432  -1.649  -0.219  0.00  0.00    +0.000 A 
ATOM     35  C   UNL     1      -5.552  -2.666  -0.540  0.00  0.00    +0.002 A 
ENDBRANCH  29  30
ENDBRANCH  27  29
BRANCH  27  36
ATOM     36  C   UNL     1      -4.506  -5.661   2.100  0.00  0.00    -0.035 C 
BRANCH  36  37
ATOM     37  C   UNL     1      -5.264  -6.913   1.744  0.00  0.00    -0.027 A 
ATOM     38  C   UNL     1      -4.848  -8.203   1.782  0.00  0.00    +0.009 A 
ATOM     39  C   UNL     1      -5.727  -9.202   1.405  0.00  0.00    +0.008 A 
ATOM     40  C   UNL     1      -6.977  -8.862   1.008  0.00  0.00    +0.045 A 
ATOM     41  S   UNL     1      -6.945  -7.084   1.168  0.00  0.00    -0.103 S 
ENDBRANCH  36  37
ENDBRANCH  27  36
ENDBRANCH   1  27
TORSDOF 9
