REMARK  Name = ZINC38872644
REMARK  9 active torsions:
REMARK  status: ('A' for Active; 'I' for Inactive)
REMARK    1  A    between atoms: C_6  and  C_7
REMARK    2  A    between atoms: C_7  and  S_8
REMARK    3  A    between atoms: S_8  and  C_9
REMARK    4  A    between atoms: C_9  and  C_10
REMARK    5  A    between atoms: C_10  and  N_11
REMARK    6  A    between atoms: C_12  and  C_14
REMARK    7  A    between atoms: N_17  and  C_20
REMARK    8  A    between atoms: C_20  and  C_21
REMARK    9  A    between atoms: C_23  and  C_26
REMARK                            x       y       z     vdW  Elec       q    Type
REMARK                         _______ _______ _______ _____ _____    ______ ____
ROOT
ATOM      1  C   UNL     1      -7.169  -4.230  -3.691  0.00  0.00    +0.071 C 
ATOM      2  C   UNL     1      -6.900  -5.538  -2.942  0.00  0.00    -0.006 C 
ATOM      3  C   UNL     1      -8.195  -6.349  -2.861  0.00  0.00    -0.077 C 
ATOM      4  N   UNL     1      -8.674  -6.649  -4.216  0.00  0.00    +0.386 N 
ATOM      5  C   UNL     1      -9.003  -5.401  -4.915  0.00  0.00    -0.077 C 
ATOM      6  C   UNL     1      -7.739  -4.553  -5.075  0.00  0.00    -0.006 C 
ATOM      7  H   UNL     1      -7.955  -7.139  -4.725  0.00  0.00    -0.081 HD
ENDROOT
BRANCH   1   9
ATOM      8  N   UNL     1      -5.199  -3.068  -2.750  0.00  0.00    -0.314 N 
ATOM      9  C   UNL     1      -5.881  -3.462  -3.843  0.00  0.00    +0.216 C 
ATOM     10  O   UNL     1      -5.459  -3.199  -4.949  0.00  0.00    -0.276 OA
ATOM     11  H   UNL     1      -5.536  -3.279  -1.865  0.00  0.00    +0.149 HD
BRANCH   8  12
ATOM     12  C   UNL     1      -3.947  -2.321  -2.897  0.00  0.00    +0.115 C 
BRANCH  12  13
ATOM     13  C   UNL     1      -3.379  -1.999  -1.514  0.00  0.00    +0.088 C 
BRANCH  13  14
ATOM     14  S   UNL     1      -1.829  -1.075  -1.697  0.00  0.00    -0.155 S 
BRANCH  14  15
ATOM     15  C   UNL     1      -1.293  -0.775   0.010  0.00  0.00    +0.104 C 
BRANCH  15  21
ATOM     16  C   UNL     1      -0.017   1.378   0.010  0.00  0.00    +0.007 A 
ATOM     17  C   UNL     1       1.170   2.086   0.002  0.00  0.00    +0.038 A 
ATOM     18  C   UNL     1       2.379   1.410  -0.013  0.00  0.00    +0.123 A 
ATOM     19  C   UNL     1       2.396   0.026  -0.021  0.00  0.00    +0.038 A 
ATOM     20  C   UNL     1       1.208  -0.680  -0.013  0.00  0.00    +0.007 A 
ATOM     21  C   UNL     1       0.002  -0.004   0.002  0.00  0.00    -0.037 A 
ATOM     22  F   UNL     1       3.540   2.101  -0.021  0.00  0.00    -0.205 F 
ENDBRANCH  15  21
ENDBRANCH  14  15
ENDBRANCH  13  14
ENDBRANCH  12  13
ENDBRANCH   8  12
ENDBRANCH   1   9
BRANCH   4  23
ATOM     23  C   UNL     1      -9.874  -7.492  -4.134  0.00  0.00    +0.022 C 
BRANCH  23  24
ATOM     24  C   UNL     1     -10.296  -7.902  -5.521  0.00  0.00    +0.211 A 
ATOM     25  N   UNL     1      -9.903  -8.972  -6.151  0.00  0.00    -0.193 NA
ATOM     26  C   UNL     1     -10.475  -9.027  -7.368  0.00  0.00    +0.203 A 
ATOM     27  N   UNL     1     -11.244  -7.976  -7.516  0.00  0.00    -0.056 NA
ATOM     28  O   UNL     1     -11.143  -7.230  -6.312  0.00  0.00    -0.340 OA
BRANCH  26  29
ATOM     29  C   UNL     1     -10.269 -10.098  -8.374  0.00  0.00    +0.041 A 
ATOM     30  C   UNL     1      -9.426 -11.170  -8.090  0.00  0.00    +0.014 A 
ATOM     31  C   UNL     1      -9.238 -12.164  -9.029  0.00  0.00    +0.021 A 
ATOM     32  C   UNL     1      -9.885 -12.097 -10.251  0.00  0.00    +0.042 A 
ATOM     33  C   UNL     1     -10.723 -11.034 -10.539  0.00  0.00    +0.040 A 
ATOM     34  C   UNL     1     -10.923 -10.037  -9.604  0.00  0.00    +0.053 A 
ATOM     35 CL   UNL     1     -11.981  -8.708  -9.962  0.00  0.00    -0.083 Cl
ATOM     36 CL   UNL     1      -9.644 -13.351 -11.427  0.00  0.00    -0.083 Cl
ENDBRANCH  26  29
ENDBRANCH  23  24
ENDBRANCH   4  23
TORSDOF 9
