REMARK  Name = ZINC18119506
REMARK  7 active torsions:
REMARK  status: ('A' for Active; 'I' for Inactive)
REMARK    1  A    between atoms: C_1  and  C_2
REMARK    2  A    between atoms: C_5  and  N_8
REMARK    3  A    between atoms: C_13  and  C_27
REMARK    4  A    between atoms: N_15  and  C_21
REMARK    5  A    between atoms: C_27  and  C_28
REMARK    6  A    between atoms: C_28  and  C_29
REMARK    7  A    between atoms: C_28  and  C_30
REMARK                            x       y       z     vdW  Elec       q    Type
REMARK                         _______ _______ _______ _____ _____    ______ ____
ROOT
ATOM      1  N   UNL     1       0.059  -4.172  -0.021  0.00  0.00    -0.208 N 
ATOM      2  C   UNL     1       0.167  -4.901   1.096  0.00  0.00    +0.234 C 
ATOM      3  O   UNL     1       0.270  -4.453   2.218  0.00  0.00    -0.274 OA
ATOM      4  C   UNL     1       0.142  -6.369   0.742  0.00  0.00    +0.141 C 
ATOM      5  C   UNL     1       1.530  -6.988   1.022  0.00  0.00    +0.127 C 
ATOM      6  N   UNL     1       1.811  -7.740  -0.226  0.00  0.00    -0.248 N 
ATOM      7  O   UNL     1       1.307  -6.904  -1.269  0.00  0.00    -0.258 OA
ATOM      8  C   UNL     1       0.034  -6.364  -0.808  0.00  0.00    +0.249 C 
ATOM      9  C   UNL     1      -0.036  -4.891  -1.145  0.00  0.00    +0.258 C 
ATOM     10  O   UNL     1      -0.157  -4.433  -2.261  0.00  0.00    -0.272 OA
ENDROOT
BRANCH   1  15
ATOM     11  C   UNL     1      -0.016   1.503   0.012  0.00  0.00    +0.044 C 
ATOM     12  C   UNL     1       0.004  -0.004   0.003  0.00  0.00    -0.050 A 
ATOM     13  C   UNL     1      -1.045  -0.711   0.562  0.00  0.00    +0.005 A 
ATOM     14  C   UNL     1      -1.029  -2.092   0.555  0.00  0.00    +0.024 A 
ATOM     15  C   UNL     1       0.040  -2.771  -0.013  0.00  0.00    +0.044 A 
ATOM     16  C   UNL     1       1.091  -2.058  -0.574  0.00  0.00    +0.024 A 
ATOM     17  C   UNL     1       1.068  -0.677  -0.569  0.00  0.00    +0.005 A 
ENDBRANCH   1  15
BRANCH   6  18
ATOM     18  C   UNL     1       2.430  -8.985  -0.353  0.00  0.00    +0.065 A 
ATOM     19  C   UNL     1       2.857  -9.668   0.779  0.00  0.00    +0.028 A 
ATOM     20  C   UNL     1       3.469 -10.900   0.650  0.00  0.00    +0.002 A 
ATOM     21  C   UNL     1       3.655 -11.454  -0.603  0.00  0.00    +0.000 A 
ATOM     22  C   UNL     1       3.230 -10.776  -1.732  0.00  0.00    +0.002 A 
ATOM     23  C   UNL     1       2.614  -9.547  -1.610  0.00  0.00    +0.028 A 
ENDBRANCH   6  18
BRANCH   5  24
ATOM     24  C   UNL     1       2.576  -5.894   1.247  0.00  0.00    +0.031 C 
BRANCH  24  25
ATOM     25  C   UNL     1       3.907  -6.535   1.644  0.00  0.00    -0.015 C 
ATOM     26  C   UNL     1       4.984  -5.453   1.748  0.00  0.00    +0.007 C 
ATOM     27  C   UNL     1       3.754  -7.234   2.997  0.00  0.00    +0.007 C 
ENDBRANCH  24  25
ENDBRANCH   5  24
TORSDOF 4
