REMARK  Name = ZINC10066550
REMARK  10 active torsions:
REMARK  status: ('A' for Active; 'I' for Inactive)
REMARK    1  A    between atoms: C_1  and  C_2
REMARK    2  A    between atoms: C_2  and  N_54
REMARK    3  A    between atoms: C_3  and  C_4
REMARK    4  A    between atoms: C_3  and  N_54
REMARK    5  A    between atoms: C_5  and  C_6
REMARK    6  A    between atoms: C_5  and  N_54
REMARK    7  A    between atoms: C_6  and  N_7
REMARK    8  A    between atoms: C_18  and  C_20
REMARK    9  A    between atoms: C_23  and  C_27
REMARK   10  A    between atoms: C_24  and  C_26
REMARK                            x       y       z     vdW  Elec       q    Type
REMARK                         _______ _______ _______ _____ _____    ______ ____
ROOT
ATOM      1  N   UNL     1      -0.063  -0.648  -0.718  0.00  0.00    -0.248 N 
ATOM      2  C   UNL     1      -0.616  -1.757  -0.100  0.00  0.00    +0.168 A 
ATOM      3  N   UNL     1      -1.536  -1.806   0.835  0.00  0.00    -0.224 NA
ATOM      4  C   UNL     1      -1.985  -2.970   1.351  0.00  0.00    +0.080 A 
ATOM      5  C   UNL     1      -2.965  -3.161   2.353  0.00  0.00    +0.030 A 
ATOM      6  C   UNL     1      -3.308  -4.421   2.767  0.00  0.00    +0.022 A 
ATOM      7  C   UNL     1      -2.711  -5.551   2.223  0.00  0.00    +0.042 A 
ATOM      8  C   UNL     1      -1.748  -5.401   1.241  0.00  0.00    +0.037 A 
ATOM      9  C   UNL     1      -1.399  -4.142   0.821  0.00  0.00    +0.042 A 
ATOM     10  S   UNL     1      -0.262  -3.487  -0.377  0.00  0.00    -0.052 S 
ATOM     11 CL   UNL     1      -3.169  -7.134   2.770  0.00  0.00    -0.084 Cl
ATOM     12  C   UNL     1      -0.471   0.589  -0.371  0.00  0.00    +0.252 C 
ATOM     13  O   UNL     1      -1.349   0.730   0.458  0.00  0.00    -0.270 OA
ENDROOT
BRANCH  12  14
ATOM     14  C   UNL     1       0.145   1.774  -1.004  0.00  0.00    +0.038 A 
ATOM     15  C   UNL     1       1.495   1.756  -1.362  0.00  0.00    +0.013 A 
ATOM     16  C   UNL     1       2.062   2.863  -1.957  0.00  0.00    +0.004 A 
ATOM     17  C   UNL     1       1.300   3.995  -2.188  0.00  0.00    -0.047 A 
ATOM     18  C   UNL     1      -0.036   4.022  -1.830  0.00  0.00    -0.047 A 
ATOM     19  C   UNL     1      -0.617   2.919  -1.240  0.00  0.00    +0.016 A 
ATOM     20  C   UNL     1      -0.858   5.259  -2.085  0.00  0.00    +0.044 C 
ATOM     21  C   UNL     1       1.929   5.204  -2.833  0.00  0.00    +0.044 C 
ENDBRANCH  12  14
BRANCH   1  22
ATOM     22  C   UNL     1       0.964  -0.819  -1.748  0.00  0.00    +0.097 C 
BRANCH  22  23
ATOM     23  C   UNL     1       2.204  -1.468  -1.129  0.00  0.00    -0.059 C 
BRANCH  23  24
ATOM     24  N   UNL     1       3.162  -1.784  -2.210  0.00  0.00    +0.380 N 
ATOM     25  H   UNL     1       2.643  -2.144  -3.020  0.00  0.00    -0.082 HD
BRANCH  24  27
ATOM     26  C   UNL     1       4.746  -0.044  -1.453  0.00  0.00    -0.017 C 
ATOM     27  C   UNL     1       3.892  -0.563  -2.611  0.00  0.00    -0.082 C 
ENDBRANCH  24  27
BRANCH  24  28
ATOM     28  C   UNL     1       4.116  -2.816  -1.753  0.00  0.00    -0.082 C 
ATOM     29  C   UNL     1       5.014  -3.213  -2.926  0.00  0.00    -0.017 C 
ENDBRANCH  24  28
ENDBRANCH  23  24
ENDBRANCH  22  23
ENDBRANCH   1  22
TORSDOF 6
