REMARK  Name = ZINC02905320
REMARK  11 active torsions:
REMARK  status: ('A' for Active; 'I' for Inactive)
REMARK    1  A    between atoms: C_1  and  C_2
REMARK    2  A    between atoms: C_2  and  C_3
REMARK    3  A    between atoms: C_2  and  C_4
REMARK    4  A    between atoms: C_2  and  C_5
REMARK    5  A    between atoms: N_7  and  C_8
REMARK    6  A    between atoms: C_8  and  C_10
REMARK    7  A    between atoms: C_8  and  N_14
REMARK    8  A    between atoms: N_14  and  C_15
REMARK    9  A    between atoms: C_15  and  N_17
REMARK   10  A    between atoms: N_17  and  C_18
REMARK   11  A    between atoms: C_22  and  O_24
REMARK                            x       y       z     vdW  Elec       q    Type
REMARK                         _______ _______ _______ _____ _____    ______ ____
ROOT
ATOM      1  N   UNL     1      -3.571  -0.986  -0.191  0.00  0.00    -0.305 N 
ATOM      2  H   UNL     1      -4.416  -0.509  -0.184  0.00  0.00    +0.150 HD
ENDROOT
BRANCH   1   3
ATOM      3  C   UNL     1      -2.413  -0.305  -0.091  0.00  0.00    +0.136 C 
ATOM      4  S   UNL     1      -0.921  -1.146  -0.103  0.00  0.00    -0.019 S 
BRANCH   3   5
ATOM      5  N   UNL     1      -2.428   1.038   0.019  0.00  0.00    -0.297 N 
ATOM      6  H   UNL     1      -3.272   1.510   0.087  0.00  0.00    +0.154 HD
BRANCH   5   7
ATOM      7  C   UNL     1      -1.225   1.752   0.034  0.00  0.00    +0.036 A 
ATOM      8  C   UNL     1      -0.167   1.316   0.821  0.00  0.00    +0.023 A 
ATOM      9  C   UNL     1       1.023   2.018   0.831  0.00  0.00    +0.005 A 
ATOM     10  C   UNL     1       1.163   3.158   0.063  0.00  0.00    +0.045 A 
ATOM     11  C   UNL     1       0.107   3.601  -0.722  0.00  0.00    +0.119 A 
ATOM     12  C   UNL     1      -1.088   2.900  -0.735  0.00  0.00    +0.068 A 
BRANCH  11  13
ATOM     13  O   UNL     1       0.246   4.722  -1.478  0.00  0.00    -0.507 OA
ATOM     14  H   UNL     1       0.581   4.556  -2.370  0.00  0.00    +0.292 HD
ENDBRANCH  11  13
ENDBRANCH   5   7
ENDBRANCH   3   5
ENDBRANCH   1   3
BRANCH   1  15
ATOM     15  C   UNL     1      -3.555  -2.446  -0.310  0.00  0.00    +0.211 C 
BRANCH  15  18
ATOM     16  C   UNL     1      -3.033  -3.611   1.766  0.00  0.00    +0.220 C 
ATOM     17  O   UNL     1      -1.867  -3.624   1.430  0.00  0.00    -0.275 OA
ATOM     18  N   UNL     1      -3.958  -3.044   0.965  0.00  0.00    -0.293 N 
ATOM     19  H   UNL     1      -4.890  -3.033   1.233  0.00  0.00    +0.151 HD
BRANCH  16  21
ATOM     20  C   UNL     1      -2.216  -4.794   3.785  0.00  0.00    +0.020 C 
ATOM     21  C   UNL     1      -3.447  -4.226   3.077  0.00  0.00    +0.039 C 
ATOM     22  C   UNL     1      -4.096  -3.158   3.960  0.00  0.00    +0.020 C 
ATOM     23  C   UNL     1      -4.450  -5.352   2.818  0.00  0.00    +0.020 C 
ENDBRANCH  16  21
ENDBRANCH  15  18
BRANCH  15  24
ATOM     24  C   UNL     1      -4.530  -2.879  -1.407  0.00  0.00    +0.225 C 
ATOM     25 CL   UNL     1      -4.034  -2.142  -2.976  0.00  0.00    -0.080 Cl
ATOM     26 CL   UNL     1      -4.510  -4.676  -1.554  0.00  0.00    -0.080 Cl
ATOM     27 CL   UNL     1      -6.194  -2.329  -0.984  0.00  0.00    -0.080 Cl
ENDBRANCH  15  24
ENDBRANCH   1  15
TORSDOF 8
