REMARK  Name = ZINC35706465
REMARK  10 active torsions:
REMARK  status: ('A' for Active; 'I' for Inactive)
REMARK    1  A    between atoms: C_1  and  C_2
REMARK    2  A    between atoms: C_5  and  N_8
REMARK    3  A    between atoms: C_9  and  C_22
REMARK    4  A    between atoms: C_12  and  S_13
REMARK    5  A    between atoms: S_13  and  C_14
REMARK    6  A    between atoms: C_14  and  C_15
REMARK    7  A    between atoms: C_22  and  C_24
REMARK    8  A    between atoms: C_22  and  N_25
REMARK    9  A    between atoms: C_26  and  C_28
REMARK   10  A    between atoms: C_32  and  N_34
REMARK                            x       y       z     vdW  Elec       q    Type
REMARK                         _______ _______ _______ _____ _____    ______ ____
ROOT
ATOM      1  N   UNL     1       0.058  -4.173  -0.021  0.00  0.00    -0.273 N 
ATOM      2  C   UNL     1      -0.920  -5.016   0.436  0.00  0.00    +0.159 A 
ATOM      3  N   UNL     1      -0.502  -6.235   0.242  0.00  0.00    -0.131 NA
ATOM      4  N   UNL     1       0.663  -6.223  -0.301  0.00  0.00    -0.122 NA
ATOM      5  C   UNL     1       1.054  -4.984  -0.491  0.00  0.00    +0.196 A 
ENDROOT
BRANCH   1  10
ATOM      6  C   UNL     1      -0.018   1.503   0.010  0.00  0.00    +0.044 C 
ATOM      7  C   UNL     1       0.002  -0.004   0.002  0.00  0.00    -0.050 A 
ATOM      8  C   UNL     1       0.006  -0.688  -1.200  0.00  0.00    +0.005 A 
ATOM      9  C   UNL     1       0.024  -2.069  -1.211  0.00  0.00    +0.026 A 
ATOM     10  C   UNL     1       0.040  -2.771  -0.013  0.00  0.00    +0.050 A 
ATOM     11  C   UNL     1       0.036  -2.082   1.192  0.00  0.00    +0.026 A 
ATOM     12  C   UNL     1       0.023  -0.700   1.196  0.00  0.00    +0.005 A 
ENDBRANCH   1  10
BRANCH   2  13
ATOM     13  C   UNL     1      -2.235  -4.610   1.049  0.00  0.00    +0.139 C 
ATOM     14  C   UNL     1      -2.182  -4.831   2.562  0.00  0.00    +0.036 C 
BRANCH  13  15
ATOM     15  N   UNL     1      -3.313  -5.418   0.474  0.00  0.00    -0.302 N 
ATOM     16  C   UNL     1      -4.575  -4.946   0.458  0.00  0.00    +0.245 C 
ATOM     17  O   UNL     1      -4.819  -3.848   0.919  0.00  0.00    -0.270 OA
ATOM     18  H   UNL     1      -3.118  -6.294   0.106  0.00  0.00    +0.150 HD
BRANCH  16  19
ATOM     19  C   UNL     1      -5.662  -5.762  -0.122  0.00  0.00    +0.039 A 
ATOM     20  C   UNL     1      -5.387  -7.025  -0.648  0.00  0.00    +0.013 A 
ATOM     21  C   UNL     1      -6.406  -7.782  -1.188  0.00  0.00    +0.003 A 
ATOM     22  C   UNL     1      -7.700  -7.291  -1.208  0.00  0.00    +0.033 A 
ATOM     23  C   UNL     1      -7.980  -6.040  -0.689  0.00  0.00    +0.127 A 
ATOM     24  C   UNL     1      -6.970  -5.275  -0.141  0.00  0.00    +0.045 A 
BRANCH  23  25
ATOM     25  N   UNL     1      -9.366  -5.522  -0.716  0.00  0.00    +0.056 N 
ATOM     26  O   UNL     1     -10.253  -6.193  -1.191  0.00  0.00    -0.126 OA
ATOM     27  O   UNL     1      -9.612  -4.429  -0.263  0.00  0.00    -0.126 OA
ENDBRANCH  23  25
ENDBRANCH  16  19
ENDBRANCH  13  15
ENDBRANCH   2  13
BRANCH   5  28
ATOM     28  S   UNL     1       2.576  -4.465  -1.212  0.00  0.00    -0.081 S 
BRANCH  28  29
ATOM     29  C   UNL     1       3.425  -6.017  -1.612  0.00  0.00    +0.112 C 
BRANCH  29  30
ATOM     30  C   UNL     1       4.759  -5.712  -2.243  0.00  0.00    -0.037 A 
ATOM     31  C   UNL     1       4.857  -5.568  -3.615  0.00  0.00    +0.007 A 
ATOM     32  C   UNL     1       6.080  -5.288  -4.195  0.00  0.00    +0.038 A 
ATOM     33  C   UNL     1       7.207  -5.152  -3.402  0.00  0.00    +0.123 A 
ATOM     34  C   UNL     1       7.107  -5.297  -2.028  0.00  0.00    +0.038 A 
ATOM     35  C   UNL     1       5.882  -5.572  -1.450  0.00  0.00    +0.007 A 
ATOM     36  F   UNL     1       8.402  -4.879  -3.968  0.00  0.00    -0.205 F 
ENDBRANCH  29  30
ENDBRANCH  28  29
ENDBRANCH   5  28
TORSDOF 8
