REMARK  Name = ZINC39237946
REMARK  7 active torsions:
REMARK  status: ('A' for Active; 'I' for Inactive)
REMARK    1  A    between atoms: C_1  and  C_2
REMARK    2  A    between atoms: C_7  and  N_8
REMARK    3  A    between atoms: C_9  and  C_11
REMARK    4  A    between atoms: C_12  and  C_36
REMARK    5  A    between atoms: C_19  and  C_20
REMARK    6  A    between atoms: C_27  and  C_29
REMARK    7  A    between atoms: C_33  and  C_35
REMARK                            x       y       z     vdW  Elec       q    Type
REMARK                         _______ _______ _______ _____ _____    ______ ____
ROOT
ATOM      1  C   UNL     1       0.732   0.374   4.284  0.00  0.00    +0.062 C 
ATOM      2  C   UNL     1       0.845  -0.666   5.160  0.00  0.00    +0.051 C 
ATOM      3  N   UNL     1       0.634  -0.484   6.458  0.00  0.00    -0.228 NA
ATOM      4  C   UNL     1       0.311   0.658   7.009  0.00  0.00    +0.177 A 
ATOM      5  N   UNL     1       0.146   1.831   6.308  0.00  0.00    -0.275 N 
ATOM      6  C   UNL     1      -0.188   2.941   6.979  0.00  0.00    +0.268 A 
ATOM      7  O   UNL     1      -0.345   4.001   6.404  0.00  0.00    -0.266 OA
ATOM      8  C   UNL     1      -0.358   2.836   8.443  0.00  0.00    +0.078 A 
ATOM      9  C   UNL     1      -0.685   3.782   9.332  0.00  0.00    +0.024 C 
ATOM     10  S   UNL     1      -0.011   1.104   8.704  0.00  0.00    -0.046 S 
ATOM     11  C   UNL     1       0.367   1.733   4.838  0.00  0.00    +0.170 C 
ATOM     12  C   UNL     1       1.213  -2.036   4.649  0.00  0.00    +0.066 C 
ENDROOT
BRANCH  11  13
ATOM     13  C   UNL     1       1.482   2.710   4.458  0.00  0.00    +0.204 C 
ATOM     14  C   UNL     1       2.740   2.482   5.333  0.00  0.00    +0.077 C 
ATOM     15  C   UNL     1       3.220   3.906   5.556  0.00  0.00    +0.017 C 
ATOM     16  C   UNL     1       2.234   4.711   5.222  0.00  0.00    +0.091 C 
ATOM     17  O   UNL     1       1.123   4.062   4.805  0.00  0.00    -0.491 OA
ATOM     18  C   UNL     1       2.333   6.213   5.298  0.00  0.00    +0.085 C 
ENDBRANCH  11  13
BRANCH   9  19
ATOM     19  C   UNL     1      -1.073   5.159   8.859  0.00  0.00    +0.152 C 
ATOM     20  C   UNL     1      -0.138   6.196   9.440  0.00  0.00    +0.005 C 
ATOM     21  C   UNL     1      -0.901   7.008  10.171  0.00  0.00    +0.017 C 
ATOM     22  C   UNL     1      -2.293   6.561  10.103  0.00  0.00    +0.105 C 
ATOM     23  N   UNL     1      -2.409   5.510   9.359  0.00  0.00    -0.280 NA
ENDBRANCH   9  19
BRANCH   1  25
ATOM     24  N   UNL     1       0.689   1.188   2.042  0.00  0.00    -0.281 N 
ATOM     25  C   UNL     1       0.954   0.190   2.907  0.00  0.00    +0.248 C 
ATOM     26  O   UNL     1       1.385  -0.874   2.497  0.00  0.00    -0.270 OA
ATOM     27  H   UNL     1       0.387   2.049   2.372  0.00  0.00    +0.155 HD
BRANCH  24  34
ATOM     28  C   UNL     1       1.066   3.467   0.380  0.00  0.00    +0.045 C 
ATOM     29  C   UNL     1       1.037   2.068  -0.180  0.00  0.00    -0.029 A 
ATOM     30  C   UNL     1       1.202   1.863  -1.536  0.00  0.00    +0.005 A 
ATOM     31  C   UNL     1       1.175   0.580  -2.050  0.00  0.00    +0.000 A 
ATOM     32  C   UNL     1       0.984  -0.502  -1.210  0.00  0.00    +0.002 A 
ATOM     33  C   UNL     1       0.818  -0.303   0.147  0.00  0.00    +0.023 A 
ATOM     34  C   UNL     1       0.851   0.984   0.668  0.00  0.00    +0.037 A 
ENDBRANCH  24  34
ENDBRANCH   1  25
TORSDOF 4
