REMARK  Name = ZINC55182744
REMARK  10 active torsions:
REMARK  status: ('A' for Active; 'I' for Inactive)
REMARK    1  A    between atoms: C_1  and  S_2
REMARK    2  A    between atoms: S_2  and  C_3
REMARK    3  A    between atoms: C_3  and  C_4
REMARK    4  A    between atoms: C_4  and  C_5
REMARK    5  A    between atoms: C_5  and  C_7
REMARK    6  A    between atoms: C_5  and  N_26
REMARK    7  A    between atoms: N_9  and  C_10
REMARK    8  A    between atoms: C_14  and  N_16
REMARK    9  A    between atoms: C_17  and  C_19
REMARK   10  A    between atoms: C_19  and  C_20
REMARK                            x       y       z     vdW  Elec       q    Type
REMARK                         _______ _______ _______ _____ _____    ______ ____
ROOT
ATOM      1  C   UNL     1       3.176  -5.746  -2.463  0.00  0.00    +0.035 A 
ATOM      2  C   UNL     1       2.409  -6.553  -3.293  0.00  0.00    +0.023 A 
ATOM      3  C   UNL     1       2.682  -7.904  -3.390  0.00  0.00    +0.004 A 
ATOM      4  C   UNL     1       3.719  -8.456  -2.663  0.00  0.00    +0.023 A 
ATOM      5  C   UNL     1       4.490  -7.654  -1.831  0.00  0.00    +0.035 A 
ATOM      6  C   UNL     1       4.222  -6.296  -1.736  0.00  0.00    +0.046 A 
ENDROOT
BRANCH   1   9
ATOM      7  C   UNL     1       3.100  -3.731  -1.200  0.00  0.00    +0.203 C 
ATOM      8  O   UNL     1       3.433  -4.351  -0.212  0.00  0.00    -0.277 OA
ATOM      9  N   UNL     1       2.899  -4.378  -2.365  0.00  0.00    -0.287 N 
ATOM     10  H   UNL     1       2.562  -3.895  -3.136  0.00  0.00    +0.155 HD
BRANCH   7  11
ATOM     11  C   UNL     1       2.912  -2.238  -1.125  0.00  0.00    +0.014 C 
BRANCH  11  12
ATOM     12  N   UNL     1       2.713  -1.839   0.275  0.00  0.00    +0.386 N 
ATOM     13  H   UNL     1       1.894  -2.300   0.643  0.00  0.00    -0.089 HD
ATOM     14  H   UNL     1       3.521  -2.104   0.818  0.00  0.00    -0.089 HD
ATOM     15  H   UNL     1       2.587  -0.839   0.326  0.00  0.00    -0.089 HD
ENDBRANCH  11  12
BRANCH  11  16
ATOM     16  C   UNL     1       4.153  -1.538  -1.683  0.00  0.00    +0.003 C 
BRANCH  16  17
ATOM     17  C   UNL     1       3.912  -0.028  -1.722  0.00  0.00    +0.068 C 
BRANCH  17  19
ATOM     18  C   UNL     1       4.942   2.561  -2.365  0.00  0.00    +0.084 C 
ATOM     19  S   UNL     1       5.384   0.801  -2.384  0.00  0.00    -0.164 S 
ENDBRANCH  17  19
ENDBRANCH  16  17
ENDBRANCH  11  16
ENDBRANCH   7  11
ENDBRANCH   1   9
BRANCH   5  20
ATOM     20  N   UNL     1       5.540  -8.214  -1.095  0.00  0.00    -0.285 N 
ATOM     21  C   UNL     1       6.274  -9.214  -1.622  0.00  0.00    +0.222 C 
ATOM     22  O   UNL     1       5.973  -9.686  -2.698  0.00  0.00    -0.275 OA
ATOM     23  H   UNL     1       5.740  -7.882  -0.206  0.00  0.00    +0.155 HD
BRANCH  21  24
ATOM     24  C   UNL     1       7.469  -9.747  -0.874  0.00  0.00    +0.131 C 
BRANCH  24  25
ATOM     25  C   UNL     1       8.110 -10.853  -1.673  0.00  0.00    -0.039 A 
ATOM     26  C   UNL     1       7.699 -12.161  -1.496  0.00  0.00    +0.004 A 
ATOM     27  C   UNL     1       8.287 -13.175  -2.229  0.00  0.00    +0.000 A 
ATOM     28  C   UNL     1       9.286 -12.880  -3.139  0.00  0.00    +0.000 A 
ATOM     29  C   UNL     1       9.695 -11.572  -3.316  0.00  0.00    +0.000 A 
ATOM     30  C   UNL     1       9.104 -10.558  -2.586  0.00  0.00    +0.004 A 
ENDBRANCH  24  25
ENDBRANCH  21  24
ENDBRANCH   5  20
TORSDOF 9
