REMARK  Name = ZINC63531178
REMARK  10 active torsions:
REMARK  status: ('A' for Active; 'I' for Inactive)
REMARK    1  A    between atoms: C_1  and  C_2
REMARK    2  A    between atoms: C_5  and  S_8
REMARK    3  A    between atoms: S_8  and  C_9
REMARK    4  A    between atoms: C_13  and  O_31
REMARK    5  A    between atoms: C_17  and  C_19
REMARK    6  A    between atoms: N_21  and  C_22
REMARK    7  A    between atoms: C_22  and  C_23
REMARK    8  A    between atoms: C_23  and  C_24
REMARK    9  A    between atoms: C_24  and  C_25
REMARK   10  A    between atoms: O_31  and  C_32
REMARK                            x       y       z     vdW  Elec       q    Type
REMARK                         _______ _______ _______ _____ _____    ______ ____
ROOT
ATOM      1  C   UNL     1       0.008  -5.060   1.550  0.00  0.00    +0.030 C 
ATOM      2  C   UNL     1      -0.113  -4.279   2.692  0.00  0.00    +0.010 A 
ATOM      3  C   UNL     1      -0.221  -2.882   2.883  0.00  0.00    +0.014 A 
ATOM      4  C   UNL     1      -0.329  -2.380   4.138  0.00  0.00    +0.046 A 
ATOM      5  C   UNL     1      -0.336  -3.216   5.263  0.00  0.00    +0.122 A 
ATOM      6  C   UNL     1      -0.236  -4.571   5.149  0.00  0.00    +0.071 A 
ATOM      7  C   UNL     1      -0.121  -5.162   3.869  0.00  0.00    +0.048 A 
ATOM      8  N   UNL     1      -0.012  -6.426   3.498  0.00  0.00    -0.369 N 
ATOM      9  C   UNL     1       0.072  -6.491   2.036  0.00  0.00    +0.204 C 
ATOM     10  H   UNL     1       0.006  -7.188   4.098  0.00  0.00    +0.161 HD
ENDROOT
BRANCH   9  11
ATOM     11  C   UNL     1      -1.086  -7.279   1.482  0.00  0.00    +0.240 C 
ATOM     12  O   UNL     1      -2.062  -7.491   2.171  0.00  0.00    -0.273 OA
ATOM     13  N   UNL     1      -1.038  -7.750   0.220  0.00  0.00    -0.313 N 
ATOM     14  H   UNL     1      -0.259  -7.581  -0.332  0.00  0.00    +0.149 HD
BRANCH  13  15
ATOM     15  C   UNL     1      -2.164  -8.517  -0.319  0.00  0.00    +0.104 C 
BRANCH  15  16
ATOM     16  C   UNL     1      -1.857  -8.930  -1.760  0.00  0.00    +0.023 C 
BRANCH  16  17
ATOM     17  C   UNL     1      -3.033  -9.730  -2.323  0.00  0.00    +0.036 C 
BRANCH  17  18
ATOM     18  C   UNL     1      -2.731 -10.137  -3.743  0.00  0.00    -0.047 A 
ATOM     19  C   UNL     1      -3.087  -9.308  -4.790  0.00  0.00    +0.003 A 
ATOM     20  C   UNL     1      -2.809  -9.680  -6.092  0.00  0.00    +0.000 A 
ATOM     21  C   UNL     1      -2.175 -10.882  -6.346  0.00  0.00    +0.000 A 
ATOM     22  C   UNL     1      -1.818 -11.711  -5.299  0.00  0.00    +0.000 A 
ATOM     23  C   UNL     1      -2.092 -11.336  -3.997  0.00  0.00    +0.003 A 
ENDBRANCH  17  18
ENDBRANCH  16  17
ENDBRANCH  15  16
ENDBRANCH  13  15
ENDBRANCH   9  11
BRANCH   5  24
ATOM     24  O   UNL     1      -0.446  -2.663   6.497  0.00  0.00    -0.495 OA
ATOM     25  C   UNL     1      -0.547  -1.239   6.563  0.00  0.00    +0.277 C 
ENDBRANCH   5  24
BRANCH   1  26
ATOM     26  S   UNL     1       0.063  -4.533  -0.023  0.00  0.00    -0.091 S 
BRANCH  26  31
ATOM     27  C   UNL     1       5.714  -5.739  -1.769  0.00  0.00    +0.044 C 
ATOM     28  C   UNL     1       4.303  -5.438  -1.333  0.00  0.00    -0.050 A 
ATOM     29  C   UNL     1       3.385  -4.962  -2.251  0.00  0.00    +0.004 A 
ATOM     30  C   UNL     1       2.091  -4.685  -1.855  0.00  0.00    +0.015 A 
ATOM     31  C   UNL     1       1.713  -4.886  -0.533  0.00  0.00    +0.013 A 
ATOM     32  C   UNL     1       2.638  -5.365   0.386  0.00  0.00    +0.015 A 
ATOM     33  C   UNL     1       3.929  -5.644  -0.018  0.00  0.00    +0.004 A 
ENDBRANCH  26  31
ENDBRANCH   1  26
TORSDOF 8
