REMARK  Name = ZINC08836206
REMARK  6 active torsions:
REMARK  status: ('A' for Active; 'I' for Inactive)
REMARK    1  A    between atoms: C_4  and  C_7
REMARK    2  A    between atoms: N_8  and  N_9
REMARK    3  A    between atoms: C_10  and  N_33
REMARK    4  A    between atoms: C_11  and  C_22
REMARK    5  A    between atoms: N_24  and  C_25
REMARK    6  A    between atoms: C_25  and  C_26
REMARK                            x       y       z     vdW  Elec       q    Type
REMARK                         _______ _______ _______ _____ _____    ______ ____
ROOT
ATOM      1  N   UNL     1       3.440  -0.806  -0.033  0.00  0.00    -0.198 N 
ATOM      2  C   UNL     1       2.945  -2.077  -0.035  0.00  0.00    +0.134 A 
ATOM      3  C   UNL     1       1.555  -2.056  -0.023  0.00  0.00    +0.105 A 
ATOM      4  C   UNL     1       1.157  -0.638  -0.012  0.00  0.00    +0.124 A 
ATOM      5  C   UNL     1       2.413   0.118  -0.019  0.00  0.00    +0.183 A 
ATOM      6  N   UNL     1       2.376   1.433  -0.012  0.00  0.00    -0.224 NA
ATOM      7  C   UNL     1       1.197   2.067   0.002  0.00  0.00    +0.092 A 
ATOM      8  C   UNL     1       1.149   3.474   0.009  0.00  0.00    +0.030 A 
ATOM      9  C   UNL     1      -0.054   4.110   0.024  0.00  0.00    +0.002 A 
ATOM     10  C   UNL     1      -1.246   3.389   0.031  0.00  0.00    +0.002 A 
ATOM     11  C   UNL     1      -1.240   2.029   0.019  0.00  0.00    +0.030 A 
ATOM     12  C   UNL     1      -0.016   1.334   0.009  0.00  0.00    +0.090 A 
ATOM     13  N   UNL     1       0.002  -0.004   0.002  0.00  0.00    -0.241 NA
ENDROOT
BRANCH   3  14
ATOM     14  C   UNL     1       0.663  -3.214  -0.021  0.00  0.00    +0.250 C 
ATOM     15  O   UNL     1       0.283  -3.691  -1.075  0.00  0.00    -0.270 OA
ATOM     16  N   UNL     1       0.262  -3.754   1.146  0.00  0.00    -0.307 N 
ATOM     17  H   UNL     1       0.565  -3.374   1.986  0.00  0.00    +0.149 HD
BRANCH  16  18
ATOM     18  C   UNL     1      -0.632  -4.915   1.148  0.00  0.00    +0.139 C 
BRANCH  18  19
ATOM     19  C   UNL     1      -0.926  -5.320   2.569  0.00  0.00    -0.030 A 
ATOM     20  C   UNL     1      -0.116  -6.241   3.207  0.00  0.00    +0.008 A 
ATOM     21  C   UNL     1      -0.382  -6.610   4.511  0.00  0.00    +0.038 A 
ATOM     22  C   UNL     1      -1.468  -6.065   5.177  0.00  0.00    +0.123 A 
ATOM     23  C   UNL     1      -2.282  -5.147   4.535  0.00  0.00    +0.038 A 
ATOM     24  C   UNL     1      -2.010  -4.775   3.232  0.00  0.00    +0.008 A 
ATOM     25  F   UNL     1      -1.732  -6.428   6.451  0.00  0.00    -0.205 F 
ENDBRANCH  18  19
ENDBRANCH  16  18
ENDBRANCH   3  14
BRANCH   2  26
ATOM     26  N   UNL     1       3.711  -3.215  -0.048  0.00  0.00    -0.342 N 
ATOM     27  H   UNL     1       3.284  -4.086  -0.048  0.00  0.00    +0.144 HD
ATOM     28  H   UNL     1       4.678  -3.148  -0.056  0.00  0.00    +0.144 HD
ENDBRANCH   2  26
BRANCH   1  30
ATOM     29  C   UNL     1       5.424  -0.327  -1.173  0.00  0.00    +0.141 C 
ATOM     30  N   UNL     1       4.803  -0.482  -0.044  0.00  0.00    -0.171 NA
BRANCH  29  34
ATOM     31  C   UNL     1       9.553   0.656  -1.206  0.00  0.00    +0.000 A 
ATOM     32  C   UNL     1       8.872   0.502  -2.401  0.00  0.00    +0.001 A 
ATOM     33  C   UNL     1       7.530   0.183  -2.398  0.00  0.00    +0.009 A 
ATOM     34  C   UNL     1       6.859   0.015  -1.185  0.00  0.00    -0.005 A 
ATOM     35  C   UNL     1       7.551   0.177   0.018  0.00  0.00    +0.009 A 
ATOM     36  C   UNL     1       8.894   0.491  -0.001  0.00  0.00    +0.001 A 
ENDBRANCH  29  34
ENDBRANCH   1  30
TORSDOF 6
