REMARK  Name = ZINC43262408
REMARK  5 active torsions:
REMARK  status: ('A' for Active; 'I' for Inactive)
REMARK    1  A    between atoms: C_5  and  C_6
REMARK    2  A    between atoms: C_6  and  C_8
REMARK    3  A    between atoms: C_6  and  N_10
REMARK    4  A    between atoms: C_8  and  N_9
REMARK    5  A    between atoms: C_15  and  C_17
REMARK                            x       y       z     vdW  Elec       q    Type
REMARK                         _______ _______ _______ _____ _____    ______ ____
ROOT
ATOM      1  C   UNL     1      -2.090  -0.185  -0.569  0.00  0.00    +0.077 C 
ENDROOT
BRANCH   1   6
ATOM      2  C   UNL     1      -2.720   0.779   1.745  0.00  0.00    +0.014 A 
ATOM      3  C   UNL     1      -3.093   0.488   3.044  0.00  0.00    +0.023 A 
ATOM      4  C   UNL     1      -3.229  -0.809   3.414  0.00  0.00    +0.055 A 
ATOM      5  S   UNL     1      -2.822  -1.669   1.903  0.00  0.00    -0.085 S 
ATOM      6  C   UNL     1      -2.500  -0.241   0.881  0.00  0.00    +0.006 A 
ATOM      7 BR   UNL     1      -3.719  -1.523   5.095  0.00  0.00    -0.043 Br
ENDBRANCH   1   6
BRANCH   1   8
ATOM      8  N   UNL     1      -1.018  -1.159  -0.812  0.00  0.00    -0.286 NA
ATOM      9  C   UNL     1      -1.562  -2.514  -0.968  0.00  0.00    +0.086 C 
ATOM     10  C   UNL     1      -0.412  -3.518  -1.075  0.00  0.00    +0.015 C 
ATOM     11  C   UNL     1       0.464  -3.158  -2.277  0.00  0.00    +0.003 C 
ATOM     12  C   UNL     1       0.979  -1.726  -2.113  0.00  0.00    +0.028 C 
ATOM     13  C   UNL     1      -0.211  -0.773  -1.977  0.00  0.00    +0.143 C 
BRANCH  13  14
ATOM     14  C   UNL     1       0.291   0.636  -1.796  0.00  0.00    +0.228 C 
ATOM     15  O   UNL     1       0.523   1.058  -0.682  0.00  0.00    -0.274 OA
ATOM     16  N   UNL     1       0.483   1.427  -2.870  0.00  0.00    -0.328 N 
ATOM     17  H   UNL     1       0.297   1.089  -3.760  0.00  0.00    +0.145 HD
ATOM     18  H   UNL     1       0.806   2.334  -2.753  0.00  0.00    +0.145 HD
ENDBRANCH  13  14
ENDBRANCH   1   8
BRANCH   1  19
ATOM     19  C   UNL     1      -3.294  -0.521  -1.452  0.00  0.00    -0.062 C 
BRANCH  19  20
ATOM     20  N   UNL     1      -2.878  -0.532  -2.861  0.00  0.00    +0.379 N 
ATOM     21  H   UNL     1      -2.286   0.264  -3.044  0.00  0.00    -0.090 HD
ATOM     22  H   UNL     1      -2.370  -1.382  -3.055  0.00  0.00    -0.090 HD
ATOM     23  H   UNL     1      -3.695  -0.487  -3.453  0.00  0.00    -0.090 HD
ENDBRANCH  19  20
ENDBRANCH   1  19
TORSDOF 5
