REMARK  Name = ZINC35681704
REMARK  12 active torsions:
REMARK  status: ('A' for Active; 'I' for Inactive)
REMARK    1  A    between atoms: C_1  and  C_2
REMARK    2  A    between atoms: C_2  and  O_3
REMARK    3  A    between atoms: O_3  and  C_4
REMARK    4  A    between atoms: C_7  and  N_10
REMARK    5  A    between atoms: C_12  and  C_31
REMARK    6  A    between atoms: C_18  and  N_19
REMARK    7  A    between atoms: N_19  and  C_20
REMARK    8  A    between atoms: C_20  and  C_21
REMARK    9  A    between atoms: C_21  and  C_23
REMARK   10  A    between atoms: C_21  and  N_28
REMARK   11  A    between atoms: N_28  and  C_29
REMARK   12  A    between atoms: N_28  and  C_30
REMARK                            x       y       z     vdW  Elec       q    Type
REMARK                         _______ _______ _______ _____ _____    ______ ____
ROOT
ATOM      1  N   UNL     1       1.065  -5.948   2.784  0.00  0.00    -0.300 N 
ATOM      2  C   UNL     1       0.097  -6.880   2.519  0.00  0.00    +0.102 A 
ATOM      3  C   UNL     1       0.636  -8.123   2.571  0.00  0.00    +0.013 A 
ATOM      4  C   UNL     1       2.058  -7.950   2.897  0.00  0.00    +0.067 A 
ATOM      5  C   UNL     1       2.267  -6.564   3.013  0.00  0.00    +0.151 A 
ATOM      6  N   UNL     1       3.493  -6.129   3.303  0.00  0.00    -0.217 NA
ATOM      7  C   UNL     1       4.484  -6.976   3.473  0.00  0.00    +0.225 A 
ATOM      8  N   UNL     1       4.331  -8.284   3.370  0.00  0.00    -0.220 NA
ATOM      9  C   UNL     1       3.143  -8.814   3.092  0.00  0.00    +0.132 A 
ENDROOT
BRANCH   1  13
ATOM     10  C   UNL     1       0.444  -1.824   2.869  0.00  0.00    +0.121 A 
ATOM     11  C   UNL     1      -0.003  -2.570   1.788  0.00  0.00    +0.047 A 
ATOM     12  C   UNL     1       0.202  -3.936   1.760  0.00  0.00    +0.030 A 
ATOM     13  C   UNL     1       0.856  -4.561   2.813  0.00  0.00    +0.048 A 
ATOM     14  C   UNL     1       1.304  -3.813   3.893  0.00  0.00    +0.030 A 
ATOM     15  C   UNL     1       1.103  -2.447   3.918  0.00  0.00    +0.047 A 
BRANCH  10  16
ATOM     16  O   UNL     1       0.242  -0.480   2.896  0.00  0.00    -0.492 OA
BRANCH  16  18
ATOM     17  C   UNL     1      -0.577   1.606   1.990  0.00  0.00    +0.048 C 
ATOM     18  C   UNL     1      -0.444   0.096   1.782  0.00  0.00    +0.225 C 
ENDBRANCH  16  18
ENDBRANCH  10  16
ENDBRANCH   1  13
BRANCH   3  19
ATOM     19  C   UNL     1      -0.071  -9.406   2.345  0.00  0.00    -0.016 A 
ATOM     20  C   UNL     1       0.379 -10.290   1.365  0.00  0.00    +0.008 A 
ATOM     21  C   UNL     1      -0.283 -11.483   1.159  0.00  0.00    +0.001 A 
ATOM     22  C   UNL     1      -1.393 -11.802   1.922  0.00  0.00    +0.000 A 
ATOM     23  C   UNL     1      -1.844 -10.929   2.895  0.00  0.00    +0.001 A 
ATOM     24  C   UNL     1      -1.187  -9.735   3.114  0.00  0.00    +0.008 A 
ENDBRANCH   3  19
BRANCH   9  25
ATOM     25  N   UNL     1       2.986 -10.184   2.983  0.00  0.00    -0.330 N 
ATOM     26  H   UNL     1       2.134 -10.554   2.704  0.00  0.00    +0.147 HD
BRANCH  25  27
ATOM     27  C   UNL     1       4.107 -11.076   3.290  0.00  0.00    +0.095 C 
BRANCH  27  28
ATOM     28  C   UNL     1       3.711 -12.520   2.973  0.00  0.00    +0.016 C 
BRANCH  28  29
ATOM     29  C   UNL     1       2.609 -12.954   3.904  0.00  0.00    +0.093 A 
ATOM     30  C   UNL     1       2.763 -13.701   5.012  0.00  0.00    +0.043 A 
ATOM     31  C   UNL     1       1.477 -13.867   5.576  0.00  0.00    +0.041 A 
ATOM     32  C   UNL     1       0.614 -13.212   4.779  0.00  0.00    +0.195 A 
ATOM     33  O   UNL     1       1.306 -12.656   3.771  0.00  0.00    -0.469 OA
ENDBRANCH  28  29
BRANCH  28  34
ATOM     34  N   UNL     1       3.242 -12.606   1.584  0.00  0.00    +0.384 N 
ATOM     35  C   UNL     1       4.348 -12.283   0.672  0.00  0.00    -0.096 C 
ATOM     36  C   UNL     1       2.764 -13.968   1.312  0.00  0.00    -0.096 C 
ATOM     37  H   UNL     1       2.488 -11.950   1.443  0.00  0.00    -0.082 HD
ENDBRANCH  28  34
ENDBRANCH  27  28
ENDBRANCH  25  27
ENDBRANCH   9  25
TORSDOF 9
