REMARK  Name = ZINC67261320
REMARK  8 active torsions:
REMARK  status: ('A' for Active; 'I' for Inactive)
REMARK    1  A    between atoms: C_1  and  C_2
REMARK    2  A    between atoms: C_2  and  C_3
REMARK    3  A    between atoms: C_3  and  O_4
REMARK    4  A    between atoms: O_4  and  C_5
REMARK    5  A    between atoms: C_8  and  C_11
REMARK    6  A    between atoms: C_11  and  N_12
REMARK    7  A    between atoms: C_23  and  S_26
REMARK    8  A    between atoms: S_26  and  C_29
REMARK                            x       y       z     vdW  Elec       q    Type
REMARK                         _______ _______ _______ _____ _____    ______ ____
ROOT
ATOM      1  N   UNL     1       2.379  -4.732   6.615  0.00  0.00    -0.324 N 
ATOM      2  C   UNL     1       2.785  -5.350   7.780  0.00  0.00    +0.131 A 
ATOM      3  C   UNL     1       1.822  -5.609   8.861  0.00  0.00    +0.040 A 
ATOM      4  C   UNL     1       0.480  -5.244   8.751  0.00  0.00    +0.013 A 
ATOM      5  C   UNL     1      -0.383  -5.507   9.791  0.00  0.00    +0.001 A 
ATOM      6  C   UNL     1       0.074  -6.132  10.943  0.00  0.00    +0.002 A 
ATOM      7  C   UNL     1       1.398  -6.498  11.067  0.00  0.00    +0.028 A 
ATOM      8  C   UNL     1       2.283  -6.242  10.030  0.00  0.00    +0.080 A 
ATOM      9  N   UNL     1       3.619  -6.591  10.107  0.00  0.00    -0.192 N 
ATOM     10  C   UNL     1       4.465  -6.322   9.063  0.00  0.00    +0.204 A 
ATOM     11  N   UNL     1       4.037  -5.722   7.938  0.00  0.00    -0.209 NA
ATOM     12  C   UNL     1       5.707  -6.790   9.451  0.00  0.00    +0.249 A 
ATOM     13  N   UNL     1       5.601  -7.311  10.668  0.00  0.00    -0.108 NA
ATOM     14  N   UNL     1       4.391  -7.217  11.094  0.00  0.00    -0.057 NA
ATOM     15  H   UNL     1       1.454  -4.461   6.506  0.00  0.00    +0.148 HD
ENDROOT
BRANCH  12  16
ATOM     16  S   UNL     1       7.183  -6.709   8.492  0.00  0.00    +0.047 S 
ATOM     17  O   UNL     1       8.035  -7.742   8.968  0.00  0.00    -0.163 OA
ATOM     18  O   UNL     1       6.779  -6.621   7.132  0.00  0.00    -0.163 OA
BRANCH  16  19
ATOM     19  C   UNL     1       7.974  -5.183   8.881  0.00  0.00    +0.095 A 
ATOM     20  C   UNL     1       7.677  -4.045   8.155  0.00  0.00    +0.027 A 
ATOM     21  C   UNL     1       8.298  -2.849   8.461  0.00  0.00    +0.002 A 
ATOM     22  C   UNL     1       9.216  -2.790   9.493  0.00  0.00    +0.000 A 
ATOM     23  C   UNL     1       9.512  -3.928  10.220  0.00  0.00    +0.002 A 
ATOM     24  C   UNL     1       8.888  -5.124   9.917  0.00  0.00    +0.027 A 
ENDBRANCH  16  19
ENDBRANCH  12  16
BRANCH   1  25
ATOM     25  C   UNL     1       3.346  -4.486   5.542  0.00  0.00    +0.138 C 
BRANCH  25  29
ATOM     26  C   UNL     1       1.385  -2.554   2.273  0.00  0.00    +0.121 A 
ATOM     27  C   UNL     1       1.962  -1.797   3.283  0.00  0.00    +0.046 A 
ATOM     28  C   UNL     1       2.595  -2.424   4.339  0.00  0.00    +0.009 A 
ATOM     29  C   UNL     1       2.654  -3.804   4.389  0.00  0.00    -0.030 A 
ATOM     30  C   UNL     1       2.081  -4.561   3.384  0.00  0.00    +0.009 A 
ATOM     31  C   UNL     1       1.442  -3.939   2.329  0.00  0.00    +0.046 A 
BRANCH  26  32
ATOM     32  O   UNL     1       0.761  -1.940   1.234  0.00  0.00    -0.492 OA
BRANCH  32  33
ATOM     33  C   UNL     1       0.742  -0.511   1.242  0.00  0.00    +0.229 C 
BRANCH  33  35
ATOM     34  C   UNL     1      -0.019   1.526   0.010  0.00  0.00    +0.007 C 
ATOM     35  C   UNL     1       0.002  -0.004   0.002  0.00  0.00    +0.038 C 
ENDBRANCH  33  35
ENDBRANCH  32  33
ENDBRANCH  26  32
ENDBRANCH  25  29
ENDBRANCH   1  25
TORSDOF 7
