REMARK  Name = ZINC42652324
REMARK  2 active torsions:
REMARK  status: ('A' for Active; 'I' for Inactive)
REMARK    1  A    between atoms: C_7  and  C_9
REMARK    2  A    between atoms: C_9  and  C_10
REMARK                            x       y       z     vdW  Elec       q    Type
REMARK                         _______ _______ _______ _____ _____    ______ ____
ROOT
ATOM      1  C   UNL     1       1.096   7.950   0.033  0.00  0.00    -0.019 C 
ATOM      2  C   UNL     1       0.225   7.976   1.290  0.00  0.00    +0.011 C 
ATOM      3  C   UNL     1      -0.611   9.258   1.304  0.00  0.00    -0.009 C 
ATOM      4  C   UNL     1       0.319  10.473   1.302  0.00  0.00    +0.007 C 
ATOM      5  C   UNL     1       1.191  10.446   0.045  0.00  0.00    -0.009 C 
ATOM      6  C   UNL     1       2.026   9.165   0.031  0.00  0.00    +0.011 C 
ATOM      7  C   UNL     1       0.297  10.486  -1.196  0.00  0.00    +0.021 C 
ATOM      8  C   UNL     1      -0.633   9.271  -1.194  0.00  0.00    +0.027 C 
ATOM      9  C   UNL     1      -1.504   9.298   0.063  0.00  0.00    +0.021 C 
ATOM     10  C   UNL     1       0.202   7.989  -1.208  0.00  0.00    +0.025 C 
ATOM     11 BR   UNL     1      -1.782   9.322  -2.789  0.00  0.00    -0.084 Br
ENDROOT
BRANCH   1  12
ATOM     12  C   UNL     1       1.932   6.668   0.019  0.00  0.00    +0.103 C 
BRANCH  12  19
ATOM     13  C   UNL     1      -0.013   1.076   0.008  0.00  0.00    +0.249 A 
ATOM     14  N   UNL     1       1.063   1.864   0.002  0.00  0.00    -0.200 NA
ATOM     15  C   UNL     1       0.689   3.124   0.012  0.00  0.00    +0.243 A 
ATOM     16  N   UNL     1      -0.660   3.157   0.025  0.00  0.00    -0.111 NA
ATOM     17  N   UNL     1      -1.087   1.819   0.017  0.00  0.00    -0.134 NA
ATOM     18  N   UNL     1       1.533   4.227   0.010  0.00  0.00    -0.253 N 
ATOM     19  C   UNL     1       1.016   5.471   0.021  0.00  0.00    +0.220 C 
ATOM     20  O   UNL     1      -0.187   5.628   0.033  0.00  0.00    -0.275 OA
ATOM     21  H   UNL     1       2.495   4.101   0.001  0.00  0.00    +0.158 HD
ENDBRANCH  12  19
ENDBRANCH   1  12
TORSDOF 2
