REMARK  Name = ZINC01317724
REMARK  5 active torsions:
REMARK  status: ('A' for Active; 'I' for Inactive)
REMARK    1  A    between atoms: N_7  and  C1*_11
REMARK    2  A    between atoms: C2*_13  and  O2*_23
REMARK    3  A    between atoms: C3*_15  and  O3*_22
REMARK    4  A    between atoms: C4*_17  and  C5*_20
REMARK    5  A    between atoms: C5*_20  and  O5*_21
REMARK                            x       y       z     vdW  Elec       q    Type
REMARK                         _______ _______ _______ _____ _____    ______ ____
ROOT
ATOM      1  C   UNL     1       1.105   2.024   0.002  0.00  0.00    +0.225 A 
ATOM      2  N   UNL     1      -0.016   1.325   0.009  0.00  0.00    -0.219 NA
ATOM      3  C   UNL     1       0.002  -0.004   0.002  0.00  0.00    +0.147 A 
ATOM      4  C   UNL     1       1.246  -0.657  -0.013  0.00  0.00    +0.148 A 
ATOM      5  C   UNL     1       2.409   0.132  -0.020  0.00  0.00    +0.168 A 
ATOM      6  N   UNL     1       2.292   1.456  -0.012  0.00  0.00    -0.216 NA
ATOM      7  N   UNL     1       3.463  -0.747  -0.035  0.00  0.00    -0.274 N 
ATOM      8  C   UNL     1       2.944  -2.008  -0.036  0.00  0.00    +0.182 A 
ATOM      9  N   UNL     1       1.642  -1.953  -0.024  0.00  0.00    -0.216 NA
ATOM     10 BR   UNL     1       3.962  -3.602  -0.054  0.00  0.00    -0.008 Br
ATOM     11  N   UNL     1      -1.177  -0.728   0.009  0.00  0.00    -0.341 N 
ATOM     12  H   UNL     1      -1.701  -0.505   0.831  0.00  0.00    +0.144 HD
ATOM     13  H   UNL     1      -1.151  -1.698   0.004  0.00  0.00    +0.144 HD
ENDROOT
BRANCH   7  14
ATOM     14  C1* UNL     1       4.885  -0.396  -0.047  0.00  0.00    +0.254 C 
ATOM     15  C2* UNL     1       5.471  -0.632  -1.455  0.00  0.00    +0.195 C 
ATOM     16  C3* UNL     1       6.875  -1.217  -1.133  0.00  0.00    +0.178 C 
ATOM     17  C4* UNL     1       6.571  -2.019   0.158  0.00  0.00    +0.177 C 
ATOM     18  O4* UNL     1       5.601  -1.234   0.868  0.00  0.00    -0.346 OA
BRANCH  16  19
ATOM     19  O3* UNL     1       7.327  -2.078  -2.180  0.00  0.00    -0.386 OA
ATOM     20  H3* UNL     1       8.148  -2.547  -1.976  0.00  0.00    +0.210 HD
ENDBRANCH  16  19
BRANCH  15  21
ATOM     21  O2* UNL     1       5.584   0.599  -2.173  0.00  0.00    -0.385 OA
ATOM     22  H2* UNL     1       5.947   0.503  -3.064  0.00  0.00    +0.210 HD
ENDBRANCH  15  21
BRANCH  17  23
ATOM     23  C5* UNL     1       7.841  -2.179   0.995  0.00  0.00    +0.190 C 
BRANCH  23  24
ATOM     24  O5* UNL     1       7.552  -2.963   2.154  0.00  0.00    -0.392 OA
ATOM     25  H5* UNL     1       8.314  -3.106   2.733  0.00  0.00    +0.210 HD
ENDBRANCH  23  24
ENDBRANCH  17  23
ENDBRANCH   7  14
TORSDOF 5
