REMARK  Name = ZINC08636701
REMARK  12 active torsions:
REMARK  status: ('A' for Active; 'I' for Inactive)
REMARK    1  A    between atoms: C_1  and  C_2
REMARK    2  A    between atoms: C_2  and  C_3
REMARK    3  A    between atoms: C_5  and  C_24
REMARK    4  A    between atoms: C_6  and  N_8
REMARK    5  A    between atoms: C_9  and  C_11
REMARK    6  A    between atoms: C_11  and  S_12
REMARK    7  A    between atoms: S_12  and  C_13
REMARK    8  A    between atoms: C_16  and  C_19
REMARK    9  A    between atoms: N_17  and  C_18
REMARK   10  A    between atoms: C_24  and  C_26
REMARK   11  A    between atoms: C_29  and  O_32
REMARK   12  A    between atoms: O_32  and  C_33
REMARK                            x       y       z     vdW  Elec       q    Type
REMARK                         _______ _______ _______ _____ _____    ______ ____
ROOT
ATOM      1  C   UNL     1       2.504   3.973  -0.058  0.00  0.00    -0.008 A 
ATOM      2  C   UNL     1       1.293   3.390  -0.078  0.00  0.00    +0.024 A 
ATOM      3  C   UNL     1       1.252   1.950   0.015  0.00  0.00    +0.051 A 
ATOM      4  C   UNL     1       2.478   1.295   0.106  0.00  0.00    +0.083 A 
ATOM      5  S   UNL     1       3.623   2.594   0.073  0.00  0.00    -0.078 S 
ENDROOT
BRANCH   4   6
ATOM      6  N   UNL     1       2.722  -0.066   0.200  0.00  0.00    -0.279 N 
ATOM      7  C   UNL     1       3.989  -0.519   0.280  0.00  0.00    +0.228 C 
ATOM      8  O   UNL     1       4.915   0.264   0.270  0.00  0.00    -0.275 OA
ATOM      9  H   UNL     1       1.982  -0.692   0.208  0.00  0.00    +0.155 HD
BRANCH   7  10
ATOM     10  C   UNL     1       4.255  -1.998   0.383  0.00  0.00    +0.173 C 
BRANCH  10  11
ATOM     11  S   UNL     1       6.039  -2.286   0.474  0.00  0.00    -0.077 S 
BRANCH  11  12
ATOM     12  C   UNL     1       6.061  -4.045   0.584  0.00  0.00    +0.192 A 
ATOM     13  N   UNL     1       5.013  -4.837   0.595  0.00  0.00    -0.122 NA
ATOM     14  N   UNL     1       5.387  -6.064   0.682  0.00  0.00    -0.128 NA
ATOM     15  C   UNL     1       6.699  -6.130   0.740  0.00  0.00    +0.171 A 
ATOM     16  N   UNL     1       7.170  -4.838   0.678  0.00  0.00    -0.305 N 
ATOM     17  C   UNL     1       8.569  -4.403   0.708  0.00  0.00    +0.153 C 
BRANCH  15  18
ATOM     18  C   UNL     1       7.509  -7.354   0.849  0.00  0.00    +0.056 A 
ATOM     19  C   UNL     1       7.117  -8.623   1.194  0.00  0.00    +0.019 A 
ATOM     20  C   UNL     1       8.064  -9.621   1.224  0.00  0.00    +0.008 A 
ATOM     21  C   UNL     1       9.354  -9.320   0.925  0.00  0.00    +0.046 A 
ATOM     22  S   UNL     1       9.260  -7.572   0.575  0.00  0.00    -0.094 S 
ENDBRANCH  15  18
ENDBRANCH  11  12
ENDBRANCH  10  11
ENDBRANCH   7  10
ENDBRANCH   4   6
BRANCH   1  24
ATOM     23  C   UNL     1       2.889   6.027   1.277  0.00  0.00    +0.009 C 
ATOM     24  C   UNL     1       2.836   5.441  -0.135  0.00  0.00    +0.039 C 
ENDBRANCH   1  24
BRANCH   3  25
ATOM     25  C   UNL     1      -0.014   1.214   0.009  0.00  0.00    +0.195 C 
ATOM     26  O   UNL     1      -0.628   1.067  -1.033  0.00  0.00    -0.287 OA
BRANCH  25  27
ATOM     27  C   UNL     1      -0.550   0.654   1.266  0.00  0.00    +0.023 A 
ATOM     28  C   UNL     1       0.096   0.912   2.478  0.00  0.00    +0.015 A 
ATOM     29  C   UNL     1      -0.410   0.394   3.650  0.00  0.00    +0.046 A 
ATOM     30  C   UNL     1      -1.555  -0.395   3.626  0.00  0.00    +0.120 A 
ATOM     31  C   UNL     1      -2.196  -0.658   2.421  0.00  0.00    +0.046 A 
ATOM     32  C   UNL     1      -1.700  -0.139   1.246  0.00  0.00    +0.015 A 
BRANCH  30  33
ATOM     33  O   UNL     1      -2.047  -0.909   4.782  0.00  0.00    -0.495 OA
ATOM     34  C   UNL     1      -1.338  -0.599   5.983  0.00  0.00    +0.277 C 
ENDBRANCH  30  33
ENDBRANCH  25  27
ENDBRANCH   3  25
TORSDOF 9
