REMARK  Name = ZINC59456654
REMARK  9 active torsions:
REMARK  status: ('A' for Active; 'I' for Inactive)
REMARK    1  A    between atoms: C_1  and  C_2
REMARK    2  A    between atoms: C_2  and  C_4
REMARK    3  A    between atoms: C_2  and  N_10
REMARK    4  A    between atoms: C_11  and  C_13
REMARK    5  A    between atoms: C_13  and  S_14
REMARK    6  A    between atoms: S_14  and  C_15
REMARK    7  A    between atoms: N_28  and  C_29
REMARK    8  A    between atoms: C_29  and  C_30
REMARK    9  A    between atoms: C_30  and  C_31
REMARK                            x       y       z     vdW  Elec       q    Type
REMARK                         _______ _______ _______ _____ _____    ______ ____
ROOT
ATOM      1  C   UNL     1      -5.625  -0.945   3.743  0.00  0.00    +0.199 A 
ATOM      2  N   UNL     1      -6.405  -1.070   2.691  0.00  0.00    -0.120 NA
ATOM      3  N   UNL     1      -7.520  -1.618   3.025  0.00  0.00    -0.106 NA
ATOM      4  C   UNL     1      -7.521  -1.879   4.318  0.00  0.00    +0.276 A 
ATOM      5  N   UNL     1      -6.299  -1.456   4.807  0.00  0.00    -0.237 N 
ATOM      6  C   UNL     1      -6.025  -1.615   6.143  0.00  0.00    +0.152 A 
ATOM      7  C   UNL     1      -7.002  -2.203   6.942  0.00  0.00    +0.136 A 
ATOM      8  C   UNL     1      -6.450  -2.246   8.307  0.00  0.00    +0.029 A 
ATOM      9  C   UNL     1      -6.934  -2.709   9.529  0.00  0.00    +0.012 A 
ATOM     10  C   UNL     1      -6.152  -2.605  10.658  0.00  0.00    +0.001 A 
ATOM     11  C   UNL     1      -4.887  -2.042  10.582  0.00  0.00    +0.002 A 
ATOM     12  C   UNL     1      -4.395  -1.580   9.381  0.00  0.00    +0.026 A 
ATOM     13  C   UNL     1      -5.169  -1.676   8.229  0.00  0.00    +0.053 A 
ATOM     14  N   UNL     1      -4.945  -1.308   6.915  0.00  0.00    -0.324 N 
ATOM     15  N   UNL     1      -8.164  -2.593   6.402  0.00  0.00    -0.142 NA
ATOM     16  N   UNL     1      -8.415  -2.434   5.150  0.00  0.00    -0.108 NA
ENDROOT
BRANCH   1  17
ATOM     17  S   UNL     1      -4.005  -0.251   3.767  0.00  0.00    -0.076 S 
BRANCH  17  18
ATOM     18  C   UNL     1      -3.775   0.385   2.084  0.00  0.00    +0.173 C 
BRANCH  18  20
ATOM     19  N   UNL     1      -2.011   1.568   0.816  0.00  0.00    -0.308 N 
ATOM     20  C   UNL     1      -2.480   1.151   2.009  0.00  0.00    +0.224 C 
ATOM     21  O   UNL     1      -1.859   1.393   3.022  0.00  0.00    -0.275 OA
ATOM     22  H   UNL     1      -2.542   1.438   0.014  0.00  0.00    +0.149 HD
BRANCH  19  24
ATOM     23  C   UNL     1      -0.837   3.694   1.098  0.00  0.00    +0.033 C 
ATOM     24  C   UNL     1      -0.700   2.216   0.730  0.00  0.00    +0.100 C 
BRANCH  24  25
ATOM     25  C   UNL     1      -0.172   2.096  -0.677  0.00  0.00    -0.027 A 
ATOM     26  C   UNL     1      -1.026   2.255  -1.752  0.00  0.00    +0.005 A 
ATOM     27  C   UNL     1      -0.542   2.145  -3.042  0.00  0.00    +0.000 A 
ATOM     28  C   UNL     1       0.797   1.876  -3.257  0.00  0.00    +0.000 A 
ATOM     29  C   UNL     1       1.651   1.718  -2.182  0.00  0.00    +0.000 A 
ATOM     30  C   UNL     1       1.168   1.833  -0.892  0.00  0.00    +0.005 A 
ENDBRANCH  24  25
ENDBRANCH  19  24
ENDBRANCH  18  20
ENDBRANCH  17  18
ENDBRANCH   1  17
BRANCH  14  31
ATOM     31  C   UNL     1      -3.718  -0.676   6.423  0.00  0.00    +0.128 C 
BRANCH  31  32
ATOM     32  C   UNL     1      -2.774  -1.750   5.880  0.00  0.00    +0.057 C 
BRANCH  32  33
ATOM     33  C   UNL     1      -1.478  -1.110   5.452  0.00  0.00    -0.046 A 
ATOM     34  C   UNL     1      -1.191  -0.964   4.107  0.00  0.00    +0.004 A 
ATOM     35  C   UNL     1      -0.003  -0.377   3.715  0.00  0.00    +0.000 A 
ATOM     36  C   UNL     1       0.898   0.064   4.666  0.00  0.00    +0.000 A 
ATOM     37  C   UNL     1       0.610  -0.081   6.010  0.00  0.00    +0.000 A 
ATOM     38  C   UNL     1      -0.580  -0.664   6.403  0.00  0.00    +0.004 A 
ENDBRANCH  32  33
ENDBRANCH  31  32
ENDBRANCH  14  31
TORSDOF 8
