REMARK  Name = ZINC12891854
REMARK  7 active torsions:
REMARK  status: ('A' for Active; 'I' for Inactive)
REMARK    1  A    between atoms: C_3  and  C_6
REMARK    2  A    between atoms: C_6  and  O_7
REMARK    3  A    between atoms: O_7  and  C_8
REMARK    4  A    between atoms: C_8  and  C_9
REMARK    5  A    between atoms: C_9  and  C_11
REMARK    6  A    between atoms: C_9  and  O_26
REMARK    7  A    between atoms: C_11  and  N_12
REMARK                            x       y       z     vdW  Elec       q    Type
REMARK                         _______ _______ _______ _____ _____    ______ ____
ROOT
ATOM      1  N   UNL     1       1.197   6.073   0.016  0.00  0.00    -0.296 N 
ATOM      2  C   UNL     1      -0.135   6.320   0.031  0.00  0.00    +0.203 A 
ATOM      3  N   UNL     1      -1.040   5.367   0.036  0.00  0.00    -0.230 NA
ATOM      4  C   UNL     1      -0.606   4.111   0.027  0.00  0.00    +0.116 A 
ATOM      5  C   UNL     1       0.760   3.751   0.013  0.00  0.00    +0.076 A 
ATOM      6  C   UNL     1       1.716   4.822   0.007  0.00  0.00    +0.262 A 
ATOM      7  O   UNL     1       2.918   4.618  -0.005  0.00  0.00    -0.267 OA
ATOM      8  C   UNL     1       1.048   2.328   0.005  0.00  0.00    -0.023 A 
ATOM      9  C   UNL     1      -0.018   1.493   0.010  0.00  0.00    -0.004 A 
ATOM     10  S   UNL     1      -1.440   2.556   0.022  0.00  0.00    -0.073 S 
ATOM     11  C   UNL     1       0.002  -0.004   0.002  0.00  0.00    +0.043 C 
ATOM     12  C   UNL     1       1.412  -0.469  -0.389  0.00  0.00    +0.005 C 
ATOM     13  C   UNL     1       2.433   0.311   0.445  0.00  0.00    +0.005 C 
ATOM     14  C   UNL     1       2.469   1.770  -0.011  0.00  0.00    +0.037 C 
ENDROOT
BRANCH   1  15
ATOM     15  C   UNL     1       2.119   7.211   0.011  0.00  0.00    +0.160 C 
BRANCH  15  16
ATOM     16  C   UNL     1       2.426   7.612  -1.434  0.00  0.00    +0.160 C 
BRANCH  16  17
ATOM     17  O   UNL     1       1.233   8.088  -2.059  0.00  0.00    -0.388 OA
ATOM     18  H   UNL     1       0.842   8.860  -1.626  0.00  0.00    +0.210 HD
ENDBRANCH  16  17
BRANCH  16  19
ATOM     19  C   UNL     1       3.483   8.718  -1.443  0.00  0.00    +0.193 C 
BRANCH  19  20
ATOM     20  O   UNL     1       3.854   9.011  -2.791  0.00  0.00    -0.370 OA
BRANCH  20  21
ATOM     21  C   UNL     1       4.842  10.036  -2.912  0.00  0.00    +0.234 C 
BRANCH  21  24
ATOM     22  C   UNL     1       5.143  11.016  -6.452  0.00  0.00    +0.041 A 
ATOM     23  C   UNL     1       4.532  11.132  -5.182  0.00  0.00    +0.047 A 
ATOM     24  C   UNL     1       5.156  10.262  -4.369  0.00  0.00    +0.130 A 
ATOM     25  O   UNL     1       6.111   9.632  -5.073  0.00  0.00    -0.465 OA
ATOM     26  C   UNL     1       6.103  10.081  -6.339  0.00  0.00    +0.195 A 
ENDBRANCH  21  24
ENDBRANCH  20  21
ENDBRANCH  19  20
ENDBRANCH  16  19
ENDBRANCH  15  16
ENDBRANCH   1  15
TORSDOF 7
