REMARK  Name = ZINC28883045
REMARK  10 active torsions:
REMARK  status: ('A' for Active; 'I' for Inactive)
REMARK    1  A    between atoms: C_3  and  S_27
REMARK    2  A    between atoms: C_6  and  C_7
REMARK    3  A    between atoms: C_7  and  C_8
REMARK    4  A    between atoms: C_8  and  N_9
REMARK    5  A    between atoms: C_10  and  C_12
REMARK    6  A    between atoms: C_12  and  C_13
REMARK    7  A    between atoms: C_13  and  N_14
REMARK    8  A    between atoms: N_17  and  C_20
REMARK    9  A    between atoms: C_20  and  C_21
REMARK   10  A    between atoms: S_27  and  N_30
REMARK                            x       y       z     vdW  Elec       q    Type
REMARK                         _______ _______ _______ _____ _____    ______ ____
ROOT
ATOM      1  N   UNL     1       5.335  -4.543  -7.778  0.00  0.00    -0.315 N 
ATOM      2  C   UNL     1       5.732  -3.483  -7.048  0.00  0.00    +0.214 C 
ATOM      3  O   UNL     1       6.462  -2.648  -7.538  0.00  0.00    -0.276 OA
ATOM      4  H   UNL     1       4.673  -5.301  -7.333  0.00  0.00    +0.149 HD
ENDROOT
BRANCH   1   5
ATOM      5  C   UNL     1       5.785  -4.688  -9.165  0.00  0.00    +0.109 C 
BRANCH   5   6
ATOM      6  C   UNL     1       5.196  -5.967  -9.762  0.00  0.00    +0.054 C 
BRANCH   6  12
ATOM      7  C   UNL     1       4.912  -5.572 -12.217  0.00  0.00    +0.005 A 
ATOM      8  C   UNL     1       5.339  -5.705 -13.525  0.00  0.00    +0.029 A 
ATOM      9  C   UNL     1       6.508  -6.388 -13.805  0.00  0.00    +0.105 A 
ATOM     10  C   UNL     1       7.252  -6.935 -12.776  0.00  0.00    +0.029 A 
ATOM     11  C   UNL     1       6.827  -6.799 -11.468  0.00  0.00    +0.005 A 
ATOM     12  C   UNL     1       5.659  -6.115 -11.188  0.00  0.00    -0.046 A 
BRANCH   9  13
ATOM     13  S   UNL     1       7.051  -6.560 -15.473  0.00  0.00    +0.056 S 
ATOM     14  O   UNL     1       6.465  -5.491 -16.203  0.00  0.00    -0.153 OA
ATOM     15  O   UNL     1       8.455  -6.770 -15.423  0.00  0.00    -0.153 OA
BRANCH  13  16
ATOM     16  N   UNL     1       6.384  -7.957 -16.062  0.00  0.00    -0.204 NA
ATOM     17  H   UNL     1       6.699  -8.102 -17.106  0.00  0.00    +0.144 HD
ATOM     18  H   UNL     1       5.287  -7.887 -16.017  0.00  0.00    +0.144 HD
ENDBRANCH  13  16
ENDBRANCH   9  13
ENDBRANCH   6  12
ENDBRANCH   5   6
ENDBRANCH   1   5
BRANCH   2  19
ATOM     19  C   UNL     1       5.269  -3.334  -5.621  0.00  0.00    +0.111 C 
BRANCH  19  20
ATOM     20  C   UNL     1       5.859  -2.055  -5.024  0.00  0.00    +0.093 C 
BRANCH  20  21
ATOM     21  N   UNL     1       5.407  -1.910  -3.634  0.00  0.00    -0.305 NA
ATOM     22  C   UNL     1       6.135  -0.830  -2.953  0.00  0.00    +0.066 C 
ATOM     23  C   UNL     1       5.694  -0.764  -1.489  0.00  0.00    -0.063 C 
ATOM     24  N   UNL     1       4.243  -0.538  -1.427  0.00  0.00    +0.384 N 
ATOM     25  C   UNL     1       3.515  -1.619  -2.108  0.00  0.00    -0.063 C 
ATOM     26  C   UNL     1       3.957  -1.685  -3.572  0.00  0.00    +0.066 C 
ATOM     27  H   UNL     1       4.023   0.403  -1.953  0.00  0.00    -0.081 HD
BRANCH  24  28
ATOM     28  C   UNL     1       3.792  -0.394  -0.037  0.00  0.00    -0.035 C 
BRANCH  28  29
ATOM     29  C   UNL     1       2.360   0.077  -0.020  0.00  0.00    -0.025 A 
ATOM     30  C   UNL     1       1.221  -0.657  -0.013  0.00  0.00    +0.011 A 
ATOM     31  C   UNL     1       0.002  -0.004   0.002  0.00  0.00    +0.028 A 
ATOM     32  C   UNL     1      -0.016   1.352   0.009  0.00  0.00    +0.078 A 
ATOM     33  S   UNL     1       1.725   1.745  -0.005  0.00  0.00    -0.084 S 
ATOM     34 CL   UNL     1      -1.379   2.427   0.022  0.00  0.00    -0.076 Cl
ENDBRANCH  28  29
ENDBRANCH  24  28
ENDBRANCH  20  21
ENDBRANCH  19  20
ENDBRANCH   2  19
TORSDOF 10
