REMARK  Name = ZINC06232514
REMARK  8 active torsions:
REMARK  status: ('A' for Active; 'I' for Inactive)
REMARK    1  A    between atoms: C_1  and  C_2
REMARK    2  A    between atoms: C_2  and  C_12
REMARK    3  A    between atoms: C_4  and  O_11
REMARK    4  A    between atoms: C_7  and  C_9
REMARK    5  A    between atoms: C_7  and  C_10
REMARK    6  A    between atoms: C_12  and  N_13
REMARK    7  A    between atoms: N_13  and  C_14
REMARK    8  A    between atoms: N_21  and  C_24
REMARK                            x       y       z     vdW  Elec       q    Type
REMARK                         _______ _______ _______ _____ _____    ______ ____
ROOT
ATOM      1  C   UNL     1      -3.533  -0.201  -1.174  0.00  0.00    +0.085 C 
ATOM      2  C   UNL     1      -4.255   0.346  -2.219  0.00  0.00    +0.113 C 
ATOM      3  C   UNL     1      -5.706   0.122  -2.351  0.00  0.00    +0.258 C 
ATOM      4  O   UNL     1      -6.311  -0.552  -1.539  0.00  0.00    -0.270 OA
ATOM      5  N   UNL     1      -6.345   0.686  -3.396  0.00  0.00    -0.235 N 
ATOM      6  C   UNL     1      -5.691   1.432  -4.298  0.00  0.00    +0.320 C 
ATOM      7  O   UNL     1      -6.326   1.913  -5.216  0.00  0.00    -0.251 OA
ATOM      8  N   UNL     1      -4.375   1.677  -4.239  0.00  0.00    -0.190 N 
ATOM      9  C   UNL     1      -3.609   1.182  -3.245  0.00  0.00    +0.265 C 
ATOM     10  O   UNL     1      -2.416   1.415  -3.201  0.00  0.00    -0.269 OA
ATOM     11  H   UNL     1      -7.300   0.549  -3.498  0.00  0.00    +0.159 HD
ENDROOT
BRANCH   8  12
ATOM     12  C   UNL     1      -3.781   2.471  -5.231  0.00  0.00    +0.046 A 
ATOM     13  C   UNL     1      -2.869   1.911  -6.116  0.00  0.00    +0.025 A 
ATOM     14  C   UNL     1      -2.286   2.696  -7.091  0.00  0.00    +0.017 A 
ATOM     15  C   UNL     1      -2.610   4.037  -7.188  0.00  0.00    +0.018 A 
ATOM     16  C   UNL     1      -3.518   4.597  -6.306  0.00  0.00    +0.017 A 
ATOM     17  C   UNL     1      -4.109   3.816  -5.333  0.00  0.00    +0.025 A 
ATOM     18 BR   UNL     1      -1.809   5.108  -8.525  0.00  0.00    -0.050 Br
ENDBRANCH   8  12
BRANCH   1  19
ATOM     19  N   UNL     1      -2.238   0.133  -1.002  0.00  0.00    -0.348 N 
ATOM     20  H   UNL     1      -1.792   0.697  -1.653  0.00  0.00    +0.146 HD
BRANCH  19  21
ATOM     21  C   UNL     1      -1.505  -0.357   0.168  0.00  0.00    +0.107 C 
BRANCH  21  23
ATOM     22  C   UNL     1      -0.128   1.698   0.132  0.00  0.00    +0.013 C 
ATOM     23  C   UNL     1      -0.050   0.169   0.122  0.00  0.00    -0.014 C 
ATOM     24  C   UNL     1       0.571  -0.326  -1.177  0.00  0.00    +0.039 C 
ATOM     25  C   UNL     1       2.078  -0.120  -1.217  0.00  0.00    +0.116 C 
ATOM     26  C   UNL     1       2.744  -0.794  -0.026  0.00  0.00    +0.037 C 
ATOM     27  C   UNL     1       2.181  -0.320   1.305  0.00  0.00    -0.032 C 
ATOM     28  C   UNL     1       0.665  -0.352   1.353  0.00  0.00    +0.014 C 
ATOM     29  C   UNL     1       2.715   1.073   1.648  0.00  0.00    +0.011 C 
ATOM     30  C   UNL     1       2.704  -1.284   2.397  0.00  0.00    +0.011 C 
BRANCH  25  31
ATOM     31  O   UNL     1       2.417   1.260  -1.296  0.00  0.00    -0.392 OA
ATOM     32  H   UNL     1       3.368   1.430  -1.323  0.00  0.00    +0.210 HD
ENDBRANCH  25  31
ENDBRANCH  21  23
ENDBRANCH  19  21
ENDBRANCH   1  19
TORSDOF 5
