REMARK  Name = ZINC40681946
REMARK  8 active torsions:
REMARK  status: ('A' for Active; 'I' for Inactive)
REMARK    1  A    between atoms: C_1  and  C_2
REMARK    2  A    between atoms: C_4  and  C_26
REMARK    3  A    between atoms: C_6  and  N_8
REMARK    4  A    between atoms: C_10  and  N_25
REMARK    5  A    between atoms: C_11  and  N_15
REMARK    6  A    between atoms: N_15  and  C_16
REMARK    7  A    between atoms: C_16  and  C_18
REMARK    8  A    between atoms: C_16  and  C_19
REMARK                            x       y       z     vdW  Elec       q    Type
REMARK                         _______ _______ _______ _____ _____    ______ ____
ROOT
ATOM      1  N   UNL     1       0.052  -2.797   2.391  0.00  0.00    -0.298 N 
ATOM      2  C   UNL     1       0.154  -2.113   3.598  0.00  0.00    +0.149 A 
ATOM      3  C   UNL     1       0.281  -2.812   4.800  0.00  0.00    +0.105 A 
ATOM      4  C   UNL     1       0.380  -2.076   5.982  0.00  0.00    +0.145 A 
ATOM      5  N   UNL     1       0.349  -0.747   5.919  0.00  0.00    -0.219 NA
ATOM      6  C   UNL     1       0.227  -0.126   4.763  0.00  0.00    +0.225 A 
ATOM      7  N   UNL     1       0.137  -0.782   3.624  0.00  0.00    -0.219 NA
ATOM      8  H   UNL     1      -0.012  -3.765   2.386  0.00  0.00    +0.154 HD
ENDROOT
BRANCH   1  14
ATOM      9  C   UNL     1      -1.496  -2.375  -2.255  0.00  0.00    +0.044 C 
ATOM     10  C   UNL     1      -0.699  -1.862  -1.083  0.00  0.00    -0.048 A 
ATOM     11  C   UNL     1       0.025  -0.689  -1.201  0.00  0.00    +0.006 A 
ATOM     12  C   UNL     1       0.758  -0.215  -0.128  0.00  0.00    -0.048 A 
ATOM     13  C   UNL     1       0.769  -0.911   1.064  0.00  0.00    +0.026 A 
ATOM     14  C   UNL     1       0.043  -2.090   1.186  0.00  0.00    +0.033 A 
ATOM     15  C   UNL     1      -0.696  -2.561   0.108  0.00  0.00    +0.026 A 
ATOM     16  C   UNL     1       1.545   1.063  -0.261  0.00  0.00    +0.044 C 
ENDBRANCH   1  14
BRANCH   3  17
ATOM     17  N   UNL     1       0.308  -4.215   4.819  0.00  0.00    -0.353 N 
ATOM     18  H   UNL     1       0.239  -4.713   3.989  0.00  0.00    +0.143 HD
ATOM     19  H   UNL     1       0.397  -4.687   5.662  0.00  0.00    +0.143 HD
ENDBRANCH   3  17
BRANCH   4  20
ATOM     20  N   UNL     1       0.507  -2.722   7.206  0.00  0.00    -0.321 N 
ATOM     21  H   UNL     1       0.529  -3.691   7.244  0.00  0.00    +0.148 HD
BRANCH  20  22
ATOM     22  C   UNL     1       0.610  -1.938   8.440  0.00  0.00    +0.099 C 
ATOM     23  C   UNL     1       2.068  -1.534   8.667  0.00  0.00    +0.033 C 
BRANCH  22  24
ATOM     24  C   UNL     1       0.132  -2.769   9.603  0.00  0.00    -0.028 A 
ATOM     25  C   UNL     1       0.462  -4.109   9.677  0.00  0.00    +0.005 A 
ATOM     26  C   UNL     1       0.024  -4.871  10.744  0.00  0.00    +0.000 A 
ATOM     27  C   UNL     1      -0.744  -4.293  11.737  0.00  0.00    +0.000 A 
ATOM     28  C   UNL     1      -1.074  -2.952  11.664  0.00  0.00    +0.000 A 
ATOM     29  C   UNL     1      -0.632  -2.189  10.599  0.00  0.00    +0.005 A 
ENDBRANCH  22  24
ENDBRANCH  20  22
ENDBRANCH   4  20
TORSDOF 5
