REMARK  Name = ZINC35072337
REMARK  11 active torsions:
REMARK  status: ('A' for Active; 'I' for Inactive)
REMARK    1  A    between atoms: C_1  and  C_2
REMARK    2  A    between atoms: C_2  and  C_3
REMARK    3  A    between atoms: C_3  and  N_4
REMARK    4  A    between atoms: N_4  and  C_5
REMARK    5  A    between atoms: N_4  and  S_29
REMARK    6  A    between atoms: C_5  and  C_7
REMARK    7  A    between atoms: C_5  and  C_8
REMARK    8  A    between atoms: N_18  and  C_19
REMARK    9  A    between atoms: S_29  and  C_32
REMARK   10  A    between atoms: C_35  and  O_38
REMARK   11  A    between atoms: O_38  and  C_39
REMARK                            x       y       z     vdW  Elec       q    Type
REMARK                         _______ _______ _______ _____ _____    ______ ____
ROOT
ATOM      1  C   UNL     1      -1.483  -2.391  -1.058  0.00  0.00    +0.136 A 
ATOM      2  N   UNL     1      -2.008  -1.242  -1.356  0.00  0.00    -0.231 NA
ATOM      3  C   UNL     1      -3.244  -0.891  -0.921  0.00  0.00    +0.078 A 
ATOM      4  C   UNL     1      -3.810   0.345  -1.242  0.00  0.00    +0.028 A 
ATOM      5  C   UNL     1      -5.067   0.660  -0.779  0.00  0.00    +0.002 A 
ATOM      6  C   UNL     1      -5.783  -0.236   0.004  0.00  0.00    +0.001 A 
ATOM      7  C   UNL     1      -5.246  -1.461   0.335  0.00  0.00    +0.015 A 
ATOM      8  C   UNL     1      -3.975  -1.800  -0.124  0.00  0.00    +0.065 A 
ATOM      9  C   UNL     1      -3.352  -3.093   0.195  0.00  0.00    +0.266 A 
ATOM     10  O   UNL     1      -3.928  -3.921   0.877  0.00  0.00    -0.267 OA
ATOM     11  N   UNL     1      -2.116  -3.329  -0.302  0.00  0.00    -0.263 N 
ENDROOT
BRANCH  11  12
ATOM     12  C   UNL     1      -1.480  -4.547  -0.033  0.00  0.00    +0.052 A 
ATOM     13  C   UNL     1      -1.218  -4.913   1.293  0.00  0.00    +0.027 A 
ATOM     14  C   UNL     1      -0.602  -6.089   1.585  0.00  0.00    +0.010 A 
ATOM     15  C   UNL     1      -0.220  -6.956   0.546  0.00  0.00    -0.018 A 
ATOM     16  C   UNL     1       0.418  -8.178   0.818  0.00  0.00    +0.008 A 
ATOM     17  C   UNL     1       0.775  -8.995  -0.211  0.00  0.00    +0.001 A 
ATOM     18  C   UNL     1       0.518  -8.639  -1.533  0.00  0.00    +0.001 A 
ATOM     19  C   UNL     1      -0.098  -7.463  -1.835  0.00  0.00    +0.008 A 
ATOM     20  C   UNL     1      -0.482  -6.593  -0.799  0.00  0.00    -0.016 A 
ATOM     21  C   UNL     1      -1.124  -5.375  -1.073  0.00  0.00    +0.034 A 
ENDBRANCH  11  12
BRANCH   1  22
ATOM     22  C   UNL     1      -0.105  -2.705  -1.581  0.00  0.00    +0.143 C 
ATOM     23  C   UNL     1      -0.104  -2.606  -3.108  0.00  0.00    +0.034 C 
BRANCH  22  24
ATOM     24  N   UNL     1       0.856  -1.747  -1.030  0.00  0.00    -0.167 NA
BRANCH  24  25
ATOM     25  S   UNL     1       2.220  -2.290  -0.263  0.00  0.00    +0.061 S 
ATOM     26  O   UNL     1       2.474  -3.596  -0.762  0.00  0.00    -0.153 OA
ATOM     27  O   UNL     1       3.177  -1.243  -0.345  0.00  0.00    -0.153 OA
BRANCH  25  28
ATOM     28  C   UNL     1       1.820  -2.473   1.444  0.00  0.00    +0.106 A 
ATOM     29  C   UNL     1       1.996  -1.411   2.311  0.00  0.00    +0.032 A 
ATOM     30  C   UNL     1       1.683  -1.551   3.650  0.00  0.00    +0.047 A 
ATOM     31  C   UNL     1       1.192  -2.759   4.123  0.00  0.00    +0.120 A 
ATOM     32  C   UNL     1       1.015  -3.823   3.250  0.00  0.00    +0.047 A 
ATOM     33  C   UNL     1       1.325  -3.676   1.912  0.00  0.00    +0.032 A 
BRANCH  31  34
ATOM     34  O   UNL     1       0.884  -2.901   5.439  0.00  0.00    -0.495 OA
ATOM     35  C   UNL     1       0.383  -4.172   5.855  0.00  0.00    +0.277 C 
ENDBRANCH  31  34
ENDBRANCH  25  28
ENDBRANCH  24  25
BRANCH  24  36
ATOM     36  C   UNL     1       0.612  -0.308  -1.157  0.00  0.00    +0.110 C 
BRANCH  36  38
ATOM     37  C   UNL     1      -0.360   1.701  -0.033  0.00  0.00    +0.005 C 
ATOM     38  C   UNL     1      -0.178   0.184   0.058  0.00  0.00    +0.014 C 
ENDBRANCH  36  38
ENDBRANCH  24  36
ENDBRANCH  22  24
ENDBRANCH   1  22
TORSDOF 8
