REMARK  Name = ZINC36648057
REMARK  11 active torsions:
REMARK  status: ('A' for Active; 'I' for Inactive)
REMARK    1  A    between atoms: C_1  and  C_2
REMARK    2  A    between atoms: C_2  and  N_3
REMARK    3  A    between atoms: N_3  and  C_4
REMARK    4  A    between atoms: N_3  and  C_6
REMARK    5  A    between atoms: C_4  and  C_5
REMARK    6  A    between atoms: C_6  and  C_7
REMARK    7  A    between atoms: C_7  and  N_8
REMARK    8  A    between atoms: C_12  and  C_18
REMARK    9  A    between atoms: C_19  and  C_21
REMARK   10  A    between atoms: N_27  and  S_28
REMARK   11  A    between atoms: S_28  and  C_31
REMARK                            x       y       z     vdW  Elec       q    Type
REMARK                         _______ _______ _______ _____ _____    ______ ____
ROOT
ATOM      1  N   UNL     1       2.005  -3.520  -0.761  0.00  0.00    -0.251 N 
ATOM      2  C   UNL     1       1.037  -4.182  -1.500  0.00  0.00    +0.168 A 
ATOM      3  N   UNL     1       1.032  -5.424  -1.924  0.00  0.00    -0.224 NA
ATOM      4  C   UNL     1       0.012  -5.941  -2.642  0.00  0.00    +0.083 A 
ATOM      5  C   UNL     1      -0.118  -7.253  -3.155  0.00  0.00    -0.024 A 
ATOM      6  C   UNL     1      -1.228  -7.618  -3.870  0.00  0.00    +0.005 A 
ATOM      7  C   UNL     1      -2.259  -6.723  -4.116  0.00  0.00    +0.001 A 
ATOM      8  C   UNL     1      -2.166  -5.433  -3.628  0.00  0.00    +0.017 A 
ATOM      9  C   UNL     1      -1.058  -5.058  -2.911  0.00  0.00    +0.041 A 
ATOM     10  S   UNL     1      -0.524  -3.563  -2.112  0.00  0.00    -0.052 S 
ATOM     11  C   UNL     1       0.978  -8.259  -2.914  0.00  0.00    +0.046 C 
ATOM     12  C   UNL     1       3.128  -4.166  -0.390  0.00  0.00    +0.240 C 
ATOM     13  O   UNL     1       3.335  -5.295  -0.780  0.00  0.00    -0.273 OA
ENDROOT
BRANCH  12  14
ATOM     14  C   UNL     1       4.126  -3.484   0.511  0.00  0.00    +0.166 C 
ATOM     15  C   UNL     1       4.271  -4.281   1.812  0.00  0.00    +0.030 C 
ATOM     16  C   UNL     1       5.385  -3.664   2.661  0.00  0.00    +0.003 C 
ATOM     17  C   UNL     1       6.710  -3.736   1.899  0.00  0.00    +0.017 C 
ATOM     18  C   UNL     1       6.592  -2.933   0.600  0.00  0.00    +0.110 C 
ATOM     19  N   UNL     1       5.432  -3.423  -0.158  0.00  0.00    -0.164 NA
BRANCH  19  20
ATOM     20  S   UNL     1       5.595  -3.901  -1.735  0.00  0.00    +0.068 S 
ATOM     21  O   UNL     1       4.306  -3.804  -2.325  0.00  0.00    -0.152 OA
ATOM     22  O   UNL     1       6.724  -3.212  -2.254  0.00  0.00    -0.152 OA
BRANCH  20  23
ATOM     23  C   UNL     1       6.014  -5.613  -1.720  0.00  0.00    +0.143 A 
ATOM     24  C   UNL     1       5.209  -6.690  -1.890  0.00  0.00    +0.036 A 
ATOM     25  C   UNL     1       5.763  -7.955  -1.839  0.00  0.00    +0.010 A 
ATOM     26  C   UNL     1       7.095  -8.082  -1.619  0.00  0.00    +0.047 A 
ATOM     27  S   UNL     1       7.610  -6.378  -1.484  0.00  0.00    -0.077 S 
ENDBRANCH  20  23
ENDBRANCH  19  20
ENDBRANCH  12  14
BRANCH   1  28
ATOM     28  C   UNL     1       1.807  -2.118  -0.384  0.00  0.00    +0.097 C 
BRANCH  28  29
ATOM     29  C   UNL     1       1.191  -2.049   1.015  0.00  0.00    -0.059 C 
BRANCH  29  30
ATOM     30  N   UNL     1       0.930  -0.646   1.366  0.00  0.00    +0.380 N 
ATOM     31  H   UNL     1       1.782  -0.113   1.274  0.00  0.00    -0.082 HD
BRANCH  30  33
ATOM     32  C   UNL     1      -0.277   1.394   0.752  0.00  0.00    -0.017 C 
ATOM     33  C   UNL     1      -0.091  -0.097   0.465  0.00  0.00    -0.082 C 
ENDBRANCH  30  33
BRANCH  30  34
ATOM     34  C   UNL     1       0.452  -0.569   2.753  0.00  0.00    -0.082 C 
ATOM     35  C   UNL     1       1.564  -1.020   3.702  0.00  0.00    -0.017 C 
ENDBRANCH  30  34
ENDBRANCH  29  30
ENDBRANCH  28  29
ENDBRANCH   1  28
TORSDOF 8
