REMARK  Name = ZINC13498493
REMARK  13 active torsions:
REMARK  status: ('A' for Active; 'I' for Inactive)
REMARK    1  A    between atoms: C_1  and  C_2
REMARK    2  A    between atoms: C_7  and  C_14
REMARK    3  A    between atoms: C_14  and  N_71
REMARK    4  A    between atoms: C_15  and  N_71
REMARK    5  A    between atoms: C_21  and  C_23
REMARK    6  A    between atoms: C_21  and  C_32
REMARK    7  A    between atoms: C_21  and  N_71
REMARK    8  A    between atoms: N_27  and  C_28
REMARK    9  A    between atoms: C_28  and  C_29
REMARK   10  A    between atoms: C_28  and  C_30
REMARK   11  A    between atoms: C_28  and  C_31
REMARK   12  A    between atoms: C_32  and  C_33
REMARK   13  A    between atoms: C_32  and  C_34
REMARK                            x       y       z     vdW  Elec       q    Type
REMARK                         _______ _______ _______ _____ _____    ______ ____
ROOT
ATOM      1  N   UNL     1      -0.163   0.518   1.561  0.00  0.00    +0.391 N 
ATOM      2  H   UNL     1      -1.060   0.053   1.377  0.00  0.00    -0.080 HD
ENDROOT
BRANCH   1   3
ATOM      3  C   UNL     1       0.402  -0.011   2.820  0.00  0.00    -0.067 C 
ATOM      4  C   UNL     1      -0.080  -1.452   3.003  0.00  0.00    -0.015 C 
ATOM      5  C   UNL     1       0.483  -2.016   4.309  0.00  0.00    -0.002 C 
ATOM      6  C   UNL     1      -0.001  -1.164   5.483  0.00  0.00    -0.000 C 
ATOM      7  C   UNL     1       0.481   0.277   5.301  0.00  0.00    -0.002 C 
ATOM      8  C   UNL     1      -0.082   0.841   3.995  0.00  0.00    -0.015 C 
ENDBRANCH   1   3
BRANCH   1   9
ATOM      9  C   UNL     1       0.760   0.245   0.439  0.00  0.00    -0.036 C 
BRANCH   9  16
ATOM     10  C   UNL     1       0.047  -7.413  -1.675  0.00  0.00    +0.044 C 
ATOM     11  C   UNL     1       0.011  -5.926  -1.430  0.00  0.00    -0.048 A 
ATOM     12  C   UNL     1      -0.888  -5.136  -2.133  0.00  0.00    +0.004 A 
ATOM     13  C   UNL     1      -0.937  -3.787  -1.926  0.00  0.00    +0.010 A 
ATOM     14  C   UNL     1      -0.073  -3.196  -0.998  0.00  0.00    -0.001 A 
ATOM     15  C   UNL     1      -0.104  -1.754  -0.747  0.00  0.00    +0.017 A 
ATOM     16  C   UNL     1       0.760  -1.236   0.161  0.00  0.00    +0.001 A 
ATOM     17  C   UNL     1       1.657  -2.080   0.851  0.00  0.00    +0.251 A 
ATOM     18  O   UNL     1       2.421  -1.595   1.667  0.00  0.00    -0.268 OA
ATOM     19  N   UNL     1       1.688  -3.406   0.631  0.00  0.00    -0.322 N 
ATOM     20  H   UNL     1       2.317  -3.958   1.123  0.00  0.00    +0.169 HD
ATOM     21  C   UNL     1       0.840  -3.994  -0.283  0.00  0.00    +0.049 A 
ATOM     22  C   UNL     1       0.872  -5.366  -0.511  0.00  0.00    +0.029 A 
ENDBRANCH   9  16
ENDBRANCH   1   9
BRANCH   1  23
ATOM     23  C   UNL     1      -0.393   1.973   1.683  0.00  0.00    +0.006 C 
BRANCH  23  24
ATOM     24  C   UNL     1      -1.452   2.378   0.690  0.00  0.00    +0.139 A 
ATOM     25  N   UNL     1      -1.408   2.216  -0.610  0.00  0.00    -0.115 NA
ATOM     26  N   UNL     1      -2.499   2.688  -1.107  0.00  0.00    -0.023 NA
ATOM     27  N   UNL     1      -3.234   3.154  -0.158  0.00  0.00    -0.043 NA
ATOM     28  N   UNL     1      -2.623   2.981   0.965  0.00  0.00    -0.226 N 
BRANCH  28  29
ATOM     29  C   UNL     1      -3.112   3.369   2.290  0.00  0.00    +0.059 C 
ATOM     30  C   UNL     1      -2.066   4.244   2.984  0.00  0.00    +0.036 C 
ATOM     31  C   UNL     1      -4.417   4.154   2.143  0.00  0.00    +0.036 C 
ATOM     32  C   UNL     1      -3.364   2.113   3.128  0.00  0.00    +0.036 C 
ENDBRANCH  28  29
ENDBRANCH  23  24
BRANCH  23  33
ATOM     33  C   UNL     1       0.897   2.744   1.397  0.00  0.00    -0.024 C 
ATOM     34  C   UNL     1       1.945   2.396   2.455  0.00  0.00    +0.006 C 
ATOM     35  C   UNL     1       0.612   4.247   1.436  0.00  0.00    +0.006 C 
ENDBRANCH  23  33
ENDBRANCH   1  23
TORSDOF 7
