REMARK  Name = ZINC67334528
REMARK  8 active torsions:
REMARK  status: ('A' for Active; 'I' for Inactive)
REMARK    1  A    between atoms: C_1  and  S_2
REMARK    2  A    between atoms: S_2  and  C_3
REMARK    3  A    between atoms: C_3  and  C_4
REMARK    4  A    between atoms: C_4  and  C_5
REMARK    5  A    between atoms: C_5  and  C_7
REMARK    6  A    between atoms: C_5  and  N_22
REMARK    7  A    between atoms: N_9  and  C_10
REMARK    8  A    between atoms: C_13  and  C_15
REMARK                            x       y       z     vdW  Elec       q    Type
REMARK                         _______ _______ _______ _____ _____    ______ ____
ROOT
ATOM      1  C   UNL     1       1.900  -3.789  -3.037  0.00  0.00    +0.234 C 
ATOM      2  O   UNL     1       1.158  -4.467  -3.715  0.00  0.00    -0.274 OA
ATOM      3  N   UNL     1       2.903  -4.370  -2.349  0.00  0.00    -0.310 N 
ATOM      4  H   UNL     1       3.497  -3.827  -1.806  0.00  0.00    +0.149 HD
ENDROOT
BRANCH   3   5
ATOM      5  C   UNL     1       3.097  -5.820  -2.420  0.00  0.00    +0.081 C 
ATOM      6  C   UNL     1       3.388  -6.559  -1.112  0.00  0.00    +0.033 C 
ATOM      7  C   UNL     1       4.502  -6.359  -2.143  0.00  0.00    +0.041 C 
BRANCH   7   8
ATOM      8  C   UNL     1       5.580  -5.358  -1.817  0.00  0.00    -0.040 A 
ATOM      9  C   UNL     1       5.450  -4.538  -0.712  0.00  0.00    +0.004 A 
ATOM     10  C   UNL     1       6.439  -3.619  -0.412  0.00  0.00    +0.003 A 
ATOM     11  C   UNL     1       7.557  -3.519  -1.217  0.00  0.00    +0.038 A 
ATOM     12  C   UNL     1       7.688  -4.340  -2.325  0.00  0.00    +0.124 A 
ATOM     13  C   UNL     1       6.700  -5.264  -2.621  0.00  0.00    +0.042 A 
ATOM     14  F   UNL     1       8.780  -4.242  -3.113  0.00  0.00    -0.205 F 
ENDBRANCH   7   8
ENDBRANCH   3   5
BRANCH   1  15
ATOM     15  C   UNL     1       1.701  -2.297  -2.963  0.00  0.00    +0.161 C 
BRANCH  15  16
ATOM     16  N   UNL     1       0.907  -1.853  -4.112  0.00  0.00    -0.288 N 
ATOM     17  C   UNL     1      -0.336  -2.339  -4.300  0.00  0.00    +0.298 C 
ATOM     18  O   UNL     1      -0.799  -3.145  -3.517  0.00  0.00    -0.253 OA
ATOM     19  N   UNL     1      -1.066  -1.931  -5.357  0.00  0.00    -0.313 N 
ATOM     20  H   UNL     1       1.276  -1.210  -4.737  0.00  0.00    +0.151 HD
ATOM     21  H   UNL     1      -0.697  -1.287  -5.982  0.00  0.00    +0.146 HD
ATOM     22  H   UNL     1      -1.961  -2.280  -5.492  0.00  0.00    +0.146 HD
ENDBRANCH  15  16
BRANCH  15  23
ATOM     23  C   UNL     1       0.966  -1.944  -1.668  0.00  0.00    +0.042 C 
BRANCH  23  24
ATOM     24  C   UNL     1       0.873  -0.423  -1.533  0.00  0.00    +0.071 C 
BRANCH  24  26
ATOM     25  C   UNL     1      -0.022   1.810   0.012  0.00  0.00    +0.084 C 
ATOM     26  S   UNL     1       0.002  -0.004   0.002  0.00  0.00    -0.164 S 
ENDBRANCH  24  26
ENDBRANCH  23  24
ENDBRANCH  15  23
ENDBRANCH   1  15
TORSDOF 7
