REMARK  Name = ZINC00407081
REMARK  0 active torsions:
REMARK  status: ('A' for Active; 'I' for Inactive)
REMARK                            x       y       z     vdW  Elec       q    Type
REMARK                         _______ _______ _______ _____ _____    ______ ____
ROOT
ATOM      1  C   UNL     1       2.159   0.038  -1.258  0.00  0.00    +0.000 C 
ATOM      2  C   UNL     1       0.726  -0.497  -1.253  0.00  0.00    +0.005 C 
ATOM      3  C   UNL     1       0.002  -0.004   0.002  0.00  0.00    +0.065 C 
ATOM      4  C   UNL     1      -0.019   1.525   0.010  0.00  0.00    +0.170 C 
ATOM      5  C   UNL     1       1.413   2.063  -0.000  0.00  0.00    +0.065 C 
ATOM      6  C   UNL     1       2.134   1.567  -1.255  0.00  0.00    +0.005 C 
ATOM      7  O   UNL     1      -0.695   1.988   1.191  0.00  0.00    -0.346 OA
ATOM      8  C   UNL     1      -1.410   3.174   0.766  0.00  0.00    +0.191 C 
ATOM      9  C   UNL     1      -1.837   2.786  -0.671  0.00  0.00    +0.191 C 
ATOM     10  O   UNL     1      -0.721   2.004  -1.143  0.00  0.00    -0.346 OA
ENDROOT
TORSDOF 0
