REMARK  Name = ZINC06816802
REMARK  6 active torsions:
REMARK  status: ('A' for Active; 'I' for Inactive)
REMARK    1  A    between atoms: C_1  and  N_2
REMARK    2  A    between atoms: C_6  and  N_7
REMARK    3  A    between atoms: N_7  and  C_8
REMARK    4  A    between atoms: C_8  and  C_9
REMARK    5  A    between atoms: C_8  and  C_15
REMARK    6  A    between atoms: C_8  and  C_21
REMARK                            x       y       z     vdW  Elec       q    Type
REMARK                         _______ _______ _______ _____ _____    ______ ____
ROOT
ATOM      1  C   UNL     1      -3.427  -5.047  -0.223  0.00  0.00    +0.108 C 
ENDROOT
BRANCH   1   2
ATOM      2  C   UNL     1      -4.247  -5.212   1.031  0.00  0.00    -0.015 A 
ATOM      3  C   UNL     1      -5.540  -5.694   0.952  0.00  0.00    +0.006 A 
ATOM      4  C   UNL     1      -6.292  -5.846   2.102  0.00  0.00    +0.000 A 
ATOM      5  C   UNL     1      -5.751  -5.516   3.330  0.00  0.00    +0.000 A 
ATOM      6  C   UNL     1      -4.457  -5.035   3.409  0.00  0.00    +0.000 A 
ATOM      7  C   UNL     1      -3.704  -4.887   2.260  0.00  0.00    +0.006 A 
ENDBRANCH   1   2
BRANCH   1   8
ATOM      8  C   UNL     1      -4.324  -4.627  -1.359  0.00  0.00    -0.015 A 
ATOM      9  C   UNL     1      -5.336  -3.711  -1.138  0.00  0.00    +0.006 A 
ATOM     10  C   UNL     1      -6.159  -3.326  -2.179  0.00  0.00    +0.000 A 
ATOM     11  C   UNL     1      -5.971  -3.856  -3.442  0.00  0.00    +0.000 A 
ATOM     12  C   UNL     1      -4.959  -4.772  -3.663  0.00  0.00    +0.000 A 
ATOM     13  C   UNL     1      -4.133  -5.154  -2.622  0.00  0.00    +0.006 A 
ENDBRANCH   1   8
BRANCH   1  14
ATOM     14  C   UNL     1      -2.763  -6.356  -0.565  0.00  0.00    -0.015 A 
ATOM     15  C   UNL     1      -3.372  -7.549  -0.226  0.00  0.00    +0.006 A 
ATOM     16  C   UNL     1      -2.763  -8.750  -0.540  0.00  0.00    +0.000 A 
ATOM     17  C   UNL     1      -1.545  -8.757  -1.193  0.00  0.00    +0.000 A 
ATOM     18  C   UNL     1      -0.936  -7.563  -1.533  0.00  0.00    +0.000 A 
ATOM     19  C   UNL     1      -1.547  -6.362  -1.223  0.00  0.00    +0.006 A 
ENDBRANCH   1  14
BRANCH   1  20
ATOM     20  N   UNL     1      -2.403  -4.022  -0.005  0.00  0.00    -0.332 N 
ATOM     21  H   UNL     1      -1.464  -4.249  -0.091  0.00  0.00    +0.147 HD
BRANCH  20  27
ATOM     22  C   UNL     1      -1.536   1.959   0.938  0.00  0.00    +0.143 C 
ATOM     23  N   UNL     1      -1.192   0.551   0.720  0.00  0.00    -0.225 N 
ATOM     24  C   UNL     1      -2.180  -0.363   0.634  0.00  0.00    +0.260 C 
ATOM     25  O   UNL     1      -3.347  -0.033   0.735  0.00  0.00    -0.269 OA
ATOM     26  C   UNL     1      -1.808  -1.772   0.414  0.00  0.00    +0.113 C 
ATOM     27  C   UNL     1      -2.766  -2.764   0.315  0.00  0.00    +0.087 C 
ATOM     28  C   UNL     1      -0.371  -2.077   0.303  0.00  0.00    +0.258 C 
ATOM     29  O   UNL     1       0.014  -3.217   0.120  0.00  0.00    -0.270 OA
ATOM     30  N   UNL     1       0.507  -1.058   0.409  0.00  0.00    -0.235 N 
ATOM     31  C   UNL     1       0.097   0.203   0.604  0.00  0.00    +0.315 C 
ATOM     32  O   UNL     1       0.939   1.075   0.686  0.00  0.00    -0.252 OA
ATOM     33  H   UNL     1       1.457  -1.242   0.338  0.00  0.00    +0.159 HD
ENDBRANCH  20  27
ENDBRANCH   1  20
TORSDOF 5
