REMARK  Name = ZINC39639250
REMARK  8 active torsions:
REMARK  status: ('A' for Active; 'I' for Inactive)
REMARK    1  A    between atoms: C_1  and  C_2
REMARK    2  A    between atoms: C_5  and  C_8
REMARK    3  A    between atoms: C_8  and  C_10
REMARK    4  A    between atoms: C_8  and  N_11
REMARK    5  A    between atoms: C_12  and  C_14
REMARK    6  A    between atoms: C_25  and  C_27
REMARK    7  A    between atoms: C_32  and  O_33
REMARK    8  A    between atoms: O_33  and  C_34
REMARK                            x       y       z     vdW  Elec       q    Type
REMARK                         _______ _______ _______ _____ _____    ______ ____
ROOT
ATOM      1  C   UNL     1       2.460  -6.463   2.005  0.00  0.00    +0.100 C 
ATOM      2  C   UNL     1       1.734  -6.498   3.368  0.00  0.00    +0.121 C 
ATOM      3  N   UNL     1       1.236  -7.888   3.492  0.00  0.00    -0.296 N 
ATOM      4  C   UNL     1       2.332  -8.722   2.941  0.00  0.00    +0.115 C 
ATOM      5  C   UNL     1       2.854  -7.924   1.730  0.00  0.00    -0.004 C 
ATOM      6  C   UNL     1       4.371  -8.052   1.628  0.00  0.00    -0.010 C 
ATOM      7  C   UNL     1       4.736  -9.501   1.297  0.00  0.00    -0.082 C 
ATOM      8  N   UNL     1       4.106  -9.889   0.029  0.00  0.00    +0.379 N 
ATOM      9  C   UNL     1       2.645  -9.853   0.164  0.00  0.00    -0.082 C 
ATOM     10  C   UNL     1       2.192  -8.418   0.448  0.00  0.00    -0.010 C 
ATOM     11  C   UNL     1       0.055  -8.302   3.992  0.00  0.00    +0.250 C 
ATOM     12  O   UNL     1      -0.785  -7.486   4.320  0.00  0.00    -0.270 OA
ATOM     13  H   UNL     1       4.391  -9.248  -0.697  0.00  0.00    -0.086 HD
ATOM     14  H   UNL     1       4.396 -10.823  -0.218  0.00  0.00    -0.086 HD
ENDROOT
BRANCH  11  15
ATOM     15  C   UNL     1      -0.218  -9.744   4.143  0.00  0.00    +0.078 A 
ATOM     16  C   UNL     1       0.813 -10.621   4.489  0.00  0.00    +0.017 A 
ATOM     17  C   UNL     1       0.551 -11.967   4.628  0.00  0.00    +0.001 A 
ATOM     18  C   UNL     1      -0.730 -12.455   4.428  0.00  0.00    +0.004 A 
ATOM     19  C   UNL     1      -1.758 -11.598   4.086  0.00  0.00    +0.046 A 
ATOM     20  C   UNL     1      -1.513 -10.240   3.946  0.00  0.00    +0.132 A 
BRANCH  20  21
ATOM     21  O   UNL     1      -2.523  -9.397   3.615  0.00  0.00    -0.494 OA
ATOM     22  C   UNL     1      -3.817  -9.975   3.431  0.00  0.00    +0.277 C 
ENDBRANCH  20  21
ENDBRANCH  11  15
BRANCH   1  24
ATOM     23  N   UNL     1       2.030  -5.280  -0.125  0.00  0.00    -0.308 N 
ATOM     24  C   UNL     1       1.534  -5.958   0.929  0.00  0.00    +0.219 C 
ATOM     25  O   UNL     1       0.341  -6.162   1.011  0.00  0.00    -0.275 OA
ATOM     26  H   UNL     1       2.984  -5.117  -0.191  0.00  0.00    +0.149 HD
BRANCH  23  27
ATOM     27  C   UNL     1       1.129  -4.790  -1.171  0.00  0.00    +0.100 C 
ATOM     28  C   UNL     1       0.556  -3.433  -0.755  0.00  0.00    +0.033 C 
BRANCH  27  33
ATOM     29  C   UNL     1       4.057  -4.205  -6.119  0.00  0.00    +0.044 C 
ATOM     30  C   UNL     1       3.293  -4.357  -4.828  0.00  0.00    -0.050 A 
ATOM     31  C   UNL     1       2.006  -4.860  -4.842  0.00  0.00    +0.004 A 
ATOM     32  C   UNL     1       1.306  -5.000  -3.659  0.00  0.00    +0.006 A 
ATOM     33  C   UNL     1       1.893  -4.638  -2.461  0.00  0.00    -0.027 A 
ATOM     34  C   UNL     1       3.181  -4.136  -2.447  0.00  0.00    +0.006 A 
ATOM     35  C   UNL     1       3.883  -4.000  -3.630  0.00  0.00    +0.004 A 
ENDBRANCH  27  33
ENDBRANCH  23  27
ENDBRANCH   1  24
TORSDOF 5
