REMARK  Name = ZINC11692662
REMARK  3 active torsions:
REMARK  status: ('A' for Active; 'I' for Inactive)
REMARK    1  A    between atoms: C_4  and  C_7
REMARK    2  A    between atoms: C_10  and  C_20
REMARK    3  A    between atoms: C_13  and  C_15
REMARK                            x       y       z     vdW  Elec       q    Type
REMARK                         _______ _______ _______ _____ _____    ______ ____
ROOT
ATOM      1  C   UNL     1      -1.209  -0.312  -2.172  0.00  0.00    +0.266 C 
ATOM      2  O   UNL     1      -0.461   0.462  -2.738  0.00  0.00    -0.268 OA
ATOM      3  N   UNL     1      -1.062  -0.549  -0.853  0.00  0.00    -0.181 N 
ATOM      4  C   UNL     1       0.021  -0.026  -0.005  0.00  0.00    +0.137 C 
ATOM      5  C   UNL     1      -0.299  -0.602   1.388  0.00  0.00    +0.087 C 
ATOM      6  C   UNL     1      -1.559  -1.408   1.169  0.00  0.00    +0.075 C 
ATOM      7  N   UNL     1      -1.910  -1.330  -0.071  0.00  0.00    -0.180 NA
ENDROOT
BRANCH   4   8
ATOM      8  C   UNL     1      -0.010   1.481   0.024  0.00  0.00    -0.023 A 
ATOM      9  C   UNL     1      -1.237   2.142   0.054  0.00  0.00    +0.008 A 
ATOM     10  C   UNL     1      -1.299   3.501   0.086  0.00  0.00    +0.030 A 
ATOM     11  C   UNL     1      -0.111   4.253   0.078  0.00  0.00    +0.089 A 
ATOM     12  C   UNL     1       1.137   3.581   0.041  0.00  0.00    +0.089 A 
ATOM     13  C   UNL     1       1.160   2.175   0.015  0.00  0.00    +0.035 A 
ATOM     14  N   UNL     1       2.269   4.291   0.033  0.00  0.00    -0.252 NA
ATOM     15  C   UNL     1       2.215   5.603   0.058  0.00  0.00    +0.131 A 
ATOM     16  C   UNL     1       0.987   6.266   0.094  0.00  0.00    +0.131 A 
ATOM     17  N   UNL     1      -0.140   5.590   0.103  0.00  0.00    -0.252 NA
ENDBRANCH   4   8
BRANCH   1  21
ATOM     18  C   UNL     1      -4.284  -2.269  -4.351  0.00  0.00    +0.000 A 
ATOM     19  C   UNL     1      -3.357  -1.488  -5.019  0.00  0.00    +0.001 A 
ATOM     20  C   UNL     1      -2.356  -0.850  -4.317  0.00  0.00    +0.013 A 
ATOM     21  C   UNL     1      -2.279  -0.993  -2.930  0.00  0.00    +0.039 A 
ATOM     22  C   UNL     1      -3.215  -1.786  -2.264  0.00  0.00    +0.013 A 
ATOM     23  C   UNL     1      -4.214  -2.415  -2.977  0.00  0.00    +0.001 A 
ENDBRANCH   1  21
BRANCH   6  24
ATOM     24  C   UNL     1      -2.273  -2.161   2.205  0.00  0.00    +0.035 A 
ATOM     25  C   UNL     1      -3.428  -2.916   2.096  0.00  0.00    +0.017 A 
ATOM     26  C   UNL     1      -3.909  -3.541   3.223  0.00  0.00    +0.008 A 
ATOM     27  C   UNL     1      -3.248  -3.391   4.401  0.00  0.00    +0.046 A 
ATOM     28  S   UNL     1      -1.882  -2.338   3.939  0.00  0.00    -0.095 S 
ENDBRANCH   6  24
TORSDOF 3
