REMARK  Name = ZINC38546330
REMARK  9 active torsions:
REMARK  status: ('A' for Active; 'I' for Inactive)
REMARK    1  A    between atoms: C_1  and  C_2
REMARK    2  A    between atoms: C_2  and  O_3
REMARK    3  A    between atoms: O_3  and  C_4
REMARK    4  A    between atoms: C_7  and  C_10
REMARK    5  A    between atoms: C_10  and  C_12
REMARK    6  A    between atoms: C_10  and  N_29
REMARK    7  A    between atoms: C_16  and  N_17
REMARK    8  A    between atoms: C_18  and  C_20
REMARK    9  A    between atoms: C_32  and  C_35
REMARK                            x       y       z     vdW  Elec       q    Type
REMARK                         _______ _______ _______ _____ _____    ______ ____
ROOT
ATOM      1  C   UNL     1      -1.983  -6.120  -0.075  0.00  0.00    -0.004 C 
ENDROOT
BRANCH   1   2
ATOM      2  C   UNL     1      -2.174  -6.588   1.345  0.00  0.00    -0.025 A 
ATOM      3  C   UNL     1      -1.102  -7.137   2.050  0.00  0.00    -0.033 A 
ATOM      4  C   UNL     1      -1.352  -7.537   3.325  0.00  0.00    -0.005 A 
ATOM      5  S   UNL     1      -3.068  -7.158   3.562  0.00  0.00    -0.078 S 
ATOM      6  C   UNL     1      -3.389  -6.473   1.944  0.00  0.00    +0.074 A 
ATOM      7  C   UNL     1      -0.393  -8.153   4.292  0.00  0.00    +0.043 C 
ATOM      8  C   UNL     1       0.849  -8.612   3.514  0.00  0.00    +0.005 C 
ATOM      9  C   UNL     1       1.299  -7.475   2.592  0.00  0.00    +0.005 C 
ATOM     10  C   UNL     1       0.294  -7.295   1.454  0.00  0.00    +0.036 C 
BRANCH   6  11
ATOM     11  N   UNL     1      -4.579  -5.955   1.427  0.00  0.00    -0.273 N 
ATOM     12  C   UNL     1      -5.717  -6.038   2.144  0.00  0.00    +0.284 C 
ATOM     13  O   UNL     1      -5.708  -6.565   3.241  0.00  0.00    -0.266 OA
ATOM     14  H   UNL     1      -4.586  -5.536   0.553  0.00  0.00    +0.156 HD
BRANCH  12  15
ATOM     15  C   UNL     1      -6.966  -5.495   1.602  0.00  0.00    +0.189 A 
ATOM     16  C   UNL     1      -8.183  -5.508   2.222  0.00  0.00    +0.054 A 
ATOM     17  C   UNL     1      -9.088  -4.886   1.348  0.00  0.00    +0.042 A 
ATOM     18  C   UNL     1      -8.393  -4.525   0.246  0.00  0.00    +0.196 A 
ATOM     19  O   UNL     1      -7.114  -4.889   0.405  0.00  0.00    -0.458 OA
ENDBRANCH  12  15
ENDBRANCH   6  11
ENDBRANCH   1   2
BRANCH   1  20
ATOM     20  N   UNL     1      -3.075  -6.636  -0.911  0.00  0.00    +0.387 N 
ATOM     21  C   UNL     1      -2.837  -6.260  -2.310  0.00  0.00    -0.077 C 
ATOM     22  C   UNL     1      -4.011  -6.725  -3.174  0.00  0.00    -0.015 C 
ATOM     23  C   UNL     1      -4.144  -8.247  -3.069  0.00  0.00    -0.018 C 
ATOM     24  C   UNL     1      -4.317  -8.634  -1.597  0.00  0.00    -0.015 C 
ATOM     25  C   UNL     1      -3.131  -8.098  -0.791  0.00  0.00    -0.077 C 
ATOM     26  C   UNL     1      -5.364  -8.711  -3.866  0.00  0.00    +0.007 C 
ATOM     27  H   UNL     1      -3.950  -6.240  -0.603  0.00  0.00    -0.080 HD
ENDBRANCH   1  20
BRANCH   1  31
ATOM     28  C   UNL     1      -2.007  -1.848  -0.180  0.00  0.00    +0.121 A 
ATOM     29  C   UNL     1      -0.839  -2.529   0.131  0.00  0.00    +0.046 A 
ATOM     30  C   UNL     1      -0.834  -3.910   0.164  0.00  0.00    +0.006 A 
ATOM     31  C   UNL     1      -1.992  -4.613  -0.112  0.00  0.00    -0.056 A 
ATOM     32  C   UNL     1      -3.157  -3.937  -0.422  0.00  0.00    +0.006 A 
ATOM     33  C   UNL     1      -3.169  -2.556  -0.451  0.00  0.00    +0.046 A 
BRANCH  28  34
ATOM     34  O   UNL     1      -2.015  -0.489  -0.213  0.00  0.00    -0.492 OA
BRANCH  34  36
ATOM     35  C   UNL     1      -0.985   1.688  -0.009  0.00  0.00    +0.048 C 
ATOM     36  C   UNL     1      -0.782   0.174   0.076  0.00  0.00    +0.225 C 
ENDBRANCH  34  36
ENDBRANCH  28  34
ENDBRANCH   1  31
TORSDOF 7
