REMARK  Name = ZINC12583280
REMARK  7 active torsions:
REMARK  status: ('A' for Active; 'I' for Inactive)
REMARK    1  A    between atoms: C_1  and  C_2
REMARK    2  A    between atoms: C_5  and  C_7
REMARK    3  A    between atoms: C_8  and  N_28
REMARK    4  A    between atoms: N_9  and  C_27
REMARK    5  A    between atoms: N_11  and  C_12
REMARK    6  A    between atoms: C_12  and  C_20
REMARK    7  A    between atoms: N_13  and  C_14
REMARK                            x       y       z     vdW  Elec       q    Type
REMARK                         _______ _______ _______ _____ _____    ______ ____
ROOT
ATOM      1  C   UNL     1      -1.004   5.574   0.465  0.00  0.00    +0.085 A 
ATOM      2  C   UNL     1      -0.168   4.514   0.257  0.00  0.00    +0.115 A 
ATOM      3  N   UNL     1      -0.718   3.285   0.128  0.00  0.00    -0.311 N 
ATOM      4  C   UNL     1      -2.079   3.152   0.203  0.00  0.00    +0.177 A 
ATOM      5  N   UNL     1      -2.812   2.050   0.098  0.00  0.00    -0.203 NA
ATOM      6  S   UNL     1      -2.604   4.783   0.472  0.00  0.00    -0.046 S 
ATOM      7  C   UNL     1       0.131   2.112  -0.096  0.00  0.00    +0.152 C 
ENDROOT
BRANCH   1  12
ATOM      8  C   UNL     1      -1.942  10.437   0.941  0.00  0.00    +0.066 C 
ATOM      9  C   UNL     1      -1.003   9.260   0.865  0.00  0.00    +0.046 A 
ATOM     10  C   UNL     1       0.337   9.454   0.961  0.00  0.00    +0.070 A 
ATOM     11  S   UNL     1       0.927   7.771   0.818  0.00  0.00    -0.075 S 
ATOM     12  C   UNL     1      -0.673   6.993   0.637  0.00  0.00    +0.118 A 
ATOM     13  N   UNL     1      -1.482   8.046   0.706  0.00  0.00    -0.244 NA
ENDBRANCH   1  12
BRANCH   2  14
ATOM     14  N   UNL     1       1.206   4.694   0.181  0.00  0.00    -0.343 N 
ATOM     15  H   UNL     1       1.787   3.931   0.033  0.00  0.00    +0.144 HD
ATOM     16  H   UNL     1       1.585   5.581   0.276  0.00  0.00    +0.144 HD
ENDBRANCH   2  14
BRANCH   5  17
ATOM     17  C   UNL     1      -4.136   2.103   0.312  0.00  0.00    +0.163 C 
ATOM     18  N   UNL     1      -4.601   2.461   1.498  0.00  0.00    -0.228 NA
BRANCH  18  19
ATOM     19  C   UNL     1      -3.740   2.651   2.539  0.00  0.00    +0.066 A 
ATOM     20  C   UNL     1      -2.804   1.665   2.867  0.00  0.00    +0.028 A 
ATOM     21  C   UNL     1      -1.934   1.867   3.917  0.00  0.00    +0.002 A 
ATOM     22  C   UNL     1      -1.992   3.037   4.654  0.00  0.00    +0.000 A 
ATOM     23  C   UNL     1      -2.919   4.015   4.339  0.00  0.00    +0.002 A 
ATOM     24  C   UNL     1      -3.792   3.830   3.288  0.00  0.00    +0.028 A 
ENDBRANCH  18  19
BRANCH  17  25
ATOM     25  C   UNL     1      -5.077   1.760  -0.779  0.00  0.00    +0.019 A 
ATOM     26  C   UNL     1      -4.590   1.388  -2.032  0.00  0.00    +0.011 A 
ATOM     27  C   UNL     1      -5.472   1.065  -3.044  0.00  0.00    +0.001 A 
ATOM     28  C   UNL     1      -6.836   1.120  -2.820  0.00  0.00    +0.000 A 
ATOM     29  C   UNL     1      -7.325   1.494  -1.581  0.00  0.00    +0.001 A 
ATOM     30  C   UNL     1      -6.454   1.814  -0.560  0.00  0.00    +0.011 A 
ENDBRANCH  17  25
ENDBRANCH   5  17
TORSDOF 5
