REMARK  Name = ZINC35487007
REMARK  17 active torsions:
REMARK  status: ('A' for Active; 'I' for Inactive)
REMARK    1  A    between atoms: C_1  and  C_2
REMARK    2  A    between atoms: C_2  and  C_3
REMARK    3  A    between atoms: C_3  and  C_4
REMARK    4  A    between atoms: C_4  and  O_5
REMARK    5  A    between atoms: O_5  and  C_6
REMARK    6  A    between atoms: C_9  and  C_15
REMARK    7  A    between atoms: C_11  and  O_12
REMARK    8  A    between atoms: O_12  and  C_13
REMARK    9  A    between atoms: C_13  and  C_14
REMARK   10  A    between atoms: C_22  and  C_38
REMARK   11  A    between atoms: C_23  and  C_37
REMARK   12  A    between atoms: N_30  and  C_31
REMARK   13  A    between atoms: C_31  and  C_32
REMARK   14  A    between atoms: C_32  and  C_33
REMARK   15  A    between atoms: C_33  and  N_34
REMARK   16  A    between atoms: N_34  and  C_35
REMARK   17  A    between atoms: N_34  and  C_36
REMARK                            x       y       z     vdW  Elec       q    Type
REMARK                         _______ _______ _______ _____ _____    ______ ____
ROOT
ATOM      1  C   UNL     1      -3.411  -8.156  -0.009  0.00  0.00    +0.145 C 
ATOM      2  C   UNL     1      -3.176  -8.696  -1.381  0.00  0.00    +0.072 A 
ATOM      3  C   UNL     1      -3.870  -8.447  -2.649  0.00  0.00    +0.199 A 
ATOM      4  O   UNL     1      -4.701  -7.567  -2.794  0.00  0.00    -0.287 OA
ATOM      5  C   UNL     1      -3.463  -9.367  -3.740  0.00  0.00    +0.065 A 
ATOM      6  C   UNL     1      -4.166  -9.392  -4.944  0.00  0.00    +0.019 A 
ATOM      7  C   UNL     1      -3.782 -10.249  -5.937  0.00  0.00    -0.047 A 
ATOM      8  C   UNL     1      -2.696 -11.093  -5.750  0.00  0.00    -0.044 A 
ATOM      9  C   UNL     1      -1.989 -11.082  -4.569  0.00  0.00    +0.050 A 
ATOM     10  C   UNL     1      -2.360 -10.214  -3.541  0.00  0.00    +0.140 A 
ATOM     11  O   UNL     1      -1.645 -10.212  -2.393  0.00  0.00    -0.450 OA
ATOM     12  C   UNL     1      -2.118  -9.557  -1.315  0.00  0.00    +0.199 A 
ATOM     13  C   UNL     1      -1.648  -9.604   0.081  0.00  0.00    +0.283 C 
ATOM     14  O   UNL     1      -0.720 -10.279   0.480  0.00  0.00    -0.267 OA
ATOM     15  N   UNL     1      -2.398  -8.788   0.852  0.00  0.00    -0.284 N 
ATOM     16  C   UNL     1      -2.286 -12.034  -6.854  0.00  0.00    +0.044 C 
ATOM     17  C   UNL     1      -4.540 -10.278  -7.240  0.00  0.00    +0.044 C 
ENDROOT
BRANCH   1  21
ATOM     18  C   UNL     1      -2.913  -3.909   0.009  0.00  0.00    +0.162 A 
ATOM     19  C   UNL     1      -1.804  -4.739  -0.000  0.00  0.00    +0.050 A 
ATOM     20  C   UNL     1      -1.968  -6.112  -0.006  0.00  0.00    +0.009 A 
ATOM     21  C   UNL     1      -3.238  -6.659  -0.002  0.00  0.00    -0.019 A 
ATOM     22  C   UNL     1      -4.348  -5.836   0.006  0.00  0.00    +0.055 A 
ATOM     23  C   UNL     1      -4.191  -4.460   0.018  0.00  0.00    +0.162 A 
BRANCH  18  24
ATOM     24  O   UNL     1      -2.753  -2.558   0.015  0.00  0.00    -0.488 OA
BRANCH  24  25
ATOM     25  C   UNL     1      -1.413  -2.063   0.004  0.00  0.00    +0.229 C 
BRANCH  25  26
ATOM     26  C   UNL     1      -1.433  -0.534   0.013  0.00  0.00    +0.041 C 
BRANCH  26  28
ATOM     27  C   UNL     1      -0.019   1.526   0.010  0.00  0.00    +0.004 C 
ATOM     28  C   UNL     1       0.002  -0.004   0.002  0.00  0.00    -0.000 C 
ENDBRANCH  26  28
ENDBRANCH  25  26
ENDBRANCH  24  25
ENDBRANCH  18  24
BRANCH  23  29
ATOM     29  O   UNL     1      -5.282  -3.649   0.033  0.00  0.00    -0.489 OA
BRANCH  29  30
ATOM     30  C   UNL     1      -6.562  -4.284   0.042  0.00  0.00    +0.226 C 
ATOM     31  C   UNL     1      -7.660  -3.219   0.058  0.00  0.00    +0.048 C 
ENDBRANCH  29  30
ENDBRANCH  23  29
ENDBRANCH   1  21
BRANCH  15  32
ATOM     32  C   UNL     1      -2.233  -8.569   2.291  0.00  0.00    +0.107 C 
BRANCH  32  33
ATOM     33  C   UNL     1      -3.083  -9.581   3.062  0.00  0.00    +0.000 C 
BRANCH  33  34
ATOM     34  C   UNL     1      -2.911  -9.352   4.565  0.00  0.00    -0.078 C 
BRANCH  34  35
ATOM     35  N   UNL     1      -3.728 -10.324   5.304  0.00  0.00    +0.376 N 
ATOM     36  C   UNL     1      -3.471 -10.184   6.744  0.00  0.00    -0.097 C 
ATOM     37  C   UNL     1      -5.150 -10.075   5.034  0.00  0.00    -0.097 C 
ATOM     38  H   UNL     1      -3.488 -11.259   5.010  0.00  0.00    -0.083 HD
ENDBRANCH  34  35
ENDBRANCH  33  34
ENDBRANCH  32  33
ENDBRANCH  15  32
TORSDOF 11
