REMARK  Name = ZINC01374504
REMARK  12 active torsions:
REMARK  status: ('A' for Active; 'I' for Inactive)
REMARK    1  A    between atoms: C_1  and  C_2
REMARK    2  A    between atoms: C_2  and  C_3
REMARK    3  A    between atoms: C_3  and  C_5
REMARK    4  A    between atoms: C_3  and  N_18
REMARK    5  A    between atoms: N_9  and  C_10
REMARK    6  A    between atoms: C_10  and  C_11
REMARK    7  A    between atoms: N_18  and  C_19
REMARK    8  A    between atoms: N_18  and  C_26
REMARK    9  A    between atoms: C_19  and  C_20
REMARK   10  A    between atoms: C_26  and  C_27
REMARK   11  A    between atoms: C_31  and  O_39
REMARK   12  A    between atoms: O_39  and  C_40
REMARK                            x       y       z     vdW  Elec       q    Type
REMARK                         _______ _______ _______ _____ _____    ______ ____
ROOT
ATOM      1  N   UNL     1      -1.925   0.505  -1.350  0.00  0.00    -0.284 NA
ENDROOT
BRANCH   1   2
ATOM      2  C   UNL     1      -1.472  -0.850  -1.011  0.00  0.00    +0.127 C 
BRANCH   2   3
ATOM      3  C   UNL     1       0.017  -0.949  -1.222  0.00  0.00    +0.169 A 
ATOM      4  N   UNL     1       0.850   0.047  -1.401  0.00  0.00    -0.112 NA
ATOM      5  N   UNL     1       2.033  -0.444  -1.545  0.00  0.00    -0.023 NA
ATOM      6  N   UNL     1       1.976  -1.727  -1.462  0.00  0.00    -0.044 NA
ATOM      7  N   UNL     1       0.751  -2.077  -1.258  0.00  0.00    -0.223 N 
BRANCH   7   8
ATOM      8  C   UNL     1       0.252  -3.445  -1.099  0.00  0.00    +0.182 C 
BRANCH   8   9
ATOM      9  C   UNL     1      -0.124  -4.003  -2.448  0.00  0.00    -0.026 A 
ATOM     10  C   UNL     1      -1.407  -3.831  -2.933  0.00  0.00    +0.008 A 
ATOM     11  C   UNL     1      -1.753  -4.342  -4.170  0.00  0.00    +0.038 A 
ATOM     12  C   UNL     1      -0.814  -5.025  -4.924  0.00  0.00    +0.123 A 
ATOM     13  C   UNL     1       0.471  -5.196  -4.437  0.00  0.00    +0.038 A 
ATOM     14  C   UNL     1       0.816  -4.680  -3.202  0.00  0.00    +0.008 A 
ATOM     15  F   UNL     1      -1.151  -5.525  -6.133  0.00  0.00    -0.205 F 
ENDBRANCH   8   9
ENDBRANCH   7   8
ENDBRANCH   2   3
BRANCH   2  17
ATOM     16  C   UNL     1      -3.310  -1.041   0.669  0.00  0.00    +0.006 C 
ATOM     17  C   UNL     1      -1.799  -1.147   0.454  0.00  0.00    +0.023 C 
ENDBRANCH   2  17
ENDBRANCH   1   2
BRANCH   1  18
ATOM     18  C   UNL     1      -3.353   0.511  -1.697  0.00  0.00    +0.120 C 
BRANCH  18  19
ATOM     19  C   UNL     1      -3.689   1.790  -2.420  0.00  0.00    -0.033 A 
ATOM     20  C   UNL     1      -4.252   2.847  -1.729  0.00  0.00    +0.005 A 
ATOM     21  C   UNL     1      -4.561   4.020  -2.393  0.00  0.00    +0.000 A 
ATOM     22  C   UNL     1      -4.305   4.136  -3.746  0.00  0.00    +0.000 A 
ATOM     23  C   UNL     1      -3.741   3.080  -4.436  0.00  0.00    +0.000 A 
ATOM     24  C   UNL     1      -3.429   1.908  -3.772  0.00  0.00    +0.005 A 
ENDBRANCH  18  19
ENDBRANCH   1  18
BRANCH   1  25
ATOM     25  C   UNL     1      -1.646   1.443  -0.255  0.00  0.00    +0.126 C 
BRANCH  25  26
ATOM     26  C   UNL     1      -0.194   1.843  -0.294  0.00  0.00    +0.031 A 
ATOM     27  C   UNL     1       0.234   2.746  -1.210  0.00  0.00    +0.020 A 
ATOM     28  C   UNL     1       1.652   3.114  -1.222  0.00  0.00    +0.002 A 
ATOM     29  C   UNL     1       2.150   4.040  -2.144  0.00  0.00    +0.055 A 
ATOM     30  C   UNL     1       3.491   4.364  -2.127  0.00  0.00    +0.121 A 
ATOM     31  C   UNL     1       4.346   3.773  -1.199  0.00  0.00    +0.047 A 
ATOM     32  C   UNL     1       3.867   2.860  -0.287  0.00  0.00    +0.030 A 
ATOM     33  C   UNL     1       2.519   2.519  -0.286  0.00  0.00    +0.049 A 
ATOM     34  N   UNL     1       2.020   1.606   0.621  0.00  0.00    -0.322 N 
ATOM     35  H   UNL     1       2.618   1.196   1.265  0.00  0.00    +0.169 HD
ATOM     36  C   UNL     1       0.716   1.279   0.627  0.00  0.00    +0.254 A 
ATOM     37  O   UNL     1       0.309   0.473   1.446  0.00  0.00    -0.268 OA
BRANCH  30  38
ATOM     38  O   UNL     1       3.981   5.264  -3.021  0.00  0.00    -0.495 OA
ATOM     39  C   UNL     1       5.378   5.554  -2.949  0.00  0.00    +0.277 C 
ENDBRANCH  30  38
ENDBRANCH  25  26
ENDBRANCH   1  25
TORSDOF 10
