REMARK  Name = ZINC34835276
REMARK  15 active torsions:
REMARK  status: ('A' for Active; 'I' for Inactive)
REMARK    1  A    between atoms: C_1  and  C_2
REMARK    2  A    between atoms: C_2  and  C_3
REMARK    3  A    between atoms: C_3  and  C_5
REMARK    4  A    between atoms: C_3  and  N_6
REMARK    5  A    between atoms: N_6  and  C_7
REMARK    6  A    between atoms: N_6  and  S_28
REMARK    7  A    between atoms: C_7  and  C_8
REMARK    8  A    between atoms: C_9  and  C_27
REMARK    9  A    between atoms: N_11  and  C_21
REMARK   10  A    between atoms: C_12  and  N_13
REMARK   11  A    between atoms: N_16  and  C_19
REMARK   12  A    between atoms: C_19  and  C_20
REMARK   13  A    between atoms: S_28  and  C_31
REMARK   14  A    between atoms: C_34  and  O_37
REMARK   15  A    between atoms: O_37  and  C_38
REMARK                            x       y       z     vdW  Elec       q    Type
REMARK                         _______ _______ _______ _____ _____    ______ ____
ROOT
ATOM      1  C   UNL     1      -0.890  -2.194   4.531  0.00  0.00    +0.031 A 
ATOM      2  C   UNL     1      -0.160  -2.943   3.604  0.00  0.00    +0.067 A 
ATOM      3  N   UNL     1       1.037  -3.151   4.090  0.00  0.00    -0.170 NA
ATOM      4  N   UNL     1       1.117  -2.540   5.348  0.00  0.00    -0.218 N 
ATOM      5  C   UNL     1      -0.083  -1.949   5.600  0.00  0.00    +0.129 A 
ATOM      6  C   UNL     1      -0.666  -3.431   2.271  0.00  0.00    +0.068 C 
ENDROOT
BRANCH   5   7
ATOM      7  N   UNL     1      -0.424  -1.230   6.742  0.00  0.00    -0.318 N 
ATOM      8  C   UNL     1      -1.385  -1.768   7.716  0.00  0.00    +0.088 C 
ATOM      9  C   UNL     1      -0.765  -1.674   9.114  0.00  0.00    -0.060 C 
ATOM     10  N   UNL     1      -0.351  -0.289   9.372  0.00  0.00    +0.382 N 
ATOM     11  C   UNL     1       0.715   0.097   8.440  0.00  0.00    -0.060 C 
ATOM     12  C   UNL     1       0.172   0.088   7.011  0.00  0.00    +0.088 C 
ATOM     13  H   UNL     1      -1.143   0.326   9.249  0.00  0.00    -0.082 HD
BRANCH  10  14
ATOM     14  C   UNL     1       0.142  -0.176  10.751  0.00  0.00    -0.082 C 
ATOM     15  C   UNL     1       0.456   1.289  11.063  0.00  0.00    -0.017 C 
ENDBRANCH  10  14
ENDBRANCH   5   7
BRANCH   4  16
ATOM     16  C   UNL     1       2.234  -2.534   6.195  0.00  0.00    +0.067 A 
ATOM     17  C   UNL     1       2.755  -1.330   6.650  0.00  0.00    +0.028 A 
ATOM     18  C   UNL     1       3.856  -1.327   7.484  0.00  0.00    +0.002 A 
ATOM     19  C   UNL     1       4.439  -2.521   7.865  0.00  0.00    +0.000 A 
ATOM     20  C   UNL     1       3.923  -3.722   7.413  0.00  0.00    +0.002 A 
ATOM     21  C   UNL     1       2.818  -3.731   6.584  0.00  0.00    +0.028 A 
ENDBRANCH   4  16
BRANCH   1  22
ATOM     22  C   UNL     1      -2.316  -1.733   4.372  0.00  0.00    +0.150 C 
BRANCH  22  23
ATOM     23  N   UNL     1      -2.372  -0.273   4.478  0.00  0.00    -0.169 NA
BRANCH  23  24
ATOM     24  S   UNL     1      -3.231   0.437   5.702  0.00  0.00    +0.061 S 
ATOM     25  O   UNL     1      -3.779  -0.620   6.479  0.00  0.00    -0.153 OA
ATOM     26  O   UNL     1      -2.391   1.437   6.262  0.00  0.00    -0.153 OA
BRANCH  24  27
ATOM     27  C   UNL     1      -4.593   1.278   4.965  0.00  0.00    +0.106 A 
ATOM     28  C   UNL     1      -4.457   2.595   4.566  0.00  0.00    +0.032 A 
ATOM     29  C   UNL     1      -5.522   3.257   3.988  0.00  0.00    +0.047 A 
ATOM     30  C   UNL     1      -6.730   2.599   3.807  0.00  0.00    +0.120 A 
ATOM     31  C   UNL     1      -6.864   1.277   4.208  0.00  0.00    +0.047 A 
ATOM     32  C   UNL     1      -5.794   0.618   4.780  0.00  0.00    +0.032 A 
BRANCH  30  33
ATOM     33  O   UNL     1      -7.780   3.248   3.239  0.00  0.00    -0.495 OA
ATOM     34  C   UNL     1      -8.993   2.508   3.084  0.00  0.00    +0.277 C 
ENDBRANCH  30  33
ENDBRANCH  24  27
ENDBRANCH  23  24
BRANCH  23  35
ATOM     35  C   UNL     1      -1.668   0.560   3.499  0.00  0.00    +0.077 C 
ATOM     36  C   UNL     1      -0.159   0.348   3.641  0.00  0.00    +0.026 C 
BRANCH  35  38
ATOM     37  C   UNL     1      -3.591   0.498   1.905  0.00  0.00    +0.005 C 
ATOM     38  C   UNL     1      -2.107   0.170   2.087  0.00  0.00    +0.017 C 
ENDBRANCH  35  38
ENDBRANCH  23  35
ENDBRANCH  22  23
ENDBRANCH   1  22
TORSDOF 10
