REMARK  Name = ZINC38845299
REMARK  13 active torsions:
REMARK  status: ('A' for Active; 'I' for Inactive)
REMARK    1  A    between atoms: C_1  and  C_2
REMARK    2  A    between atoms: C_2  and  N_3
REMARK    3  A    between atoms: N_3  and  C_4
REMARK    4  A    between atoms: N_3  and  C_6
REMARK    5  A    between atoms: C_4  and  C_5
REMARK    6  A    between atoms: C_6  and  C_7
REMARK    7  A    between atoms: C_7  and  N_8
REMARK    8  A    between atoms: C_17  and  S_18
REMARK    9  A    between atoms: S_18  and  C_21
REMARK   10  A    between atoms: C_22  and  C_24
REMARK   11  A    between atoms: C_24  and  C_25
REMARK   12  A    between atoms: C_28  and  S_31
REMARK   13  A    between atoms: S_31  and  C_34
REMARK                            x       y       z     vdW  Elec       q    Type
REMARK                         _______ _______ _______ _____ _____    ______ ____
ROOT
ATOM      1  N   UNL     1      -0.803  -3.594   2.129  0.00  0.00    -0.252 N 
ATOM      2  C   UNL     1       0.233  -4.425   1.732  0.00  0.00    +0.168 A 
ATOM      3  N   UNL     1       0.367  -5.718   1.914  0.00  0.00    -0.222 NA
ATOM      4  C   UNL     1       1.439  -6.407   1.469  0.00  0.00    +0.105 A 
ATOM      5  C   UNL     1       2.417  -5.644   0.788  0.00  0.00    +0.043 A 
ATOM      6  S   UNL     1       1.721  -4.010   0.834  0.00  0.00    -0.052 S 
ATOM      7  C   UNL     1       3.563  -6.198   0.275  0.00  0.00    +0.017 A 
ATOM      8  C   UNL     1       3.789  -7.555   0.420  0.00  0.00    +0.003 A 
ATOM      9  C   UNL     1       2.852  -8.334   1.082  0.00  0.00    +0.029 A 
ATOM     10  C   UNL     1       1.704  -7.789   1.597  0.00  0.00    +0.114 A 
ATOM     11  C   UNL     1      -1.852  -4.101   2.805  0.00  0.00    +0.225 C 
ATOM     12  O   UNL     1      -1.891  -5.285   3.066  0.00  0.00    -0.275 OA
ENDROOT
BRANCH  10  13
ATOM     13  S   UNL     1       0.547  -8.824   2.430  0.00  0.00    -0.004 S 
ATOM     14  O   UNL     1      -0.703  -8.536   1.818  0.00  0.00    -0.170 OA
ATOM     15  O   UNL     1       1.107 -10.128   2.355  0.00  0.00    -0.170 OA
ATOM     16  C   UNL     1       0.551  -8.241   4.148  0.00  0.00    +0.200 C 
ENDBRANCH  10  13
BRANCH   1  17
ATOM     17  C   UNL     1      -0.756  -2.164   1.814  0.00  0.00    +0.097 C 
BRANCH  17  18
ATOM     18  C   UNL     1      -1.421  -1.919   0.458  0.00  0.00    -0.059 C 
BRANCH  18  19
ATOM     19  N   UNL     1      -1.374  -0.485   0.142  0.00  0.00    +0.380 N 
ATOM     20  H   UNL     1      -1.792   0.039   0.895  0.00  0.00    -0.082 HD
BRANCH  19  22
ATOM     21  C   UNL     1       0.082   1.451  -0.216  0.00  0.00    -0.017 C 
ATOM     22  C   UNL     1       0.024  -0.066  -0.029  0.00  0.00    -0.082 C 
ENDBRANCH  19  22
BRANCH  19  23
ATOM     23  C   UNL     1      -2.116  -0.233  -1.101  0.00  0.00    -0.082 C 
ATOM     24  C   UNL     1      -3.600  -0.533  -0.879  0.00  0.00    -0.017 C 
ENDBRANCH  19  23
ENDBRANCH  18  19
ENDBRANCH  17  18
ENDBRANCH   1  17
BRANCH  11  25
ATOM     25  C   UNL     1      -2.978  -3.198   3.237  0.00  0.00    +0.131 C 
BRANCH  25  26
ATOM     26  C   UNL     1      -4.019  -4.006   3.969  0.00  0.00    -0.038 A 
ATOM     27  C   UNL     1      -5.058  -4.591   3.269  0.00  0.00    +0.006 A 
ATOM     28  C   UNL     1      -6.012  -5.332   3.940  0.00  0.00    +0.027 A 
ATOM     29  C   UNL     1      -5.927  -5.489   5.311  0.00  0.00    +0.088 A 
ATOM     30  C   UNL     1      -4.888  -4.905   6.011  0.00  0.00    +0.027 A 
ATOM     31  C   UNL     1      -3.931  -4.167   5.339  0.00  0.00    +0.006 A 
BRANCH  29  32
ATOM     32  S   UNL     1      -7.144  -6.433   6.167  0.00  0.00    -0.006 S 
ATOM     33  O   UNL     1      -7.146  -5.910   7.488  0.00  0.00    -0.170 OA
ATOM     34  O   UNL     1      -8.306  -6.350   5.353  0.00  0.00    -0.170 OA
ATOM     35  C   UNL     1      -6.502  -8.130   6.168  0.00  0.00    +0.200 C 
ENDBRANCH  29  32
ENDBRANCH  25  26
ENDBRANCH  11  25
TORSDOF 9
