REMARK  Name = ZINC13058932
REMARK  8 active torsions:
REMARK  status: ('A' for Active; 'I' for Inactive)
REMARK    1  A    between atoms: C_1  and  C_2
REMARK    2  A    between atoms: C_2  and  C_3
REMARK    3  A    between atoms: C_3  and  C_5
REMARK    4  A    between atoms: C_3  and  C_6
REMARK    5  A    between atoms: C_9  and  S_12
REMARK    6  A    between atoms: S_12  and  N_15
REMARK    7  A    between atoms: N_15  and  C_16
REMARK    8  A    between atoms: C_19  and  C_22
REMARK                            x       y       z     vdW  Elec       q    Type
REMARK                         _______ _______ _______ _____ _____    ______ ____
ROOT
ATOM      1  C   UNL     1       3.348  -2.442   4.734  0.00  0.00    +0.048 A 
ATOM      2  C   UNL     1       3.355  -1.627   3.607  0.00  0.00    +0.025 A 
ATOM      3  C   UNL     1       4.323  -1.792   2.641  0.00  0.00    +0.013 A 
ATOM      4  C   UNL     1       5.293  -2.786   2.789  0.00  0.00    +0.019 A 
ATOM      5  C   UNL     1       5.281  -3.606   3.919  0.00  0.00    +0.013 A 
ATOM      6  C   UNL     1       4.313  -3.433   4.884  0.00  0.00    +0.025 A 
ENDROOT
BRANCH   4   7
ATOM      7  C   UNL     1       6.330  -2.969   1.752  0.00  0.00    +0.164 A 
ATOM      8  N   UNL     1       7.482  -3.591   1.895  0.00  0.00    -0.129 NA
ATOM      9  N   UNL     1       8.130  -3.566   0.783  0.00  0.00    -0.134 NA
ATOM     10  C   UNL     1       7.440  -2.930  -0.121  0.00  0.00    +0.134 A 
ATOM     11  N   UNL     1       6.282  -2.521   0.464  0.00  0.00    -0.311 N 
ATOM     12  C   UNL     1       5.213  -1.747  -0.168  0.00  0.00    +0.125 C 
ATOM     13  C   UNL     1       5.200  -2.035  -1.672  0.00  0.00    +0.022 C 
ATOM     14  C   UNL     1       6.126  -1.056  -2.392  0.00  0.00    +0.002 C 
ATOM     15  C   UNL     1       7.563  -1.220  -1.905  0.00  0.00    +0.008 C 
ATOM     16  C   UNL     1       7.825  -2.688  -1.558  0.00  0.00    +0.076 C 
ENDBRANCH   4   7
BRANCH   1  17
ATOM     17  N   UNL     1       2.369  -2.270   5.712  0.00  0.00    -0.216 N 
ATOM     18  H   UNL     1       1.460  -2.562   5.545  0.00  0.00    +0.174 HD
BRANCH  17  19
ATOM     19  S   UNL     1       2.760  -1.567   7.160  0.00  0.00    +0.072 S 
ATOM     20  O   UNL     1       3.907  -2.250   7.646  0.00  0.00    -0.150 OA
ATOM     21  O   UNL     1       1.554  -1.475   7.905  0.00  0.00    -0.150 OA
BRANCH  19  25
ATOM     22  C   UNL     1       4.061   2.679   6.277  0.00  0.00    -0.044 A 
ATOM     23  C   UNL     1       5.005   1.675   6.389  0.00  0.00    +0.006 A 
ATOM     24  C   UNL     1       4.609   0.380   6.664  0.00  0.00    +0.029 A 
ATOM     25  C   UNL     1       3.266   0.086   6.816  0.00  0.00    +0.109 A 
ATOM     26  C   UNL     1       2.321   1.088   6.698  0.00  0.00    +0.029 A 
ATOM     27  C   UNL     1       2.719   2.384   6.429  0.00  0.00    +0.006 A 
BRANCH  22  28
ATOM     28  C   UNL     1       4.494   4.092   5.983  0.00  0.00    +0.016 C 
ATOM     29  C   UNL     1       5.418   4.585   7.099  0.00  0.00    +0.012 C 
BRANCH  28  31
ATOM     30  C   UNL     1       5.571   5.579   4.290  0.00  0.00    +0.004 C 
ATOM     31  C   UNL     1       5.241   4.129   4.649  0.00  0.00    +0.004 C 
ENDBRANCH  28  31
ENDBRANCH  22  28
ENDBRANCH  19  25
ENDBRANCH  17  19
ENDBRANCH   1  17
TORSDOF 6
