REMARK  Name = ZINC13814877
REMARK  8 active torsions:
REMARK  status: ('A' for Active; 'I' for Inactive)
REMARK    1  A    between atoms: C_6  and  C_7
REMARK    2  A    between atoms: C_7  and  N_8
REMARK    3  A    between atoms: N_8  and  C_9
REMARK    4  A    between atoms: C_9  and  N_11
REMARK    5  A    between atoms: N_11  and  C_12
REMARK    6  A    between atoms: C_12  and  C_13
REMARK    7  A    between atoms: C_16  and  S_19
REMARK    8  A    between atoms: S_19  and  N_22
REMARK                            x       y       z     vdW  Elec       q    Type
REMARK                         _______ _______ _______ _____ _____    ______ ____
ROOT
ATOM      1  N   UNL     1      -3.265  -1.916  -2.875  0.00  0.00    -0.322 N 
ATOM      2  H   UNL     1      -2.731  -1.590  -3.616  0.00  0.00    +0.148 HD
ENDROOT
BRANCH   1   3
ATOM      3  C   UNL     1      -2.867  -1.693  -1.607  0.00  0.00    +0.131 C 
ATOM      4  S   UNL     1      -3.811  -2.269  -0.300  0.00  0.00    -0.019 S 
BRANCH   3   5
ATOM      5  N   UNL     1      -1.726  -1.017  -1.368  0.00  0.00    -0.322 N 
ATOM      6  H   UNL     1      -1.191  -0.691  -2.109  0.00  0.00    +0.148 HD
BRANCH   5   7
ATOM      7  C   UNL     1      -1.293  -0.775   0.010  0.00  0.00    +0.138 C 
BRANCH   7  13
ATOM      8  C   UNL     1      -0.017   1.378   0.010  0.00  0.00    +0.008 A 
ATOM      9  C   UNL     1       1.170   2.086   0.002  0.00  0.00    +0.038 A 
ATOM     10  C   UNL     1       2.379   1.410  -0.013  0.00  0.00    +0.123 A 
ATOM     11  C   UNL     1       2.396   0.026  -0.021  0.00  0.00    +0.038 A 
ATOM     12  C   UNL     1       1.208  -0.680  -0.013  0.00  0.00    +0.008 A 
ATOM     13  C   UNL     1       0.002  -0.004   0.002  0.00  0.00    -0.030 A 
ATOM     14  F   UNL     1       3.540   2.101  -0.021  0.00  0.00    -0.205 F 
ENDBRANCH   7  13
ENDBRANCH   5   7
ENDBRANCH   3   5
ENDBRANCH   1   3
BRANCH   1  15
ATOM     15  C   UNL     1      -4.505  -2.651  -3.135  0.00  0.00    +0.138 C 
BRANCH  15  16
ATOM     16  C   UNL     1      -4.721  -2.763  -4.622  0.00  0.00    -0.030 A 
ATOM     17  C   UNL     1      -5.427  -1.783  -5.294  0.00  0.00    +0.007 A 
ATOM     18  C   UNL     1      -5.625  -1.885  -6.658  0.00  0.00    +0.029 A 
ATOM     19  C   UNL     1      -5.116  -2.968  -7.351  0.00  0.00    +0.105 A 
ATOM     20  C   UNL     1      -4.409  -3.948  -6.680  0.00  0.00    +0.029 A 
ATOM     21  C   UNL     1      -4.208  -3.843  -5.316  0.00  0.00    +0.007 A 
BRANCH  19  22
ATOM     22  S   UNL     1      -5.369  -3.099  -9.090  0.00  0.00    +0.056 S 
ATOM     23  O   UNL     1      -5.263  -4.479  -9.413  0.00  0.00    -0.153 OA
ATOM     24  O   UNL     1      -6.528  -2.333  -9.391  0.00  0.00    -0.153 OA
BRANCH  22  25
ATOM     25  N   UNL     1      -4.096  -2.341  -9.829  0.00  0.00    -0.204 NA
ATOM     26  H   UNL     1      -3.397  -1.934  -9.293  0.00  0.00    +0.144 HD
ATOM     27  H   UNL     1      -4.049  -2.303 -10.797  0.00  0.00    +0.144 HD
ENDBRANCH  22  25
ENDBRANCH  19  22
ENDBRANCH  15  16
ENDBRANCH   1  15
TORSDOF 8
