REMARK  Name = ZINC36186536
REMARK  8 active torsions:
REMARK  status: ('A' for Active; 'I' for Inactive)
REMARK    1  A    between atoms: C_4  and  C_7
REMARK    2  A    between atoms: C_7  and  C_9
REMARK    3  A    between atoms: C_7  and  O_22
REMARK    4  A    between atoms: N_11  and  C_12
REMARK    5  A    between atoms: C_15  and  N_19
REMARK    6  A    between atoms: O_22  and  C_23
REMARK    7  A    between atoms: C_23  and  C_25
REMARK    8  A    between atoms: C_28  and  N_31
REMARK                            x       y       z     vdW  Elec       q    Type
REMARK                         _______ _______ _______ _____ _____    ______ ____
ROOT
ATOM      1  C   UNL     1       3.755  -0.936   0.363  0.00  0.00    +0.292 C 
ENDROOT
BRANCH   1   5
ATOM      2  C   UNL     1       0.025   1.145   0.304  0.00  0.00    +0.000 A 
ATOM      3  C   UNL     1       1.212   1.850   0.227  0.00  0.00    +0.000 A 
ATOM      4  C   UNL     1       2.419   1.177   0.247  0.00  0.00    +0.008 A 
ATOM      5  C   UNL     1       2.439  -0.202   0.343  0.00  0.00    +0.002 A 
ATOM      6  C   UNL     1       1.253  -0.907   0.420  0.00  0.00    +0.008 A 
ATOM      7  C   UNL     1       0.046  -0.234   0.399  0.00  0.00    +0.000 A 
ENDBRANCH   1   5
BRANCH   1   8
ATOM      8  C   UNL     1       4.107  -1.298   1.783  0.00  0.00    +0.263 C 
ATOM      9  O   UNL     1       4.162  -2.463   2.116  0.00  0.00    -0.271 OA
ATOM     10  N   UNL     1       4.359  -0.327   2.683  0.00  0.00    -0.281 N 
ATOM     11  H   UNL     1       4.377   0.601   2.403  0.00  0.00    +0.155 HD
BRANCH  10  12
ATOM     12  C   UNL     1       4.596  -0.659   4.022  0.00  0.00    +0.052 A 
ATOM     13  C   UNL     1       5.264  -1.834   4.341  0.00  0.00    +0.027 A 
ATOM     14  C   UNL     1       5.496  -2.158   5.663  0.00  0.00    +0.034 A 
ATOM     15  C   UNL     1       5.065  -1.314   6.670  0.00  0.00    +0.128 A 
ATOM     16  C   UNL     1       4.399  -0.143   6.357  0.00  0.00    +0.054 A 
ATOM     17  C   UNL     1       4.168   0.190   5.036  0.00  0.00    +0.064 A 
ATOM     18 CL   UNL     1       3.339   1.664   4.643  0.00  0.00    -0.082 Cl
BRANCH  15  19
ATOM     19  N   UNL     1       5.315  -1.665   8.086  0.00  0.00    +0.056 N 
ATOM     20  O   UNL     1       5.897  -2.689   8.361  0.00  0.00    -0.126 OA
ATOM     21  O   UNL     1       4.939  -0.928   8.967  0.00  0.00    -0.126 OA
ENDBRANCH  15  19
ENDBRANCH  10  12
ENDBRANCH   1   8
BRANCH   1  22
ATOM     22  O   UNL     1       3.648  -2.127  -0.419  0.00  0.00    -0.444 OA
BRANCH  22  23
ATOM     23  C   UNL     1       3.956  -2.030  -1.728  0.00  0.00    +0.340 C 
ATOM     24  O   UNL     1       4.306  -0.963  -2.191  0.00  0.00    -0.245 OA
BRANCH  23  25
ATOM     25  C   UNL     1       3.868  -3.218  -2.596  0.00  0.00    +0.059 A 
ATOM     26  C   UNL     1       3.460  -4.445  -2.066  0.00  0.00    +0.017 A 
ATOM     27  C   UNL     1       3.379  -5.552  -2.880  0.00  0.00    +0.024 A 
ATOM     28  C   UNL     1       3.703  -5.451  -4.229  0.00  0.00    +0.036 A 
ATOM     29  C   UNL     1       4.110  -4.231  -4.761  0.00  0.00    +0.024 A 
ATOM     30  C   UNL     1       4.188  -3.119  -3.954  0.00  0.00    +0.017 A 
BRANCH  28  31
ATOM     31  N   UNL     1       3.620  -6.574  -5.051  0.00  0.00    -0.271 N 
ATOM     32  C   UNL     1       4.056  -6.610  -6.452  0.00  0.00    +0.114 C 
ATOM     33  C   UNL     1       4.185  -8.108  -6.805  0.00  0.00    +0.029 C 
ATOM     34  C   UNL     1       3.201  -8.755  -5.803  0.00  0.00    +0.098 C 
ATOM     35  C   UNL     1       3.136  -7.766  -4.660  0.00  0.00    +0.220 C 
ATOM     36  O   UNL     1       2.706  -8.011  -3.553  0.00  0.00    -0.275 OA
ENDBRANCH  28  31
ENDBRANCH  23  25
ENDBRANCH  22  23
ENDBRANCH   1  22
TORSDOF 8
