REMARK  Name = ZINC16459786
REMARK  8 active torsions:
REMARK  status: ('A' for Active; 'I' for Inactive)
REMARK    1  A    between atoms: C_4  and  N_7
REMARK    2  A    between atoms: C_8  and  C_32
REMARK    3  A    between atoms: C_11  and  S_12
REMARK    4  A    between atoms: S_12  and  C_13
REMARK    5  A    between atoms: C_13  and  C_14
REMARK    6  A    between atoms: C_16  and  C_19
REMARK    7  A    between atoms: N_21  and  C_22
REMARK    8  A    between atoms: C_22  and  C_23
REMARK                            x       y       z     vdW  Elec       q    Type
REMARK                         _______ _______ _______ _____ _____    ______ ____
ROOT
ATOM      1  C   UNL     1       9.107  -2.255  -1.432  0.00  0.00    +0.206 A 
ATOM      2  N   UNL     1       8.010  -1.918  -0.822  0.00  0.00    -0.208 NA
ATOM      3  C   UNL     1       8.305  -1.655   0.481  0.00  0.00    +0.164 A 
ATOM      4  C   UNL     1       9.642  -1.858   0.637  0.00  0.00    +0.230 A 
ATOM      5  O   UNL     1      10.124  -2.230  -0.559  0.00  0.00    -0.446 OA
ENDROOT
BRANCH   3   6
ATOM      6  C   UNL     1       7.355  -1.236   1.526  0.00  0.00    +0.266 C 
ATOM      7  O   UNL     1       7.747  -1.036   2.660  0.00  0.00    -0.268 OA
ATOM      8  N   UNL     1       6.051  -1.073   1.226  0.00  0.00    -0.306 N 
ATOM      9  H   UNL     1       5.738  -1.231   0.322  0.00  0.00    +0.149 HD
BRANCH   8  10
ATOM     10  C   UNL     1       5.107  -0.655   2.265  0.00  0.00    +0.140 C 
BRANCH  10  11
ATOM     11  C   UNL     1       3.725  -0.548   1.674  0.00  0.00    -0.027 A 
ATOM     12  C   UNL     1       2.885  -1.646   1.677  0.00  0.00    +0.009 A 
ATOM     13  C   UNL     1       1.617  -1.553   1.135  0.00  0.00    +0.050 A 
ATOM     14  C   UNL     1       1.183  -0.356   0.589  0.00  0.00    +0.166 A 
ATOM     15  C   UNL     1       2.028   0.751   0.586  0.00  0.00    +0.167 A 
ATOM     16  C   UNL     1       3.298   0.650   1.131  0.00  0.00    +0.054 A 
ATOM     17  O   UNL     1       1.376   1.797  -0.001  0.00  0.00    -0.453 OA
ATOM     18  C   UNL     1      -0.018   1.436   0.010  0.00  0.00    +0.466 C 
ATOM     19  O   UNL     1       0.002  -0.004   0.002  0.00  0.00    -0.453 OA
ENDBRANCH  10  11
ENDBRANCH   8  10
ENDBRANCH   3   6
BRANCH   1  20
ATOM     20  C   UNL     1       9.216  -2.623  -2.889  0.00  0.00    +0.173 C 
BRANCH  20  21
ATOM     21  S   UNL     1       9.554  -1.135  -3.863  0.00  0.00    -0.076 S 
BRANCH  21  26
ATOM     22  N   UNL     1       9.860  -1.162  -6.647  0.00  0.00    -0.270 N 
ATOM     23  C   UNL     1       9.832  -2.120  -7.639  0.00  0.00    +0.176 A 
ATOM     24  N   UNL     1       9.589  -3.272  -7.053  0.00  0.00    -0.127 NA
ATOM     25  N   UNL     1       9.471  -3.104  -5.785  0.00  0.00    -0.122 NA
ATOM     26  C   UNL     1       9.630  -1.837  -5.478  0.00  0.00    +0.197 A 
BRANCH  22  30
ATOM     27  C   UNL     1      10.517   2.928  -7.110  0.00  0.00    +0.000 A 
ATOM     28  C   UNL     1      11.430   2.157  -6.415  0.00  0.00    +0.002 A 
ATOM     29  C   UNL     1      11.215   0.801  -6.260  0.00  0.00    +0.026 A 
ATOM     30  C   UNL     1      10.081   0.213  -6.803  0.00  0.00    +0.051 A 
ATOM     31  C   UNL     1       9.169   0.989  -7.506  0.00  0.00    +0.026 A 
ATOM     32  C   UNL     1       9.386   2.345  -7.652  0.00  0.00    +0.002 A 
ENDBRANCH  22  30
BRANCH  23  33
ATOM     33  C   UNL     1      10.031  -1.896  -9.079  0.00  0.00    +0.057 A 
ATOM     34  C   UNL     1       9.743  -2.727 -10.132  0.00  0.00    +0.019 A 
ATOM     35  C   UNL     1      10.020  -2.295 -11.410  0.00  0.00    +0.008 A 
ATOM     36  C   UNL     1      10.567  -1.065 -11.589  0.00  0.00    +0.046 A 
ATOM     37  S   UNL     1      10.703  -0.467  -9.913  0.00  0.00    -0.094 S 
ENDBRANCH  23  33
ENDBRANCH  21  26
ENDBRANCH  20  21
ENDBRANCH   1  20
TORSDOF 8
