REMARK  Name = ZINC35439629
REMARK  7 active torsions:
REMARK  status: ('A' for Active; 'I' for Inactive)
REMARK    1  A    between atoms: C_1  and  C_2
REMARK    2  A    between atoms: C_5  and  N_8
REMARK    3  A    between atoms: C_9  and  C_11
REMARK    4  A    between atoms: C_11  and  C_12
REMARK    5  A    between atoms: C_12  and  C_14
REMARK    6  A    between atoms: C_12  and  C_23
REMARK    7  A    between atoms: C_30  and  C_32
REMARK                            x       y       z     vdW  Elec       q    Type
REMARK                         _______ _______ _______ _____ _____    ______ ____
ROOT
ATOM      1  C   UNL     1       0.424  -6.867   2.557  0.00  0.00    +0.076 C 
ENDROOT
BRANCH   1   2
ATOM      2  C   UNL     1       0.855  -8.279   2.859  0.00  0.00    +0.051 A 
ATOM      3  C   UNL     1       0.044  -9.321   3.144  0.00  0.00    +0.135 A 
ATOM      4  N   UNL     1       0.797 -10.403   3.353  0.00  0.00    -0.236 NA
ATOM      5  C   UNL     1       2.075 -10.079   3.209  0.00  0.00    +0.138 A 
ATOM      6  N   UNL     1       2.141  -8.747   2.892  0.00  0.00    -0.303 N 
ATOM      7  C   UNL     1       3.348  -8.146   2.680  0.00  0.00    +0.093 A 
ATOM      8  C   UNL     1       4.493  -8.852   2.776  0.00  0.00    +0.021 A 
ATOM      9  C   UNL     1       4.458 -10.219   3.096  0.00  0.00    -0.046 A 
ATOM     10  C   UNL     1       3.263 -10.829   3.318  0.00  0.00    +0.050 A 
ATOM     11  C   UNL     1       5.740 -11.005   3.202  0.00  0.00    +0.044 C 
ENDBRANCH   1   2
BRANCH   1  12
ATOM     12  C   UNL     1      -0.790  -6.524   3.380  0.00  0.00    -0.034 A 
ATOM     13  C   UNL     1      -0.693  -5.594   4.399  0.00  0.00    +0.008 A 
ATOM     14  C   UNL     1      -1.804  -5.277   5.157  0.00  0.00    +0.050 A 
ATOM     15  C   UNL     1      -3.019  -5.891   4.898  0.00  0.00    +0.166 A 
ATOM     16  C   UNL     1      -3.117  -6.827   3.872  0.00  0.00    +0.167 A 
ATOM     17  C   UNL     1      -2.000  -7.137   3.113  0.00  0.00    +0.053 A 
ATOM     18  O   UNL     1      -4.402  -7.283   3.818  0.00  0.00    -0.453 OA
ATOM     19  C   UNL     1      -4.992  -6.920   5.081  0.00  0.00    +0.466 C 
ATOM     20  O   UNL     1      -4.243  -5.759   5.487  0.00  0.00    -0.453 OA
ENDBRANCH   1  12
BRANCH   1  21
ATOM     21  C   UNL     1       0.083  -6.745   1.070  0.00  0.00    +0.110 C 
BRANCH  21  23
ATOM     22  N   UNL     1      -0.559  -4.961  -0.518  0.00  0.00    -0.285 N 
ATOM     23  C   UNL     1      -0.229  -5.308   0.742  0.00  0.00    +0.218 C 
ATOM     24  O   UNL     1      -0.183  -4.464   1.611  0.00  0.00    -0.275 OA
ATOM     25  H   UNL     1      -0.666  -5.645  -1.197  0.00  0.00    +0.155 HD
BRANCH  22  30
ATOM     26  C   UNL     1      -1.323   0.501  -1.847  0.00  0.00    +0.044 C 
ATOM     27  C   UNL     1      -1.120  -0.950  -1.494  0.00  0.00    -0.050 A 
ATOM     28  C   UNL     1      -0.184  -1.303  -0.540  0.00  0.00    +0.005 A 
ATOM     29  C   UNL     1       0.004  -2.632  -0.214  0.00  0.00    +0.023 A 
ATOM     30  C   UNL     1      -0.748  -3.614  -0.845  0.00  0.00    +0.033 A 
ATOM     31  C   UNL     1      -1.688  -3.255  -1.803  0.00  0.00    +0.023 A 
ATOM     32  C   UNL     1      -1.874  -1.924  -2.121  0.00  0.00    +0.005 A 
ENDBRANCH  22  30
ENDBRANCH  21  23
ENDBRANCH   1  21
TORSDOF 5
