REMARK  Name = ZINC45728177
REMARK  8 active torsions:
REMARK  status: ('A' for Active; 'I' for Inactive)
REMARK    1  A    between atoms: C_4  and  C_7
REMARK    2  A    between atoms: C_9  and  C_18
REMARK    3  A    between atoms: N_11  and  C_12
REMARK    4  A    between atoms: N_20  and  N_21
REMARK    5  A    between atoms: C_22  and  C_24
REMARK    6  A    between atoms: C_24  and  C_25
REMARK    7  A    between atoms: C_25  and  C_26
REMARK    8  A    between atoms: C_29  and  C_31
REMARK                            x       y       z     vdW  Elec       q    Type
REMARK                         _______ _______ _______ _____ _____    ______ ____
ROOT
ATOM      1  C   UNL     1       7.218  -1.053  -0.551  0.00  0.00    +0.299 C 
ATOM      2  O   UNL     1       7.673  -0.004  -0.963  0.00  0.00    -0.265 OA
ATOM      3  N   UNL     1       8.030  -2.111  -0.357  0.00  0.00    -0.228 N 
ATOM      4  H   UNL     1       7.666  -2.948  -0.027  0.00  0.00    +0.173 HD
ENDROOT
BRANCH   1   7
ATOM      5  C   UNL     1       3.694  -0.690  -0.050  0.00  0.00    +0.164 A 
ATOM      6  N   UNL     1       4.860  -0.193  -0.412  0.00  0.00    -0.202 NA
ATOM      7  C   UNL     1       5.772  -1.168  -0.262  0.00  0.00    +0.239 A 
ATOM      8  N   UNL     1       5.159  -2.243   0.187  0.00  0.00    -0.139 NA
ATOM      9  N   UNL     1       3.905  -1.981   0.329  0.00  0.00    -0.212 N 
BRANCH   5  13
ATOM     10  C   UNL     1      -0.027   1.361  -0.049  0.00  0.00    +0.000 A 
ATOM     11  C   UNL     1       0.218   0.378   0.893  0.00  0.00    +0.001 A 
ATOM     12  C   UNL     1       1.424  -0.292   0.898  0.00  0.00    +0.011 A 
ATOM     13  C   UNL     1       2.398   0.024  -0.050  0.00  0.00    +0.019 A 
ATOM     14  C   UNL     1       2.145   1.017  -0.997  0.00  0.00    +0.011 A 
ATOM     15  C   UNL     1       0.934   1.679  -0.991  0.00  0.00    +0.001 A 
ENDBRANCH   5  13
BRANCH   9  16
ATOM     16  C   UNL     1       2.928  -2.872   0.790  0.00  0.00    +0.068 A 
ATOM     17  C   UNL     1       1.705  -2.962   0.138  0.00  0.00    +0.028 A 
ATOM     18  C   UNL     1       0.744  -3.841   0.595  0.00  0.00    +0.002 A 
ATOM     19  C   UNL     1       0.997  -4.631   1.702  0.00  0.00    +0.000 A 
ATOM     20  C   UNL     1       2.214  -4.544   2.353  0.00  0.00    +0.002 A 
ATOM     21  C   UNL     1       3.182  -3.671   1.897  0.00  0.00    +0.028 A 
ENDBRANCH   9  16
ENDBRANCH   1   7
BRANCH   3  22
ATOM     22  N   UNL     1       9.399  -2.002  -0.630  0.00  0.00    -0.234 N 
ATOM     23  C   UNL     1      10.212  -3.060  -0.436  0.00  0.00    +0.230 C 
ATOM     24  O   UNL     1       9.757  -4.106  -0.025  0.00  0.00    -0.274 OA
ATOM     25  H   UNL     1       9.763  -1.165  -0.960  0.00  0.00    +0.173 HD
BRANCH  23  26
ATOM     26  C   UNL     1      11.685  -2.943  -0.731  0.00  0.00    +0.106 C 
BRANCH  26  27
ATOM     27  C   UNL     1      12.373  -4.275  -0.428  0.00  0.00    +0.105 C 
BRANCH  27  28
ATOM     28  C   UNL     1      13.846  -4.158  -0.723  0.00  0.00    +0.197 A 
ATOM     29  N   UNL     1      14.761  -3.788   0.129  0.00  0.00    -0.221 NA
ATOM     30  C   UNL     1      15.955  -3.800  -0.483  0.00  0.00    +0.161 A 
ATOM     31  C   UNL     1      15.753  -4.197  -1.766  0.00  0.00    +0.158 A 
ATOM     32  O   UNL     1      14.428  -4.424  -1.901  0.00  0.00    -0.440 OA
BRANCH  31  33
ATOM     33  C   UNL     1      16.785  -4.356  -2.812  0.00  0.00    +0.054 A 
ATOM     34  C   UNL     1      16.846  -5.530  -3.564  0.00  0.00    +0.014 A 
ATOM     35  C   UNL     1      17.811  -5.672  -4.539  0.00  0.00    +0.001 A 
ATOM     36  C   UNL     1      18.719  -4.654  -4.773  0.00  0.00    +0.003 A 
ATOM     37  C   UNL     1      18.667  -3.488  -4.032  0.00  0.00    +0.039 A 
ATOM     38  C   UNL     1      17.701  -3.329  -3.057  0.00  0.00    +0.134 A 
ATOM     39  F   UNL     1      17.646  -2.187  -2.337  0.00  0.00    -0.205 F 
ENDBRANCH  31  33
ENDBRANCH  27  28
ENDBRANCH  26  27
ENDBRANCH  23  26
ENDBRANCH   3  22
TORSDOF 8
