REMARK  Name = ZINC18193265
REMARK  9 active torsions:
REMARK  status: ('A' for Active; 'I' for Inactive)
REMARK    1  A    between atoms: C_9  and  O_11
REMARK    2  A    between atoms: O_11  and  C_12
REMARK    3  A    between atoms: C_12  and  C_13
REMARK    4  A    between atoms: N_15  and  N_16
REMARK    5  A    between atoms: C_17  and  C_18
REMARK    6  A    between atoms: C_21  and  O_25
REMARK    7  A    between atoms: O_25  and  C_26
REMARK    8  A    between atoms: C_26  and  C_27
REMARK    9  A    between atoms: C_32  and  C_33
REMARK                            x       y       z     vdW  Elec       q    Type
REMARK                         _______ _______ _______ _____ _____    ______ ____
ROOT
ATOM      1  N   UNL     1      -1.270  11.487   0.081  0.00  0.00    -0.188 NA
ATOM      2  C   UNL     1      -2.340  12.221   0.095  0.00  0.00    +0.138 C 
ENDROOT
BRANCH   2   3
ATOM      3  C   UNL     1      -2.225  13.691   0.103  0.00  0.00    -0.004 A 
ATOM      4  C   UNL     1      -0.965  14.296   0.101  0.00  0.00    +0.013 A 
ATOM      5  C   UNL     1      -0.862  15.670   0.104  0.00  0.00    +0.047 A 
ATOM      6  C   UNL     1      -2.008  16.454   0.119  0.00  0.00    +0.135 A 
ATOM      7  C   UNL     1      -3.263  15.858   0.126  0.00  0.00    +0.060 A 
ATOM      8  C   UNL     1      -3.375  14.483   0.118  0.00  0.00    +0.028 A 
ATOM      9 BR   UNL     1      -4.819  16.932   0.147  0.00  0.00    -0.046 Br
BRANCH   6  10
ATOM     10  O   UNL     1      -1.902  17.808   0.127  0.00  0.00    -0.486 OA
BRANCH  10  11
ATOM     11  C   UNL     1      -0.582  18.356   0.119  0.00  0.00    +0.265 C 
BRANCH  11  12
ATOM     12  C   UNL     1      -0.661  19.860   0.130  0.00  0.00    +0.007 A 
ATOM     13  C   UNL     1      -1.890  20.488   0.139  0.00  0.00    +0.008 A 
ATOM     14  C   UNL     1      -1.965  21.869   0.153  0.00  0.00    +0.000 A 
ATOM     15  C   UNL     1      -0.810  22.631   0.149  0.00  0.00    +0.001 A 
ATOM     16  C   UNL     1       0.425  22.017   0.134  0.00  0.00    +0.019 A 
ATOM     17  C   UNL     1       0.508  20.623   0.125  0.00  0.00    +0.058 A 
BRANCH  17  18
ATOM     18  C   UNL     1       1.787  19.979   0.109  0.00  0.00    +0.100 C 
ATOM     19  N   UNL     1       2.801  19.468   0.097  0.00  0.00    -0.191 NA
ENDBRANCH  17  18
ENDBRANCH  11  12
ENDBRANCH  10  11
ENDBRANCH   6  10
ENDBRANCH   2   3
BRANCH   1  22
ATOM     20  C   UNL     1      -0.267   9.328   0.058  0.00  0.00    +0.270 C 
ATOM     21  O   UNL     1       0.827   9.851   0.051  0.00  0.00    -0.270 OA
ATOM     22  N   UNL     1      -1.379  10.090   0.073  0.00  0.00    -0.204 N 
ATOM     23  H   UNL     1      -2.254   9.672   0.079  0.00  0.00    +0.177 HD
BRANCH  20  24
ATOM     24  C   UNL     1      -0.385   7.825   0.050  0.00  0.00    +0.328 C 
BRANCH  24  25
ATOM     25  O   UNL     1       0.921   7.245   0.035  0.00  0.00    -0.467 OA
BRANCH  25  34
ATOM     26  C   UNL     1      -0.013   1.076   0.008  0.00  0.00    +0.001 A 
ATOM     27  C   UNL     1      -1.233   1.747   0.017  0.00  0.00    +0.002 A 
ATOM     28  C   UNL     1      -1.287   3.107   0.031  0.00  0.00    +0.028 A 
ATOM     29  C   UNL     1      -0.095   3.852   0.024  0.00  0.00    +0.075 A 
ATOM     30  C   UNL     1       1.145   3.167   0.008  0.00  0.00    +0.001 A 
ATOM     31  C   UNL     1       1.163   1.764   0.000  0.00  0.00    +0.010 A 
ATOM     32  C   UNL     1       2.340   3.915   0.001  0.00  0.00    +0.015 A 
ATOM     33  C   UNL     1       2.251   5.275   0.011  0.00  0.00    +0.068 A 
ATOM     34  C   UNL     1       0.994   5.892   0.026  0.00  0.00    +0.216 A 
ATOM     35  N   UNL     1      -0.118   5.189   0.032  0.00  0.00    -0.213 NA
ENDBRANCH  25  34
ENDBRANCH  24  25
ENDBRANCH  20  24
ENDBRANCH   1  22
TORSDOF 9
