REMARK  Name = ZINC35464960
REMARK  10 active torsions:
REMARK  status: ('A' for Active; 'I' for Inactive)
REMARK    1  A    between atoms: C_1  and  C_2
REMARK    2  A    between atoms: C_7  and  C_33
REMARK    3  A    between atoms: C_8  and  C_10
REMARK    4  A    between atoms: C_10  and  C_11
REMARK    5  A    between atoms: C_12  and  O_24
REMARK    6  A    between atoms: C_15  and  C_22
REMARK    7  A    between atoms: C_16  and  O_21
REMARK    8  A    between atoms: C_22  and  O_23
REMARK    9  A    between atoms: C_28  and  C_29
REMARK   10  A    between atoms: C_28  and  C_30
REMARK                            x       y       z     vdW  Elec       q    Type
REMARK                         _______ _______ _______ _____ _____    ______ ____
ROOT
ATOM      1  C   UNL     1      -0.461   1.222  -0.355  0.00  0.00    +0.039 C 
ATOM      2  C   UNL     1      -0.512  -0.284  -0.372  0.00  0.00    -0.073 C 
ATOM      3  C   UNL     1      -0.884  -0.867  -1.466  0.00  0.00    -0.027 C 
ATOM      4  C   UNL     1      -0.996  -2.352  -1.627  0.00  0.00    +0.032 C 
ATOM      5  C   UNL     1      -0.229  -3.076  -0.514  0.00  0.00    +0.016 C 
ATOM      6  C   UNL     1      -0.621  -2.452   0.832  0.00  0.00    -0.021 C 
ATOM      7  C   UNL     1      -0.124  -1.015   0.876  0.00  0.00    +0.023 C 
ATOM      8  C   UNL     1       0.046  -3.224   1.974  0.00  0.00    +0.007 C 
ATOM      9  C   UNL     1      -0.383  -4.690   1.937  0.00  0.00    +0.002 C 
ATOM     10  C   UNL     1       0.052  -5.303   0.603  0.00  0.00    +0.018 C 
ATOM     11  C   UNL     1      -0.623  -4.555  -0.548  0.00  0.00    +0.073 C 
ATOM     12  C   UNL     1      -0.197  -5.163  -1.885  0.00  0.00    +0.023 C 
ATOM     13  C   UNL     1      -2.142  -2.469   0.991  0.00  0.00    +0.012 C 
ENDROOT
BRANCH  11  14
ATOM     14  C   UNL     1      -2.117  -4.678  -0.399  0.00  0.00    +0.362 C 
ATOM     15  O   UNL     1      -2.856  -4.168  -1.225  0.00  0.00    -0.246 OA
ATOM     16  O   UNL     1      -2.588  -5.287   0.546  0.00  0.00    -0.246 OA
ENDBRANCH  11  14
BRANCH   7  17
ATOM     17  C   UNL     1      -0.734  -0.305   2.087  0.00  0.00    +0.049 C 
BRANCH  17  18
ATOM     18  C   UNL     1      -0.087  -0.836   3.368  0.00  0.00    +0.129 C 
ATOM     19  C   UNL     1       1.427  -1.098   3.310  0.00  0.00    +0.172 C 
ATOM     20  C   UNL     1       2.135   0.020   4.035  0.00  0.00    +0.011 C 
ATOM     21  C   UNL     1       1.691   0.449   5.190  0.00  0.00    -0.015 C 
ATOM     22  C   UNL     1       0.465  -0.170   5.815  0.00  0.00    +0.174 C 
ATOM     23  C   UNL     1      -0.609  -0.333   4.727  0.00  0.00    +0.186 C 
ATOM     24  O   UNL     1      -0.867  -1.652   4.244  0.00  0.00    -0.359 OA
BRANCH  22  25
ATOM     25  O   UNL     1       0.797  -1.448   6.362  0.00  0.00    -0.385 OA
ATOM     26  H   UNL     1       1.479  -1.417   7.046  0.00  0.00    +0.210 HD
ENDBRANCH  22  25
BRANCH  19  27
ATOM     27  O   UNL     1       1.722  -2.346   3.940  0.00  0.00    -0.385 OA
ATOM     28  H   UNL     1       2.662  -2.574   3.939  0.00  0.00    +0.210 HD
ENDBRANCH  19  27
BRANCH  21  29
ATOM     29  C   UNL     1       2.411   1.566   5.901  0.00  0.00    +0.189 C 
BRANCH  29  30
ATOM     30  O   UNL     1       3.532   1.983   5.120  0.00  0.00    -0.391 OA
ATOM     31  H   UNL     1       4.043   2.701   5.517  0.00  0.00    +0.210 HD
ENDBRANCH  29  30
ENDBRANCH  21  29
ENDBRANCH  17  18
ENDBRANCH   7  17
TORSDOF 7
