REMARK  Name = ZINC01772187
REMARK  12 active torsions:
REMARK  status: ('A' for Active; 'I' for Inactive)
REMARK    1  A    between atoms: C_1  and  C_2
REMARK    2  A    between atoms: C_2  and  O_3
REMARK    3  A    between atoms: O_3  and  C_4
REMARK    4  A    between atoms: C_4  and  C_6
REMARK    5  A    between atoms: C_7  and  N_36
REMARK    6  A    between atoms: C_12  and  C_13
REMARK    7  A    between atoms: C_16  and  C_19
REMARK    8  A    between atoms: C_22  and  C_32
REMARK    9  A    between atoms: C_23  and  C_25
REMARK   10  A    between atoms: C_28  and  C_31
REMARK   11  A    between atoms: C_32  and  O_34
REMARK   12  A    between atoms: O_34  and  C_35
REMARK                            x       y       z     vdW  Elec       q    Type
REMARK                         _______ _______ _______ _____ _____    ______ ____
ROOT
ATOM      1  C   UNL     1      -4.251   2.931   6.735  0.00  0.00    +0.087 C 
ATOM      2  C   UNL     1      -5.511   3.002   6.245  0.00  0.00    +0.115 C 
ATOM      3  N   UNL     1      -5.939   3.975   5.337  0.00  0.00    -0.257 N 
ATOM      4  C   UNL     1      -7.197   4.034   4.857  0.00  0.00    +0.271 A 
ATOM      5  O   UNL     1      -8.034   3.221   5.202  0.00  0.00    -0.266 OA
ATOM      6  C   UNL     1      -7.533   5.101   3.906  0.00  0.00    +0.079 A 
ATOM      7  C   UNL     1      -8.713   5.368   3.291  0.00  0.00    +0.028 C 
ATOM      8  S   UNL     1      -5.970   5.955   3.779  0.00  0.00    -0.065 S 
ATOM      9  C   UNL     1      -5.042   4.929   4.902  0.00  0.00    +0.100 A 
ATOM     10  C   UNL     1      -3.736   4.992   5.299  0.00  0.00    +0.079 C 
ATOM     11  C   UNL     1      -3.231   3.957   6.285  0.00  0.00    +0.099 C 
ENDROOT
BRANCH   7  12
ATOM     12  C   UNL     1      -8.873   6.605   2.514  0.00  0.00    -0.024 A 
ATOM     13  C   UNL     1      -7.995   7.677   2.708  0.00  0.00    +0.008 A 
ATOM     14  C   UNL     1      -8.148   8.831   1.970  0.00  0.00    +0.004 A 
ATOM     15  C   UNL     1      -9.175   8.936   1.047  0.00  0.00    -0.050 A 
ATOM     16  C   UNL     1     -10.051   7.883   0.854  0.00  0.00    +0.004 A 
ATOM     17  C   UNL     1      -9.908   6.719   1.579  0.00  0.00    +0.008 A 
ATOM     18  C   UNL     1      -9.339  10.204   0.250  0.00  0.00    +0.044 C 
ENDBRANCH   7  12
BRANCH  11  19
ATOM     19  C   UNL     1      -2.075   3.227   5.651  0.00  0.00    -0.035 A 
ATOM     20  C   UNL     1      -0.815   3.305   6.215  0.00  0.00    +0.005 A 
ATOM     21  C   UNL     1       0.244   2.634   5.633  0.00  0.00    +0.003 A 
ATOM     22  C   UNL     1       0.045   1.886   4.488  0.00  0.00    -0.050 A 
ATOM     23  C   UNL     1      -1.214   1.813   3.921  0.00  0.00    +0.003 A 
ATOM     24  C   UNL     1      -2.275   2.479   4.506  0.00  0.00    +0.005 A 
ATOM     25  C   UNL     1       1.200   1.155   3.855  0.00  0.00    +0.044 C 
ENDBRANCH  11  19
BRANCH   2  26
ATOM     26  N   UNL     1      -6.419   2.066   6.663  0.00  0.00    -0.344 N 
ATOM     27  H   UNL     1      -7.325   2.334   6.883  0.00  0.00    +0.144 HD
ATOM     28  H   UNL     1      -6.157   1.135   6.740  0.00  0.00    +0.144 HD
ENDBRANCH   2  26
BRANCH   1  29
ATOM     29  C   UNL     1      -3.895   1.923   7.645  0.00  0.00    +0.339 C 
ATOM     30  O   UNL     1      -4.741   1.149   8.057  0.00  0.00    -0.245 OA
BRANCH  29  31
ATOM     31  O   UNL     1      -2.616   1.812   8.064  0.00  0.00    -0.462 OA
BRANCH  31  33
ATOM     32  C   UNL     1      -0.838   0.796   9.346  0.00  0.00    +0.048 C 
ATOM     33  C   UNL     1      -2.326   0.764   8.990  0.00  0.00    +0.229 C 
ENDBRANCH  31  33
ENDBRANCH  29  31
ENDBRANCH   1  29
BRANCH  10  34
ATOM     34  C   UNL     1      -2.887   5.993   4.808  0.00  0.00    +0.338 C 
ATOM     35  O   UNL     1      -3.310   6.817   4.016  0.00  0.00    -0.245 OA
BRANCH  34  36
ATOM     36  O   UNL     1      -1.599   6.044   5.211  0.00  0.00    -0.465 OA
ATOM     37  C   UNL     1      -0.790   7.090   4.670  0.00  0.00    +0.280 C 
ENDBRANCH  34  36
ENDBRANCH  10  34
TORSDOF 8
