REMARK  Name = ZINC28963811
REMARK  6 active torsions:
REMARK  status: ('A' for Active; 'I' for Inactive)
REMARK    1  A    between atoms: C_1  and  N_2
REMARK    2  A    between atoms: N_2  and  C_3
REMARK    3  A    between atoms: N_2  and  C_4
REMARK    4  A    between atoms: C_4  and  C_5
REMARK    5  A    between atoms: C_12  and  C_21
REMARK    6  A    between atoms: C_13  and  C_14
REMARK                            x       y       z     vdW  Elec       q    Type
REMARK                         _______ _______ _______ _____ _____    ______ ____
ROOT
ATOM      1  C   UNL     1      -0.718   1.572   1.248  0.00  0.00    -0.059 A 
ATOM      2  C   UNL     1      -1.735   0.799   1.829  0.00  0.00    +0.020 A 
ATOM      3  C   UNL     1      -2.368   1.234   2.941  0.00  0.00    +0.093 A 
ATOM      4  N   UNL     1      -2.030   2.424   3.512  0.00  0.00    -0.297 N 
ATOM      5  C   UNL     1      -1.041   3.201   2.969  0.00  0.00    +0.139 A 
ATOM      6  C   UNL     1      -0.368   2.760   1.813  0.00  0.00    +0.048 A 
ATOM      7  N   UNL     1      -0.906   4.297   3.707  0.00  0.00    -0.227 NA
ATOM      8  C   UNL     1      -1.775   4.266   4.720  0.00  0.00    +0.099 A 
ATOM      9  C   UNL     1      -2.505   3.087   4.623  0.00  0.00    +0.100 A 
ENDROOT
BRANCH   9  10
ATOM     10  C   UNL     1      -3.572   2.635   5.528  0.00  0.00    +0.095 A 
ATOM     11  C   UNL     1      -4.563   1.749   5.076  0.00  0.00    +0.050 A 
ATOM     12  C   UNL     1      -5.542   1.351   5.963  0.00  0.00    +0.116 A 
ATOM     13  N   UNL     1      -5.524   1.819   7.204  0.00  0.00    -0.223 NA
ATOM     14  C   UNL     1      -4.580   2.658   7.605  0.00  0.00    +0.213 A 
ATOM     15  N   UNL     1      -3.619   3.065   6.791  0.00  0.00    -0.213 NA
ATOM     16  N   UNL     1      -4.600   3.121   8.909  0.00  0.00    -0.327 N 
ATOM     17  H   UNL     1      -3.824   3.818   9.257  0.00  0.00    +0.145 HD
ATOM     18  H   UNL     1      -5.393   2.792   9.597  0.00  0.00    +0.145 HD
ENDBRANCH   9  10
BRANCH   8  19
ATOM     19  C   UNL     1      -1.935   5.307   5.764  0.00  0.00    +0.004 A 
ATOM     20  C   UNL     1      -0.822   6.007   6.229  0.00  0.00    +0.013 A 
ATOM     21  C   UNL     1      -0.975   6.975   7.199  0.00  0.00    +0.040 A 
ATOM     22  C   UNL     1      -2.232   7.252   7.714  0.00  0.00    +0.137 A 
ATOM     23  C   UNL     1      -3.341   6.558   7.255  0.00  0.00    +0.054 A 
ATOM     24  C   UNL     1      -3.198   5.591   6.279  0.00  0.00    +0.028 A 
ATOM     25 BR   UNL     1      -5.053   6.940   7.962  0.00  0.00    -0.047 Br
ATOM     26  F   UNL     1      -2.377   8.200   8.665  0.00  0.00    -0.204 F 
ENDBRANCH   8  19
BRANCH   1  27
ATOM     27  C   UNL     1      -0.013   1.086   0.008  0.00  0.00    -0.044 C 
BRANCH  27  29
ATOM     28  C   UNL     1      -0.640   3.036  -1.283  0.00  0.00    -0.096 C 
ATOM     29  N   UNL     1      -0.723   1.572  -1.182  0.00  0.00    +0.379 N 
ATOM     30  C   UNL     1      -0.211   0.930  -2.400  0.00  0.00    -0.096 C 
ATOM     31  H   UNL     1      -1.784   1.301  -1.077  0.00  0.00    -0.082 HD
ENDBRANCH  27  29
ENDBRANCH   1  27
TORSDOF 4
