REMARK  Name = ZINC11785067
REMARK  9 active torsions:
REMARK  status: ('A' for Active; 'I' for Inactive)
REMARK    1  A    between atoms: C_1  and  N_73
REMARK    2  A    between atoms: C_2  and  C_3
REMARK    3  A    between atoms: C_2  and  N_73
REMARK    4  A    between atoms: C_7  and  O_9
REMARK    5  A    between atoms: O_9  and  C_10
REMARK    6  A    between atoms: C_10  and  C_11
REMARK    7  A    between atoms: C_18  and  C_20
REMARK    8  A    between atoms: C_29  and  C_30
REMARK    9  A    between atoms: C_29  and  N_73
REMARK                            x       y       z     vdW  Elec       q    Type
REMARK                         _______ _______ _______ _____ _____    ______ ____
ROOT
ATOM      1  C   UNL     1      -0.993   2.078  -0.212  0.00  0.00    -0.060 A 
ATOM      2  C   UNL     1      -1.012   3.442   0.018  0.00  0.00    +0.002 A 
ATOM      3  C   UNL     1       0.167   4.121   0.260  0.00  0.00    +0.004 A 
ATOM      4  C   UNL     1       1.368   3.439   0.278  0.00  0.00    +0.045 A 
ATOM      5  C   UNL     1       1.390   2.070   0.052  0.00  0.00    +0.121 A 
ATOM      6  C   UNL     1       0.205   1.390  -0.190  0.00  0.00    +0.047 A 
ENDROOT
BRANCH   1   7
ATOM      7  C   UNL     1      -2.279   1.341  -0.482  0.00  0.00    -0.043 C 
BRANCH   7   9
ATOM      8  C   UNL     1      -3.268   2.009   1.625  0.00  0.00    -0.095 C 
ATOM      9  N   UNL     1      -2.832   0.861   0.802  0.00  0.00    +0.383 N 
ATOM     10  H   UNL     1      -2.101   0.346   1.308  0.00  0.00    -0.081 HD
BRANCH   9  11
ATOM     11  C   UNL     1      -3.973  -0.044   0.554  0.00  0.00    -0.043 C 
BRANCH  11  12
ATOM     12  C   UNL     1      -4.375  -0.689   1.856  0.00  0.00    -0.063 A 
ATOM     13  C   UNL     1      -5.341  -0.080   2.655  0.00  0.00    +0.004 A 
ATOM     14  C   UNL     1      -5.727  -0.635   3.836  0.00  0.00    +0.028 A 
ATOM     15  C   UNL     1      -5.145  -1.841   4.263  0.00  0.00    +0.071 A 
ATOM     16  C   UNL     1      -4.163  -2.458   3.449  0.00  0.00    +0.001 A 
ATOM     17  C   UNL     1      -3.793  -1.860   2.233  0.00  0.00    +0.011 A 
ATOM     18  C   UNL     1      -3.582  -3.666   3.878  0.00  0.00    +0.011 A 
ATOM     19  C   UNL     1      -3.994  -4.192   5.069  0.00  0.00    +0.020 A 
ATOM     20  C   UNL     1      -4.965  -3.534   5.821  0.00  0.00    +0.111 A 
ATOM     21  N   UNL     1      -5.504  -2.409   5.418  0.00  0.00    -0.255 NA
ENDBRANCH  11  12
ENDBRANCH   9  11
ENDBRANCH   7   9
ENDBRANCH   1   7
BRANCH   5  22
ATOM     22  O   UNL     1       2.570   1.397   0.070  0.00  0.00    -0.492 OA
BRANCH  22  23
ATOM     23  C   UNL     1       3.750   2.161   0.326  0.00  0.00    +0.234 C 
BRANCH  23  24
ATOM     24  C   UNL     1       4.970   1.238   0.306  0.00  0.00    +0.044 C 
ATOM     25  C   UNL     1       6.244   2.073   0.455  0.00  0.00    +0.010 C 
ATOM     26  C   UNL     1       7.467   1.154   0.403  0.00  0.00    +0.019 C 
ATOM     27  C   UNL     1       7.402   0.157   1.564  0.00  0.00    +0.108 C 
ATOM     28  N   UNL     1       6.114  -0.548   1.511  0.00  0.00    -0.296 N 
ATOM     29  C   UNL     1       4.877   0.243   1.466  0.00  0.00    +0.115 C 
ATOM     30  C   UNL     1       6.069  -1.895   1.504  0.00  0.00    +0.267 C 
ATOM     31  O   UNL     1       4.999  -2.468   1.569  0.00  0.00    -0.268 OA
BRANCH  30  32
ATOM     32  C   UNL     1       7.320  -2.676   1.416  0.00  0.00    +0.150 A 
ATOM     33  C   UNL     1       7.446  -4.080   1.518  0.00  0.00    +0.005 A 
ATOM     34  C   UNL     1       8.763  -4.342   1.377  0.00  0.00    +0.040 A 
ATOM     35  N   UNL     1       9.388  -3.155   1.208  0.00  0.00    -0.281 N 
ATOM     36  H   UNL     1      10.374  -3.040   1.082  0.00  0.00    +0.189 HD
ATOM     37  N   UNL     1       8.535  -2.196   1.234  0.00  0.00    -0.169 NA
ATOM     38  C   UNL     1       9.010  -5.832   1.464  0.00  0.00    +0.055 C 
ATOM     39  C   UNL     1       7.731  -6.411   2.114  0.00  0.00    +0.011 C 
ATOM     40  C   UNL     1       6.670  -5.359   1.720  0.00  0.00    +0.039 C 
ENDBRANCH  30  32
ENDBRANCH  23  24
ENDBRANCH  22  23
ENDBRANCH   5  22
TORSDOF 8
