REMARK  Name = ZINC31664042
REMARK  4 active torsions:
REMARK  status: ('A' for Active; 'I' for Inactive)
REMARK    1  A    between atoms: C_4  and  C_10
REMARK    2  A    between atoms: C_6  and  N_7
REMARK    3  A    between atoms: C_10  and  O_12
REMARK    4  A    between atoms: O_12  and  C_13
REMARK                            x       y       z     vdW  Elec       q    Type
REMARK                         _______ _______ _______ _____ _____    ______ ____
ROOT
ATOM      1  C   UNL     1      -0.017   1.379   0.010  0.00  0.00    +0.034 A 
ATOM      2  C   UNL     1       1.168   2.094   0.002  0.00  0.00    +0.017 A 
ATOM      3  C   UNL     1       2.378   1.430  -0.013  0.00  0.00    +0.027 A 
ATOM      4  C   UNL     1       2.404   0.033  -0.021  0.00  0.00    +0.074 A 
ATOM      5  C   UNL     1       1.204  -0.681  -0.013  0.00  0.00    +0.048 A 
ATOM      6  C   UNL     1       0.002  -0.004   0.002  0.00  0.00    +0.127 A 
ATOM      7  I   UNL     1       4.171   2.514  -0.025  0.00  0.00    -0.043 I 
ENDROOT
BRANCH   6   8
ATOM      8  N   UNL     1      -1.271  -0.760   0.010  0.00  0.00    +0.056 N 
ATOM      9  O   UNL     1      -2.325  -0.168   0.023  0.00  0.00    -0.126 OA
ATOM     10  O   UNL     1      -1.256  -1.968   0.003  0.00  0.00    -0.126 OA
ENDBRANCH   6   8
BRANCH   4  11
ATOM     11  C   UNL     1       3.694  -0.685  -0.037  0.00  0.00    +0.341 C 
ATOM     12  O   UNL     1       4.736  -0.061  -0.044  0.00  0.00    -0.245 OA
BRANCH  11  13
ATOM     13  O   UNL     1       3.716  -2.032  -0.045  0.00  0.00    -0.458 OA
BRANCH  13  14
ATOM     14  C   UNL     1       4.999  -2.660  -0.061  0.00  0.00    +0.177 C 
ATOM     15  C   UNL     1       5.471  -2.892   1.376  0.00  0.00    +0.044 C 
ATOM     16  C   UNL     1       6.845  -3.565   1.359  0.00  0.00    +0.004 C 
ATOM     17  C   UNL     1       6.747  -4.907   0.631  0.00  0.00    +0.000 C 
ATOM     18  C   UNL     1       6.274  -4.676  -0.805  0.00  0.00    +0.004 C 
ATOM     19  C   UNL     1       4.900  -4.003  -0.788  0.00  0.00    +0.044 C 
ENDBRANCH  13  14
ENDBRANCH  11  13
ENDBRANCH   4  11
TORSDOF 4
