REMARK  Name = ZINC63798196
REMARK  10 active torsions:
REMARK  status: ('A' for Active; 'I' for Inactive)
REMARK    1  A    between atoms: C_1  and  C_2
REMARK    2  A    between atoms: C_2  and  C_3
REMARK    3  A    between atoms: N_5  and  C_6
REMARK    4  A    between atoms: C_9  and  C_12
REMARK    5  A    between atoms: C_12  and  C_14
REMARK    6  A    between atoms: C_14  and  S_15
REMARK    7  A    between atoms: S_15  and  C_16
REMARK    8  A    between atoms: C_19  and  C_28
REMARK    9  A    between atoms: N_20  and  C_21
REMARK   10  A    between atoms: C_21  and  C_22
REMARK                            x       y       z     vdW  Elec       q    Type
REMARK                         _______ _______ _______ _____ _____    ______ ____
ROOT
ATOM      1  C   UNL     1       5.117  -6.551  -7.981  0.00  0.00    +0.192 A 
ATOM      2  N   UNL     1       4.515  -7.391  -7.152  0.00  0.00    -0.122 NA
ATOM      3  N   UNL     1       4.707  -8.603  -7.535  0.00  0.00    -0.129 NA
ATOM      4  C   UNL     1       5.445  -8.614  -8.635  0.00  0.00    +0.163 A 
ATOM      5  N   UNL     1       5.720  -7.294  -8.949  0.00  0.00    -0.300 N 
ENDROOT
BRANCH   4   6
ATOM      6  C   UNL     1       5.864  -9.747  -9.349  0.00  0.00    +0.025 C 
ATOM      7  C   UNL     1       5.504 -11.074  -9.112  0.00  0.00    +0.006 A 
ATOM      8  C   UNL     1       4.665 -11.677  -8.151  0.00  0.00    +0.010 A 
ATOM      9  C   UNL     1       4.494 -13.024  -8.156  0.00  0.00    +0.001 A 
ATOM     10  C   UNL     1       5.132 -13.838  -9.094  0.00  0.00    +0.002 A 
ATOM     11  C   UNL     1       5.952 -13.328 -10.044  0.00  0.00    +0.026 A 
ATOM     12  C   UNL     1       6.179 -11.928 -10.103  0.00  0.00    +0.043 A 
ATOM     13  N   UNL     1       6.917 -11.197 -10.915  0.00  0.00    -0.380 N 
ATOM     14  C   UNL     1       6.795  -9.785 -10.541  0.00  0.00    +0.152 C 
ATOM     15  H   UNL     1       7.453 -11.540 -11.648  0.00  0.00    +0.160 HD
ENDBRANCH   4   6
BRANCH   1  16
ATOM     16  S   UNL     1       5.129  -4.793  -7.858  0.00  0.00    -0.078 S 
BRANCH  16  17
ATOM     17  C   UNL     1       4.156  -4.452  -6.366  0.00  0.00    +0.157 C 
BRANCH  17  18
ATOM     18  C   UNL     1       4.086  -2.963  -6.141  0.00  0.00    +0.173 C 
ATOM     19  O   UNL     1       4.638  -2.207  -6.913  0.00  0.00    -0.291 OA
BRANCH  18  23
ATOM     20  C   UNL     1       1.961  -1.419  -2.819  0.00  0.00    +0.033 A 
ATOM     21  C   UNL     1       2.594  -0.549  -3.702  0.00  0.00    +0.024 A 
ATOM     22  C   UNL     1       3.283  -1.045  -4.779  0.00  0.00    +0.013 A 
ATOM     23  C   UNL     1       3.349  -2.428  -4.989  0.00  0.00    +0.018 A 
ATOM     24  C   UNL     1       2.711  -3.299  -4.098  0.00  0.00    +0.013 A 
ATOM     25  C   UNL     1       2.029  -2.795  -3.021  0.00  0.00    +0.024 A 
BRANCH  20  28
ATOM     26  C   UNL     1       1.267  -1.577  -0.554  0.00  0.00    +0.217 C 
ATOM     27  O   UNL     1       1.807  -2.660  -0.475  0.00  0.00    -0.275 OA
ATOM     28  N   UNL     1       1.262  -0.911  -1.726  0.00  0.00    -0.286 N 
ATOM     29  H   UNL     1       0.772  -0.078  -1.808  0.00  0.00    +0.155 HD
BRANCH  26  31
ATOM     30  C   UNL     1       0.750  -1.929   1.846  0.00  0.00    +0.013 C 
ATOM     31  C   UNL     1       0.602  -0.977   0.657  0.00  0.00    +0.093 C 
ENDBRANCH  26  31
ENDBRANCH  20  28
ENDBRANCH  18  23
ENDBRANCH  17  18
ENDBRANCH  16  17
ENDBRANCH   1  16
BRANCH   5  32
ATOM     32  C   UNL     1       6.501  -6.800 -10.086  0.00  0.00    +0.157 C 
BRANCH  32  33
ATOM     33  C   UNL     1       5.596  -6.682 -11.313  0.00  0.00    +0.138 C 
ATOM     34  C   UNL     1       6.430  -6.247 -12.538  0.00  0.00    +0.035 C 
ATOM     35  C   UNL     1       5.471  -5.258 -13.255  0.00  0.00    +0.031 C 
ATOM     36  C   UNL     1       4.753  -4.614 -12.043  0.00  0.00    +0.160 C 
ATOM     37  O   UNL     1       4.600  -5.678 -11.087  0.00  0.00    -0.375 OA
ENDBRANCH  32  33
ENDBRANCH   5  32
TORSDOF 9
