REMARK  Name = ZINC32810331
REMARK  7 active torsions:
REMARK  status: ('A' for Active; 'I' for Inactive)
REMARK    1  A    between atoms: C_4  and  S_7
REMARK    2  A    between atoms: S_7  and  N_10
REMARK    3  A    between atoms: N_10  and  C_11
REMARK    4  A    between atoms: N_10  and  C_17
REMARK    5  A    between atoms: C_11  and  C_12
REMARK    6  A    between atoms: C_17  and  C_18
REMARK    7  A    between atoms: N_20  and  C_21
REMARK                            x       y       z     vdW  Elec       q    Type
REMARK                         _______ _______ _______ _____ _____    ______ ____
ROOT
ATOM      1  C   UNL     1      -8.536   4.309   2.888  0.00  0.00    +0.233 C 
ATOM      2  O   UNL     1      -7.879   5.329   2.887  0.00  0.00    -0.274 OA
ATOM      3  N   UNL     1      -8.068   3.206   2.272  0.00  0.00    -0.284 N 
ATOM      4  H   UNL     1      -8.695   2.305   2.207  0.00  0.00    +0.155 HD
ENDROOT
BRANCH   3   5
ATOM      5  C   UNL     1      -6.783   3.207   1.714  0.00  0.00    +0.037 A 
ATOM      6  C   UNL     1      -6.279   4.362   1.132  0.00  0.00    +0.027 A 
ATOM      7  C   UNL     1      -5.012   4.364   0.581  0.00  0.00    +0.051 A 
ATOM      8  C   UNL     1      -4.240   3.215   0.608  0.00  0.00    +0.167 A 
ATOM      9  C   UNL     1      -4.742   2.054   1.192  0.00  0.00    +0.169 A 
ATOM     10  C   UNL     1      -6.013   2.053   1.744  0.00  0.00    +0.072 A 
ATOM     11  O   UNL     1      -3.800   1.070   1.091  0.00  0.00    -0.447 OA
ATOM     12  C   UNL     1      -2.572   1.746   0.789  0.00  0.00    +0.254 C 
ATOM     13  O   UNL     1      -2.981   2.959   0.141  0.00  0.00    -0.448 OA
ATOM     14  C   UNL     1      -1.721   0.902  -0.154  0.00  0.00    +0.093 C 
ATOM     15  C   UNL     1      -0.429   1.652  -0.488  0.00  0.00    +0.008 C 
ATOM     16  C   UNL     1       0.343   1.936   0.803  0.00  0.00    +0.000 C 
ATOM     17  C   UNL     1      -0.514   2.802   1.729  0.00  0.00    +0.008 C 
ATOM     18  C   UNL     1      -1.808   2.058   2.071  0.00  0.00    +0.093 C 
ENDBRANCH   3   5
BRANCH   1  19
ATOM     19  C   UNL     1      -9.875   4.276   3.578  0.00  0.00    +0.205 C 
BRANCH  19  20
ATOM     20  N   UNL     1     -10.154   5.589   4.166  0.00  0.00    -0.160 NA
BRANCH  20  21
ATOM     21  S   UNL     1     -11.056   6.696   3.328  0.00  0.00    +0.062 S 
ATOM     22  O   UNL     1     -10.701   7.976   3.834  0.00  0.00    -0.153 OA
ATOM     23  O   UNL     1     -10.937   6.361   1.953  0.00  0.00    -0.153 OA
BRANCH  21  27
ATOM     24  C   UNL     1     -15.389   6.019   4.452  0.00  0.00    +0.000 A 
ATOM     25  C   UNL     1     -14.614   6.899   5.185  0.00  0.00    +0.002 A 
ATOM     26  C   UNL     1     -13.291   7.106   4.842  0.00  0.00    +0.028 A 
ATOM     27  C   UNL     1     -12.743   6.433   3.766  0.00  0.00    +0.106 A 
ATOM     28  C   UNL     1     -13.519   5.557   3.030  0.00  0.00    +0.028 A 
ATOM     29  C   UNL     1     -14.841   5.347   3.376  0.00  0.00    +0.002 A 
ENDBRANCH  21  27
ENDBRANCH  20  21
BRANCH  20  30
ATOM     30  C   UNL     1      -9.635   5.922   5.495  0.00  0.00    +0.184 C 
BRANCH  30  31
ATOM     31  C   UNL     1      -8.225   6.439   5.368  0.00  0.00    +0.120 A 
ATOM     32  C   UNL     1      -7.872   7.725   5.197  0.00  0.00    +0.046 A 
ATOM     33  C   UNL     1      -6.460   7.756   5.129  0.00  0.00    +0.041 A 
ATOM     34  C   UNL     1      -6.035   6.487   5.263  0.00  0.00    +0.195 A 
ATOM     35  O   UNL     1      -7.109   5.694   5.413  0.00  0.00    -0.466 OA
ENDBRANCH  30  31
ENDBRANCH  20  30
ENDBRANCH  19  20
ENDBRANCH   1  19
TORSDOF 7
