REMARK  Name = ZINC39602181
REMARK  4 active torsions:
REMARK  status: ('A' for Active; 'I' for Inactive)
REMARK    1  A    between atoms: C_4  and  C_7
REMARK    2  A    between atoms: C_10  and  N_12
REMARK    3  A    between atoms: C_13  and  C_15
REMARK    4  A    between atoms: C_26  and  C_28
REMARK                            x       y       z     vdW  Elec       q    Type
REMARK                         _______ _______ _______ _____ _____    ______ ____
ROOT
ATOM      1  C   UNL     1       6.636  -1.645  -3.648  0.00  0.00    +0.100 C 
ATOM      2  C   UNL     1       7.579  -0.422  -3.595  0.00  0.00    +0.121 C 
ATOM      3  N   UNL     1       8.427  -0.551  -4.804  0.00  0.00    -0.296 N 
ATOM      4  C   UNL     1       7.499  -1.031  -5.856  0.00  0.00    +0.115 C 
ATOM      5  C   UNL     1       6.585  -2.041  -5.133  0.00  0.00    -0.004 C 
ATOM      6  C   UNL     1       7.116  -3.460  -5.320  0.00  0.00    -0.010 C 
ATOM      7  C   UNL     1       7.002  -3.852  -6.796  0.00  0.00    -0.082 C 
ATOM      8  N   UNL     1       5.599  -3.773  -7.218  0.00  0.00    +0.379 N 
ATOM      9  C   UNL     1       5.124  -2.387  -7.123  0.00  0.00    -0.082 C 
ATOM     10  C   UNL     1       5.158  -1.933  -5.661  0.00  0.00    -0.010 C 
ATOM     11  C   UNL     1       9.744  -0.290  -4.921  0.00  0.00    +0.247 C 
ATOM     12  O   UNL     1      10.401  -0.024  -3.933  0.00  0.00    -0.270 OA
ATOM     13  H   UNL     1       5.518  -4.090  -8.173  0.00  0.00    -0.086 HD
ATOM     14  H   UNL     1       5.036  -4.361  -6.623  0.00  0.00    -0.086 HD
ENDROOT
BRANCH  11  15
ATOM     15  C   UNL     1      10.389  -0.328  -6.250  0.00  0.00    +0.037 A 
ATOM     16  C   UNL     1       9.619  -0.199  -7.407  0.00  0.00    +0.014 A 
ATOM     17  C   UNL     1      10.227  -0.235  -8.644  0.00  0.00    +0.021 A 
ATOM     18  C   UNL     1      11.599  -0.398  -8.740  0.00  0.00    +0.041 A 
ATOM     19  C   UNL     1      12.369  -0.526  -7.596  0.00  0.00    +0.021 A 
ATOM     20  C   UNL     1      11.773  -0.486  -6.353  0.00  0.00    +0.014 A 
ATOM     21 CL   UNL     1      12.358  -0.443 -10.301  0.00  0.00    -0.084 Cl
ENDBRANCH  11  15
BRANCH   1  23
ATOM     22  N   UNL     1       4.486  -2.190  -2.553  0.00  0.00    -0.312 N 
ATOM     23  C   UNL     1       5.261  -1.269  -3.158  0.00  0.00    +0.218 C 
ATOM     24  O   UNL     1       4.853  -0.137  -3.308  0.00  0.00    -0.275 OA
ATOM     25  H   UNL     1       4.813  -3.096  -2.433  0.00  0.00    +0.149 HD
BRANCH  22  28
ATOM     26  C   UNL     1       2.557  -2.650  -0.933  0.00  0.00    +0.041 C 
ATOM     27  C   UNL     1       2.008  -2.807  -2.352  0.00  0.00    +0.033 C 
ATOM     28  C   UNL     1       3.150  -1.825  -2.077  0.00  0.00    +0.081 C 
BRANCH  26  32
ATOM     29  C   UNL     1       0.114  -0.603   1.912  0.00  0.00    +0.000 A 
ATOM     30  C   UNL     1       1.263  -1.250   2.326  0.00  0.00    +0.000 A 
ATOM     31  C   UNL     1       2.053  -1.913   1.406  0.00  0.00    +0.004 A 
ATOM     32  C   UNL     1       1.695  -1.928   0.071  0.00  0.00    -0.042 A 
ATOM     33  C   UNL     1       0.545  -1.282  -0.344  0.00  0.00    +0.004 A 
ATOM     34  C   UNL     1      -0.244  -0.618   0.577  0.00  0.00    +0.000 A 
ENDBRANCH  26  32
ENDBRANCH  22  28
ENDBRANCH   1  23
TORSDOF 4
