REMARK  Name = ZINC53916161
REMARK  5 active torsions:
REMARK  status: ('A' for Active; 'I' for Inactive)
REMARK    1  A    between atoms: C_1  and  N_2
REMARK    2  A    between atoms: N_2  and  C_3
REMARK    3  A    between atoms: C_3  and  C_4
REMARK    4  A    between atoms: C_9  and  O_10
REMARK    5  A    between atoms: C_11  and  C_13
REMARK                            x       y       z     vdW  Elec       q    Type
REMARK                         _______ _______ _______ _____ _____    ______ ____
ROOT
ATOM      1  C   UNL     1      -0.023   1.460   0.011  0.00  0.00    +0.132 C 
ATOM      2  N   UNL     1       0.004  -0.004   0.002  0.00  0.00    -0.296 N 
ATOM      3  C   UNL     1      -0.102  -0.673  -1.163  0.00  0.00    +0.247 C 
ATOM      4  O   UNL     1      -0.178  -1.886  -1.163  0.00  0.00    -0.270 OA
ENDROOT
BRANCH   3   5
ATOM      5  C   UNL     1      -0.124   0.070  -2.445  0.00  0.00    +0.039 A 
ATOM      6  C   UNL     1       0.647   1.234  -2.587  0.00  0.00    +0.014 A 
ATOM      7  C   UNL     1       0.643   1.935  -3.754  0.00  0.00    +0.016 A 
ATOM      8  C   UNL     1      -0.138   1.494  -4.831  0.00  0.00    +0.065 A 
ATOM      9  C   UNL     1      -0.923   0.318  -4.702  0.00  0.00    +0.080 A 
ATOM     10  C   UNL     1      -0.901  -0.393  -3.493  0.00  0.00    +0.041 A 
ATOM     11  N   UNL     1      -1.664  -0.091  -5.742  0.00  0.00    -0.223 NA
ATOM     12  C   UNL     1      -1.669   0.588  -6.878  0.00  0.00    +0.180 A 
ATOM     13  N   UNL     1      -0.944   1.706  -7.051  0.00  0.00    -0.301 N 
ATOM     14  H   UNL     1      -0.979   2.171  -7.902  0.00  0.00    +0.171 HD
ATOM     15  C   UNL     1      -0.169   2.191  -6.058  0.00  0.00    +0.260 A 
ATOM     16  O   UNL     1       0.556   3.310  -6.232  0.00  0.00    -0.267 OA
ATOM     17  S   UNL     1      -2.633   0.021  -8.174  0.00  0.00    -0.011 S 
ENDBRANCH   3   5
BRANCH   2  18
ATOM     18  C   UNL     1       0.146  -0.742   1.260  0.00  0.00    +0.146 C 
BRANCH  18  19
ATOM     19  C   UNL     1      -1.219  -1.022   1.835  0.00  0.00    +0.011 A 
ATOM     20  C   UNL     1      -1.718  -0.227   2.848  0.00  0.00    +0.009 A 
ATOM     21  C   UNL     1      -2.970  -0.483   3.376  0.00  0.00    +0.001 A 
ATOM     22  C   UNL     1      -3.725  -1.536   2.892  0.00  0.00    +0.004 A 
ATOM     23  C   UNL     1      -3.230  -2.333   1.878  0.00  0.00    +0.046 A 
ATOM     24  C   UNL     1      -1.976  -2.075   1.343  0.00  0.00    +0.122 A 
BRANCH  24  25
ATOM     25  O   UNL     1      -1.489  -2.855   0.342  0.00  0.00    -0.506 OA
ATOM     26  H   UNL     1      -0.986  -3.620   0.650  0.00  0.00    +0.292 HD
ENDBRANCH  24  25
ENDBRANCH  18  19
ENDBRANCH   2  18
TORSDOF 4
