REMARK  Name = ZINC61557791
REMARK  6 active torsions:
REMARK  status: ('A' for Active; 'I' for Inactive)
REMARK    1  A    between atoms: C_5  and  C_7
REMARK    2  A    between atoms: C_7  and  C_8
REMARK    3  A    between atoms: C_8  and  N_9
REMARK    4  A    between atoms: C_10  and  C_12
REMARK    5  A    between atoms: C_15  and  C_18
REMARK    6  A    between atoms: C_18  and  N_19
REMARK                            x       y       z     vdW  Elec       q    Type
REMARK                         _______ _______ _______ _____ _____    ______ ____
ROOT
ATOM      1  C   UNL     1       1.537  -6.325   2.551  0.00  0.00    +0.037 A 
ATOM      2  C   UNL     1       1.435  -7.020   1.345  0.00  0.00    +0.013 A 
ATOM      3  C   UNL     1       1.455  -8.399   1.344  0.00  0.00    +0.006 A 
ATOM      4  C   UNL     1       1.575  -9.094   2.535  0.00  0.00    -0.030 A 
ATOM      5  C   UNL     1       1.675  -8.410   3.734  0.00  0.00    +0.006 A 
ATOM      6  C   UNL     1       1.663  -7.031   3.748  0.00  0.00    +0.013 A 
ENDROOT
BRANCH   1   8
ATOM      7  N   UNL     1       1.395  -4.167   1.402  0.00  0.00    -0.311 N 
ATOM      8  C   UNL     1       1.517  -4.846   2.560  0.00  0.00    +0.244 C 
ATOM      9  O   UNL     1       1.611  -4.243   3.611  0.00  0.00    -0.270 OA
ATOM     10  H   UNL     1       1.320  -4.648   0.563  0.00  0.00    +0.149 HD
BRANCH   7  11
ATOM     11  C   UNL     1       1.375  -2.702   1.411  0.00  0.00    +0.109 C 
BRANCH  11  12
ATOM     12  C   UNL     1       1.229  -2.186  -0.022  0.00  0.00    +0.055 C 
BRANCH  12  17
ATOM     13  C   UNL     1      -0.017   1.378   0.010  0.00  0.00    +0.000 A 
ATOM     14  C   UNL     1       1.171   2.086   0.002  0.00  0.00    +0.001 A 
ATOM     15  C   UNL     1       2.377   1.412  -0.013  0.00  0.00    +0.015 A 
ATOM     16  C   UNL     1       2.397   0.029  -0.021  0.00  0.00    +0.021 A 
ATOM     17  C   UNL     1       1.208  -0.679  -0.013  0.00  0.00    -0.032 A 
ATOM     18  C   UNL     1       0.002  -0.004   0.002  0.00  0.00    +0.005 A 
ATOM     19 BR   UNL     1       4.047  -0.894  -0.042  0.00  0.00    -0.050 Br
ENDBRANCH  12  17
ENDBRANCH  11  12
ENDBRANCH   7  11
ENDBRANCH   1   8
BRANCH   4  20
ATOM     20  C   UNL     1       1.595 -10.600   2.526  0.00  0.00    +0.141 C 
BRANCH  20  21
ATOM     21  N   UNL     1       2.977 -11.069   2.396  0.00  0.00    -0.295 N 
ATOM     22  C   UNL     1       3.240 -12.391   2.366  0.00  0.00    +0.297 C 
ATOM     23  O   UNL     1       2.330 -13.194   2.446  0.00  0.00    -0.253 OA
ATOM     24  N   UNL     1       4.511 -12.822   2.246  0.00  0.00    -0.313 N 
ATOM     25  H   UNL     1       3.703 -10.429   2.332  0.00  0.00    +0.151 HD
ATOM     26  H   UNL     1       5.237 -12.182   2.182  0.00  0.00    +0.146 HD
ATOM     27  H   UNL     1       4.701 -13.773   2.224  0.00  0.00    +0.146 HD
ENDBRANCH  20  21
ENDBRANCH   4  20
TORSDOF 6
