REMARK  Name = ZINC33462227
REMARK  10 active torsions:
REMARK  status: ('A' for Active; 'I' for Inactive)
REMARK    1  A    between atoms: C_1  and  C_2
REMARK    2  A    between atoms: C_2  and  N_3
REMARK    3  A    between atoms: N_3  and  C_4
REMARK    4  A    between atoms: N_3  and  C_6
REMARK    5  A    between atoms: C_4  and  C_5
REMARK    6  A    between atoms: C_9  and  C_12
REMARK    7  A    between atoms: C_12  and  C_14
REMARK    8  A    between atoms: C_12  and  N_16
REMARK    9  A    between atoms: C_14  and  N_15
REMARK   10  A    between atoms: C_24  and  C_26
REMARK                            x       y       z     vdW  Elec       q    Type
REMARK                         _______ _______ _______ _____ _____    ______ ____
ROOT
ATOM      1  C   UNL     1       0.351  -6.111  -1.551  0.00  0.00    +0.087 C 
ENDROOT
BRANCH   1   2
ATOM      2  N   UNL     1       0.406  -6.544  -2.950  0.00  0.00    -0.321 N 
ATOM      3  C   UNL     1       0.356  -7.871  -3.378  0.00  0.00    +0.034 A 
ATOM      4  C   UNL     1       0.247  -9.041  -2.624  0.00  0.00    +0.023 A 
ATOM      5  C   UNL     1       0.213 -10.270  -3.248  0.00  0.00    +0.002 A 
ATOM      6  C   UNL     1       0.287 -10.353  -4.627  0.00  0.00    +0.000 A 
ATOM      7  C   UNL     1       0.395  -9.199  -5.380  0.00  0.00    +0.005 A 
ATOM      8  C   UNL     1       0.429  -7.965  -4.759  0.00  0.00    -0.025 A 
ATOM      9  C   UNL     1       0.540  -6.570  -5.331  0.00  0.00    +0.059 C 
ATOM     10  C   UNL     1       0.516  -5.646  -4.102  0.00  0.00    +0.075 C 
ATOM     11  C   UNL     1       1.813  -4.838  -4.024  0.00  0.00    +0.028 C 
ENDBRANCH   1   2
BRANCH   1  15
ATOM     12  C   UNL     1       1.702  -2.069  -1.259  0.00  0.00    +0.013 A 
ATOM     13  C   UNL     1       2.405  -3.080  -0.631  0.00  0.00    +0.022 A 
ATOM     14  C   UNL     1       1.968  -4.388  -0.725  0.00  0.00    +0.007 A 
ATOM     15  C   UNL     1       0.828  -4.685  -1.447  0.00  0.00    -0.029 A 
ATOM     16  C   UNL     1       0.124  -3.674  -2.075  0.00  0.00    +0.007 A 
ATOM     17  C   UNL     1       0.559  -2.365  -1.977  0.00  0.00    +0.022 A 
BRANCH  12  18
ATOM     18  N   UNL     1       2.145  -0.746  -1.163  0.00  0.00    -0.394 NA
ATOM     19  H   UNL     1       1.516  -0.144  -1.674  0.00  0.00    +0.126 HD
BRANCH  18  21
ATOM     20  C   UNL     1       2.538   1.143   0.345  0.00  0.00    +0.022 C 
ATOM     21  C   UNL     1       2.174  -0.341   0.248  0.00  0.00    +0.081 C 
ENDBRANCH  18  21
BRANCH  18  22
ATOM     22  C   UNL     1       3.495  -0.639  -1.732  0.00  0.00    +0.081 C 
ATOM     23  C   UNL     1       3.442  -0.941  -3.231  0.00  0.00    +0.022 C 
ENDBRANCH  18  22
ENDBRANCH  12  18
ENDBRANCH   1  15
BRANCH   1  24
ATOM     24  C   UNL     1      -1.089  -6.206  -1.044  0.00  0.00    -0.059 C 
BRANCH  24  25
ATOM     25  N   UNL     1      -1.569  -7.587  -1.189  0.00  0.00    +0.380 N 
ATOM     26  H   UNL     1      -1.564  -7.843  -2.165  0.00  0.00    -0.090 HD
ATOM     27  H   UNL     1      -0.965  -8.209  -0.674  0.00  0.00    -0.090 HD
ATOM     28  H   UNL     1      -2.509  -7.655  -0.828  0.00  0.00    -0.090 HD
ENDBRANCH  24  25
ENDBRANCH   1  24
TORSDOF 7
