REMARK  Name = ZINC36019055
REMARK  11 active torsions:
REMARK  status: ('A' for Active; 'I' for Inactive)
REMARK    1  A    between atoms: C_1  and  C_2
REMARK    2  A    between atoms: C_2  and  O_3
REMARK    3  A    between atoms: O_3  and  C_4
REMARK    4  A    between atoms: C_4  and  C_6
REMARK    5  A    between atoms: C_7  and  C_24
REMARK    6  A    between atoms: N_8  and  C_21
REMARK    7  A    between atoms: C_12  and  C_14
REMARK    8  A    between atoms: C_21  and  C_22
REMARK    9  A    between atoms: C_24  and  N_25
REMARK   10  A    between atoms: C_29  and  C_32
REMARK   11  A    between atoms: C_33  and  C_35
REMARK                            x       y       z     vdW  Elec       q    Type
REMARK                         _______ _______ _______ _____ _____    ______ ____
ROOT
ATOM      1  C   UNL     1       1.327  -2.349  -2.612  0.00  0.00    +0.080 C 
ATOM      2  C   UNL     1       1.609  -3.659  -2.782  0.00  0.00    +0.041 C 
ATOM      3  N   UNL     1       2.199  -4.111  -3.927  0.00  0.00    -0.254 N 
ATOM      4  C   UNL     1       2.540  -3.317  -4.950  0.00  0.00    +0.307 C 
ATOM      5  O   UNL     1       3.062  -3.812  -5.930  0.00  0.00    -0.252 OA
ATOM      6  N   UNL     1       2.323  -1.987  -4.929  0.00  0.00    -0.288 N 
ATOM      7  C   UNL     1       1.684  -1.400  -3.739  0.00  0.00    +0.144 C 
ATOM      8  H   UNL     1       2.578  -1.430  -5.681  0.00  0.00    +0.151 HD
ENDROOT
BRANCH   7   9
ATOM      9  C   UNL     1       2.616  -0.353  -3.186  0.00  0.00    -0.020 A 
ATOM     10  C   UNL     1       3.960  -0.637  -3.028  0.00  0.00    +0.006 A 
ATOM     11  C   UNL     1       4.816   0.322  -2.521  0.00  0.00    +0.003 A 
ATOM     12  C   UNL     1       4.329   1.568  -2.171  0.00  0.00    +0.038 A 
ATOM     13  C   UNL     1       2.984   1.854  -2.329  0.00  0.00    +0.124 A 
ATOM     14  C   UNL     1       2.128   0.894  -2.842  0.00  0.00    +0.044 A 
ATOM     15  F   UNL     1       2.507   3.071  -1.987  0.00  0.00    -0.205 F 
ENDBRANCH   7   9
BRANCH   1  16
ATOM     16  C   UNL     1       0.715  -1.880  -1.427  0.00  0.00    +0.339 C 
ATOM     17  O   UNL     1      -0.462  -1.571  -1.431  0.00  0.00    -0.245 OA
BRANCH  16  18
ATOM     18  O   UNL     1       1.437  -1.774  -0.291  0.00  0.00    -0.462 OA
BRANCH  18  20
ATOM     19  C   UNL     1       1.727  -1.241   2.048  0.00  0.00    +0.048 C 
ATOM     20  C   UNL     1       0.754  -1.293   0.868  0.00  0.00    +0.229 C 
ENDBRANCH  18  20
ENDBRANCH  16  18
ENDBRANCH   1  16
BRANCH   3  21
ATOM     21  C   UNL     1       2.476  -5.545  -4.043  0.00  0.00    +0.141 C 
BRANCH  21  22
ATOM     22  C   UNL     1       1.290  -6.237  -4.664  0.00  0.00    -0.015 C 
ATOM     23  C   UNL     1       1.448  -6.969  -5.739  0.00  0.00    +0.005 C 
ENDBRANCH  21  22
ENDBRANCH   3  21
BRANCH   2  24
ATOM     24  C   UNL     1       1.266  -4.638  -1.688  0.00  0.00    +0.136 C 
BRANCH  24  25
ATOM     25  N   UNL     1       0.198  -5.535  -2.151  0.00  0.00    -0.294 NA
ATOM     26  C   UNL     1      -1.052  -4.796  -2.373  0.00  0.00    +0.104 C 
ATOM     27  C   UNL     1      -2.082  -5.724  -3.024  0.00  0.00    +0.124 C 
ATOM     28  N   UNL     1      -2.212  -6.932  -2.195  0.00  0.00    -0.290 N 
ATOM     29  C   UNL     1      -0.987  -7.651  -1.815  0.00  0.00    +0.087 C 
ATOM     30  C   UNL     1       0.001  -6.647  -1.212  0.00  0.00    +0.107 C 
ATOM     31  C   UNL     1      -1.323  -8.731  -0.784  0.00  0.00    +0.029 C 
ATOM     32  C   UNL     1      -3.423  -7.368  -1.793  0.00  0.00    +0.282 C 
ATOM     33  O   UNL     1      -3.507  -8.305  -1.021  0.00  0.00    -0.267 OA
BRANCH  32  34
ATOM     34  C   UNL     1      -4.639  -6.712  -2.285  0.00  0.00    +0.189 A 
ATOM     35  C   UNL     1      -5.913  -6.968  -1.868  0.00  0.00    +0.054 A 
ATOM     36  C   UNL     1      -6.756  -6.117  -2.600  0.00  0.00    +0.042 A 
ATOM     37  C   UNL     1      -5.969  -5.389  -3.422  0.00  0.00    +0.196 A 
ATOM     38  O   UNL     1      -4.693  -5.747  -3.226  0.00  0.00    -0.458 OA
ENDBRANCH  32  34
ENDBRANCH  24  25
ENDBRANCH   2  24
TORSDOF 9
