REMARK  Name = ZINC40315397
REMARK  4 active torsions:
REMARK  status: ('A' for Active; 'I' for Inactive)
REMARK    1  A    between atoms: C_9  and  N_11
REMARK    2  A    between atoms: N_11  and  S_12
REMARK    3  A    between atoms: S_12  and  C_15
REMARK    4  A    between atoms: C_18  and  N_22
REMARK                            x       y       z     vdW  Elec       q    Type
REMARK                         _______ _______ _______ _____ _____    ______ ____
ROOT
ATOM      1  S   UNL     1      -0.211  -2.923  -0.012  0.00  0.00    +0.093 S 
ATOM      2  O   UNL     1      -0.828  -2.662   1.241  0.00  0.00    -0.148 OA
ATOM      3  O   UNL     1      -0.852  -2.648  -1.250  0.00  0.00    -0.148 OA
ENDROOT
BRANCH   1   4
ATOM      4  C   UNL     1       0.196  -4.638  -0.026  0.00  0.00    +0.129 A 
ATOM      5  C   UNL     1      -0.132  -5.433   1.057  0.00  0.00    +0.032 A 
ATOM      6  C   UNL     1       0.185  -6.777   1.049  0.00  0.00    +0.025 A 
ATOM      7  C   UNL     1       0.834  -7.331  -0.047  0.00  0.00    +0.026 A 
ATOM      8  C   UNL     1       1.162  -6.530  -1.133  0.00  0.00    +0.044 A 
ATOM      9  C   UNL     1       0.838  -5.186  -1.122  0.00  0.00    +0.069 A 
ATOM     10 CL   UNL     1       1.241  -4.185  -2.482  0.00  0.00    -0.081 Cl
BRANCH   7  11
ATOM     11  N   UNL     1       1.156  -8.690  -0.057  0.00  0.00    -0.358 N 
ATOM     12  H   UNL     1       0.927  -9.248   0.702  0.00  0.00    +0.142 HD
ATOM     13  H   UNL     1       1.609  -9.075  -0.823  0.00  0.00    +0.142 HD
ENDBRANCH   7  11
ENDBRANCH   1   4
BRANCH   1  14
ATOM     14  N   UNL     1       1.216  -2.082  -0.021  0.00  0.00    -0.097 NA
BRANCH  14  23
ATOM     15  C   UNL     1      -0.017   1.384   0.010  0.00  0.00    +0.004 A 
ATOM     16  C   UNL     1       1.157   2.102   0.002  0.00  0.00    +0.028 A 
ATOM     17  C   UNL     1       2.381   1.437  -0.013  0.00  0.00    +0.068 A 
ATOM     18  C   UNL     1       2.411   0.031  -0.021  0.00  0.00    +0.044 A 
ATOM     19  C   UNL     1       3.773  -0.352  -0.036  0.00  0.00    +0.144 A 
ATOM     20  N   UNL     1       4.508   0.723  -0.037  0.00  0.00    -0.181 NA
ATOM     21  N   UNL     1       3.687   1.857  -0.023  0.00  0.00    -0.277 N 
ATOM     22  H   UNL     1       3.989   2.779  -0.022  0.00  0.00    +0.189 HD
ATOM     23  C   UNL     1       1.203  -0.688  -0.013  0.00  0.00    +0.085 A 
ATOM     24  C   UNL     1       0.002  -0.004   0.002  0.00  0.00    +0.027 A 
ENDBRANCH  14  23
ENDBRANCH   1  14
TORSDOF 4
