REMARK  Name = ZINC30826092
REMARK  12 active torsions:
REMARK  status: ('A' for Active; 'I' for Inactive)
REMARK    1  A    between atoms: C_1  and  C_2
REMARK    2  A    between atoms: C_2  and  N_3
REMARK    3  A    between atoms: N_6  and  C_9
REMARK    4  A    between atoms: C_12  and  C_35
REMARK    5  A    between atoms: C_14  and  N_15
REMARK    6  A    between atoms: C_16  and  C_18
REMARK    7  A    between atoms: C_19  and  C_20
REMARK    8  A    between atoms: C_23  and  C_25
REMARK    9  A    between atoms: C_28  and  C_34
REMARK   10  A    between atoms: C_30  and  N_31
REMARK   11  A    between atoms: C_35  and  O_37
REMARK   12  A    between atoms: O_37  and  C_38
REMARK                            x       y       z     vdW  Elec       q    Type
REMARK                         _______ _______ _______ _____ _____    ______ ____
ROOT
ATOM      1  N   UNL     1       0.940   3.792  -0.055  0.00  0.00    -0.280 N 
ATOM      2  C   UNL     1       1.872   4.278   0.788  0.00  0.00    +0.241 C 
ATOM      3  O   UNL     1       2.716   3.535   1.257  0.00  0.00    -0.270 OA
ATOM      4  H   UNL     1       0.233   4.476  -0.547  0.00  0.00    +0.155 HD
ENDROOT
BRANCH   1  10
ATOM      5  C   UNL     1      -0.367   1.807  -0.535  0.00  0.00    +0.051 A 
ATOM      6  C   UNL     1      -0.437   0.441  -0.783  0.00  0.00    +0.026 A 
ATOM      7  C   UNL     1       0.711  -0.319  -0.801  0.00  0.00    +0.017 A 
ATOM      8  C   UNL     1       1.952   0.282  -0.571  0.00  0.00    +0.061 A 
ATOM      9  C   UNL     1       2.026   1.657  -0.322  0.00  0.00    +0.040 A 
ATOM     10  C   UNL     1       0.871   2.415  -0.304  0.00  0.00    +0.056 A 
BRANCH   5  14
ATOM     11  N   UNL     1      -4.339   3.002  -0.704  0.00  0.00    +0.382 N 
ATOM     12  C   UNL     1      -3.444   3.419  -1.793  0.00  0.00    -0.060 C 
ATOM     13  C   UNL     1      -2.217   2.505  -1.821  0.00  0.00    +0.086 C 
ATOM     14  N   UNL     1      -1.530   2.572  -0.524  0.00  0.00    -0.332 N 
ATOM     15  C   UNL     1      -2.424   2.154   0.565  0.00  0.00    +0.086 C 
ATOM     16  C   UNL     1      -3.651   3.069   0.593  0.00  0.00    -0.060 C 
ATOM     17  H   UNL     1      -4.626   1.955  -0.883  0.00  0.00    -0.082 HD
BRANCH  11  19
ATOM     18  C   UNL     1      -6.352   3.522   0.589  0.00  0.00    -0.017 C 
ATOM     19  C   UNL     1      -5.566   3.809  -0.692  0.00  0.00    -0.082 C 
ENDBRANCH  11  19
ENDBRANCH   5  14
BRANCH   8  20
ATOM     20  C   UNL     1       3.182  -0.531  -0.590  0.00  0.00    +0.339 C 
ATOM     21  O   UNL     1       4.260  -0.007  -0.390  0.00  0.00    -0.245 OA
BRANCH  20  22
ATOM     22  O   UNL     1       3.110  -1.855  -0.830  0.00  0.00    -0.464 OA
ATOM     23  C   UNL     1       4.360  -2.593  -0.834  0.00  0.00    +0.280 C 
ENDBRANCH  20  22
ENDBRANCH   8  20
ENDBRANCH   1  10
BRANCH   2  24
ATOM     24  C   UNL     1       1.871   5.651   1.127  0.00  0.00    +0.071 C 
ATOM     25  C   UNL     1       3.046   6.296   1.350  0.00  0.00    +0.051 C 
BRANCH  25  26
ATOM     26  C   UNL     1       4.126   5.610   1.951  0.00  0.00    +0.129 A 
ATOM     27  C   UNL     1       5.164   6.188   2.657  0.00  0.00    +0.050 A 
ATOM     28  C   UNL     1       6.000   5.147   3.069  0.00  0.00    +0.050 A 
ATOM     29  C   UNL     1       5.452   3.984   2.608  0.00  0.00    +0.138 A 
ATOM     30  O   UNL     1       4.321   4.274   1.940  0.00  0.00    -0.455 OA
BRANCH  29  31
ATOM     31  C   UNL     1       6.007   2.632   2.813  0.00  0.00    +0.047 A 
ATOM     32  C   UNL     1       7.348   2.372   2.522  0.00  0.00    +0.014 A 
ATOM     33  C   UNL     1       7.861   1.107   2.721  0.00  0.00    +0.004 A 
ATOM     34  C   UNL     1       7.047   0.094   3.197  0.00  0.00    -0.048 A 
ATOM     35  C   UNL     1       5.716   0.343   3.482  0.00  0.00    +0.036 A 
ATOM     36  C   UNL     1       5.191   1.604   3.293  0.00  0.00    +0.137 A 
ATOM     37  C   UNL     1       7.613  -1.287   3.406  0.00  0.00    +0.044 C 
BRANCH  36  38
ATOM     38  N   UNL     1       3.767   1.868   3.597  0.00  0.00    +0.057 N 
ATOM     39  O   UNL     1       3.057   0.972   4.016  0.00  0.00    -0.126 OA
ATOM     40  O   UNL     1       3.305   2.983   3.429  0.00  0.00    -0.126 OA
ENDBRANCH  36  38
ENDBRANCH  29  31
ENDBRANCH  25  26
ENDBRANCH   2  24
TORSDOF 9
