REMARK  Name = ZINC35894809
REMARK  7 active torsions:
REMARK  status: ('A' for Active; 'I' for Inactive)
REMARK    1  A    between atoms: C_3  and  C_6
REMARK    2  A    between atoms: C_6  and  C_7
REMARK    3  A    between atoms: C_7  and  N_8
REMARK    4  A    between atoms: C_9  and  C_11
REMARK    5  A    between atoms: C_16  and  N_35
REMARK    6  A    between atoms: N_24  and  C_27
REMARK    7  A    between atoms: C_27  and  C_28
REMARK                            x       y       z     vdW  Elec       q    Type
REMARK                         _______ _______ _______ _____ _____    ______ ____
ROOT
ATOM      1  C   UNL     1       7.697   3.238   2.554  0.00  0.00    +0.098 C 
ATOM      2  C   UNL     1       8.591   2.239   1.820  0.00  0.00    +0.051 C 
ATOM      3  C   UNL     1       8.649   0.951   2.599  0.00  0.00    -0.023 A 
ATOM      4  C   UNL     1       8.923  -0.231   1.933  0.00  0.00    +0.038 A 
ATOM      5  C   UNL     1       8.975  -1.423   2.628  0.00  0.00    +0.127 A 
ATOM      6  C   UNL     1       8.754  -1.441   3.994  0.00  0.00    +0.034 A 
ATOM      7  C   UNL     1       8.485  -0.265   4.664  0.00  0.00    +0.025 A 
ATOM      8  C   UNL     1       8.433   0.938   3.966  0.00  0.00    +0.033 A 
ATOM      9  N   UNL     1       8.168   2.119   4.678  0.00  0.00    -0.329 N 
ATOM     10  C   UNL     1       8.192   3.403   3.995  0.00  0.00    +0.069 C 
ATOM     11  C   UNL     1       7.357   4.471   4.684  0.00  0.00    -0.055 C 
ATOM     12  N   UNL     1       7.455   4.386   6.141  0.00  0.00    +0.385 N 
ATOM     13  C   UNL     1       6.936   3.081   6.577  0.00  0.00    -0.059 C 
ATOM     14  C   UNL     1       7.906   1.996   6.114  0.00  0.00    +0.087 C 
ATOM     15  H   UNL     1       8.420   4.477   6.420  0.00  0.00    -0.081 HD
ENDROOT
BRANCH   1  17
ATOM     16  N   UNL     1       5.633   2.506   1.403  0.00  0.00    -0.315 N 
ATOM     17  C   UNL     1       6.279   2.728   2.565  0.00  0.00    +0.218 C 
ATOM     18  O   UNL     1       5.718   2.518   3.620  0.00  0.00    -0.275 OA
ATOM     19  H   UNL     1       6.082   2.674   0.560  0.00  0.00    +0.149 HD
BRANCH  16  20
ATOM     20  C   UNL     1       4.255   2.011   1.414  0.00  0.00    +0.109 C 
BRANCH  20  21
ATOM     21  C   UNL     1       3.761   1.845  -0.024  0.00  0.00    +0.061 C 
BRANCH  21  24
ATOM     22  C   UNL     1      -0.016   1.351   0.009  0.00  0.00    +0.008 A 
ATOM     23  C   UNL     1       1.183   2.038   0.002  0.00  0.00    +0.011 A 
ATOM     24  C   UNL     1       2.343   1.336  -0.013  0.00  0.00    -0.009 A 
ATOM     25  S   UNL     1       1.754  -0.349  -0.017  0.00  0.00    -0.102 S 
ATOM     26  C   UNL     1       0.002  -0.004   0.002  0.00  0.00    +0.045 A 
ENDBRANCH  21  24
ENDBRANCH  20  21
ENDBRANCH  16  20
ENDBRANCH   1  17
BRANCH   5  27
ATOM     27  N   UNL     1       9.268  -2.685   1.911  0.00  0.00    +0.056 N 
ATOM     28  O   UNL     1       9.461  -2.671   0.718  0.00  0.00    -0.126 OA
ATOM     29  O   UNL     1       9.314  -3.729   2.519  0.00  0.00    -0.126 OA
ENDBRANCH   5  27
BRANCH  12  30
ATOM     30  C   UNL     1       6.660   5.460   6.750  0.00  0.00    -0.043 C 
BRANCH  30  31
ATOM     31  C   UNL     1       6.860   5.447   8.244  0.00  0.00    -0.064 A 
ATOM     32  C   UNL     1       6.030   4.685   9.045  0.00  0.00    +0.004 A 
ATOM     33  C   UNL     1       6.213   4.672  10.415  0.00  0.00    +0.038 A 
ATOM     34  C   UNL     1       7.227   5.422  10.985  0.00  0.00    +0.123 A 
ATOM     35  C   UNL     1       8.058   6.185  10.181  0.00  0.00    +0.038 A 
ATOM     36  C   UNL     1       7.877   6.192   8.811  0.00  0.00    +0.004 A 
ATOM     37  F   UNL     1       7.406   5.410  12.324  0.00  0.00    -0.205 F 
ENDBRANCH  30  31
ENDBRANCH  12  30
TORSDOF 7
