REMARK  Name = ZINC08789567
REMARK  7 active torsions:
REMARK  status: ('A' for Active; 'I' for Inactive)
REMARK    1  A    between atoms: C_1  and  C_2
REMARK    2  A    between atoms: C_2  and  C_4
REMARK    3  A    between atoms: C_2  and  O_34
REMARK    4  A    between atoms: N_12  and  C_15
REMARK    5  A    between atoms: C_15  and  C_16
REMARK    6  A    between atoms: C_21  and  O_22
REMARK    7  A    between atoms: O_22  and  C_23
REMARK                            x       y       z     vdW  Elec       q    Type
REMARK                         _______ _______ _______ _____ _____    ______ ____
ROOT
ATOM      1  C   UNL     1       0.420  -0.560   6.043  0.00  0.00    -0.028 C 
ATOM      2  C   UNL     1       0.801   0.685   5.215  0.00  0.00    +0.075 C 
ATOM      3  C   UNL     1       0.557   1.888   6.169  0.00  0.00    +0.088 C 
ATOM      4  C   UNL     1      -0.572   2.640   5.499  0.00  0.00    +0.225 C 
ATOM      5  O   UNL     1      -1.075   3.663   5.913  0.00  0.00    -0.275 OA
ATOM      6  N   UNL     1      -0.928   2.002   4.378  0.00  0.00    -0.237 N 
ATOM      7  C   UNL     1      -0.229   0.889   4.127  0.00  0.00    +0.224 C 
ATOM      8  O   UNL     1      -0.393   0.159   3.173  0.00  0.00    -0.275 OA
ATOM      9  C   UNL     1       0.051   1.252   7.469  0.00  0.00    +0.050 C 
ATOM     10  C   UNL     1       1.157   1.103   8.475  0.00  0.00    -0.028 A 
ATOM     11  C   UNL     1       2.362   0.437   8.468  0.00  0.00    +0.004 A 
ATOM     12  C   UNL     1       3.188   0.488   9.576  0.00  0.00    +0.000 A 
ATOM     13  C   UNL     1       2.801   1.209  10.691  0.00  0.00    +0.002 A 
ATOM     14  C   UNL     1       1.594   1.877  10.703  0.00  0.00    +0.023 A 
ATOM     15  C   UNL     1       0.755   1.830   9.592  0.00  0.00    +0.036 A 
ATOM     16  N   UNL     1      -0.494   2.412   9.366  0.00  0.00    -0.286 N 
ATOM     17  C   UNL     1      -0.977   2.119   8.143  0.00  0.00    +0.211 C 
ATOM     18  O   UNL     1      -2.035   2.483   7.676  0.00  0.00    -0.277 OA
ATOM     19  H   UNL     1      -0.960   2.962  10.015  0.00  0.00    +0.155 HD
ATOM     20  N   UNL     1      -0.481  -0.040   7.073  0.00  0.00    +0.396 N 
ATOM     21  H   UNL     1      -0.504  -0.677   7.879  0.00  0.00    -0.083 HD
ATOM     22  H   UNL     1      -1.429   0.067   6.694  0.00  0.00    -0.083 HD
ENDROOT
BRANCH   1  24
ATOM     23  C   UNL     1      -0.713  -2.787   6.016  0.00  0.00    +0.036 C 
ATOM     24  C   UNL     1      -0.280  -1.596   5.160  0.00  0.00    +0.098 C 
BRANCH  24  25
ATOM     25  O   UNL     1       0.621  -2.042   4.144  0.00  0.00    -0.394 OA
ATOM     26  H   UNL     1       1.425  -2.455   4.485  0.00  0.00    +0.210 HD
ENDBRANCH  24  25
ENDBRANCH   1  24
BRANCH   6  27
ATOM     27  C   UNL     1      -2.000   2.479   3.502  0.00  0.00    +0.155 C 
BRANCH  27  28
ATOM     28  C   UNL     1      -1.425   3.409   2.465  0.00  0.00    +0.012 A 
ATOM     29  C   UNL     1      -1.531   4.776   2.627  0.00  0.00    +0.009 A 
ATOM     30  C   UNL     1      -1.003   5.630   1.677  0.00  0.00    +0.001 A 
ATOM     31  C   UNL     1      -0.368   5.117   0.561  0.00  0.00    +0.004 A 
ATOM     32  C   UNL     1      -0.253   3.751   0.396  0.00  0.00    +0.046 A 
ATOM     33  C   UNL     1      -0.787   2.892   1.346  0.00  0.00    +0.125 A 
BRANCH  33  34
ATOM     34  O   UNL     1      -0.682   1.547   1.184  0.00  0.00    -0.495 OA
ATOM     35  C   UNL     1      -0.013   1.086   0.008  0.00  0.00    +0.277 C 
ENDBRANCH  33  34
ENDBRANCH  27  28
ENDBRANCH   6  27
TORSDOF 5
