REMARK  Name = ZINC06691135
REMARK  3 active torsions:
REMARK  status: ('A' for Active; 'I' for Inactive)
REMARK    1  A    between atoms: C_1  and  C_5
REMARK    2  A    between atoms: N_2  and  O_3
REMARK    3  A    between atoms: N_6  and  O_7
REMARK                            x       y       z     vdW  Elec       q    Type
REMARK                         _______ _______ _______ _____ _____    ______ ____
ROOT
ATOM      1  C   UNL     1      -0.015   1.292   0.009  0.00  0.00    +0.180 C 
ATOM      2  N   UNL     1       0.002  -0.004   0.002  0.00  0.00    -0.077 NA
ATOM      3 BR   UNL     1       1.609   2.259  -0.001  0.00  0.00    -0.022 Br
ENDROOT
BRANCH   1   4
ATOM      4  C   UNL     1      -1.299   2.010   0.019  0.00  0.00    +0.180 C 
ATOM      5  N   UNL     1      -1.317   3.305   0.026  0.00  0.00    -0.077 NA
ATOM      6 BR   UNL     1      -2.924   1.042   0.022  0.00  0.00    -0.022 Br
BRANCH   5   7
ATOM      7  O   UNL     1      -0.100   4.030   0.024  0.00  0.00    -0.408 OA
ATOM      8  H   UNL     1      -0.214   4.990   0.030  0.00  0.00    +0.328 HD
ENDBRANCH   5   7
ENDBRANCH   1   4
BRANCH   2   9
ATOM      9  O   UNL     1      -1.214  -0.729   0.010  0.00  0.00    -0.408 OA
ATOM     10  H   UNL     1      -1.100  -1.689   0.004  0.00  0.00    +0.328 HD
ENDBRANCH   2   9
TORSDOF 3
