REMARK  Name = ZINC05413428
REMARK  8 active torsions:
REMARK  status: ('A' for Active; 'I' for Inactive)
REMARK    1  A    between atoms: C_1  and  S_2
REMARK    2  A    between atoms: S_2  and  N_5
REMARK    3  A    between atoms: C_9  and  C_12
REMARK    4  A    between atoms: N_14  and  C_15
REMARK    5  A    between atoms: C_15  and  C_17
REMARK    6  A    between atoms: C_15  and  C_24
REMARK    7  A    between atoms: C_17  and  C_18
REMARK    8  A    between atoms: C_27  and  C_29
REMARK                            x       y       z     vdW  Elec       q    Type
REMARK                         _______ _______ _______ _____ _____    ______ ____
ROOT
ATOM      1  N   UNL     1      -0.946   6.334   0.865  0.00  0.00    -0.178 NA
ATOM      2  C   UNL     1      -0.944   7.473   1.794  0.00  0.00    +0.128 C 
ATOM      3  C   UNL     1       0.501   7.747   2.229  0.00  0.00    +0.125 C 
ATOM      4  N   UNL     1       1.350   7.808   1.031  0.00  0.00    -0.287 N 
ATOM      5  C   UNL     1       1.347   6.668   0.102  0.00  0.00    +0.177 C 
ATOM      6  C   UNL     1      -0.098   6.395  -0.333  0.00  0.00    +0.141 C 
ATOM      7  C   UNL     1       2.117   8.889   0.787  0.00  0.00    +0.219 C 
ATOM      8  O   UNL     1       2.178   9.785   1.603  0.00  0.00    -0.275 OA
ENDROOT
BRANCH   7   9
ATOM      9  C   UNL     1       2.898   8.985  -0.497  0.00  0.00    +0.072 C 
ATOM     10  C   UNL     1       3.997   7.919  -0.509  0.00  0.00    -0.007 C 
ATOM     11  C   UNL     1       4.826   8.062  -1.787  0.00  0.00    -0.082 C 
ATOM     12  C   UNL     1       4.381  10.442  -1.880  0.00  0.00    -0.082 C 
ATOM     13  C   UNL     1       3.539  10.371  -0.604  0.00  0.00    -0.007 C 
ATOM     14  N   UNL     1       5.431   9.406  -1.842  0.00  0.00    +0.379 N 
ATOM     15  H   UNL     1       6.011   9.482  -2.686  0.00  0.00    -0.086 HD
ATOM     16  H   UNL     1       6.016   9.548  -1.010  0.00  0.00    -0.086 HD
ENDBRANCH   7   9
BRANCH   1  18
ATOM     17  C   UNL     1      -0.903   3.977   2.288  0.00  0.00    +0.215 C 
ATOM     18  S   UNL     1      -1.889   5.005   1.164  0.00  0.00    +0.029 S 
ATOM     19  O   UNL     1      -3.029   5.515   1.841  0.00  0.00    -0.158 OA
ATOM     20  O   UNL     1      -2.021   4.363  -0.097  0.00  0.00    -0.158 OA
ENDBRANCH   1  18
BRANCH   5  21
ATOM     21  C   UNL     1       1.906   5.452   0.794  0.00  0.00    +0.235 C 
ATOM     22  O   UNL     1       2.137   5.483   1.984  0.00  0.00    -0.274 OA
ATOM     23  N   UNL     1       2.150   4.329   0.089  0.00  0.00    -0.302 N 
ATOM     24  H   UNL     1       2.033   4.326  -0.874  0.00  0.00    +0.150 HD
BRANCH  23  25
ATOM     25  C   UNL     1       2.590   3.113   0.778  0.00  0.00    +0.159 C 
BRANCH  25  26
ATOM     26  C   UNL     1       4.075   3.183   1.020  0.00  0.00    +0.231 C 
ATOM     27  O   UNL     1       4.769   3.900   0.331  0.00  0.00    -0.274 OA
ATOM     28  N   UNL     1       4.633   2.448   2.003  0.00  0.00    -0.328 N 
ATOM     29  H   UNL     1       4.092   1.818   2.504  0.00  0.00    +0.145 HD
ATOM     30  H   UNL     1       5.576   2.549   2.208  0.00  0.00    +0.145 HD
ENDBRANCH  25  26
BRANCH  25  31
ATOM     31  C   UNL     1       2.271   1.892  -0.088  0.00  0.00    +0.035 C 
BRANCH  31  32
ATOM     32  C   UNL     1       2.582   0.616   0.695  0.00  0.00    -0.009 C 
ATOM     33  C   UNL     1       1.620   0.496   1.879  0.00  0.00    +0.003 C 
ATOM     34  C   UNL     1       1.931  -0.781   2.662  0.00  0.00    +0.000 C 
ATOM     35  C   UNL     1       1.766  -1.995   1.746  0.00  0.00    +0.000 C 
ATOM     36  C   UNL     1       2.728  -1.875   0.562  0.00  0.00    +0.000 C 
ATOM     37  C   UNL     1       2.417  -0.598  -0.221  0.00  0.00    +0.003 C 
ENDBRANCH  31  32
ENDBRANCH  25  31
ENDBRANCH  23  25
ENDBRANCH   5  21
TORSDOF 7
