REMARK  Name = ZINC47581918
REMARK  9 active torsions:
REMARK  status: ('A' for Active; 'I' for Inactive)
REMARK    1  A    between atoms: C_1  and  C_2
REMARK    2  A    between atoms: C_5  and  C_22
REMARK    3  A    between atoms: C_6  and  N_8
REMARK    4  A    between atoms: N_8  and  C_9
REMARK    5  A    between atoms: C_9  and  N_11
REMARK    6  A    between atoms: N_11  and  N_12
REMARK    7  A    between atoms: N_12  and  C_13
REMARK    8  A    between atoms: C_13  and  N_15
REMARK    9  A    between atoms: N_15  and  C_16
REMARK                            x       y       z     vdW  Elec       q    Type
REMARK                         _______ _______ _______ _____ _____    ______ ____
ROOT
ATOM      1  N   UNL     1       0.307  -2.769   4.745  0.00  0.00    -0.246 N 
ATOM      2  H   UNL     1       0.186  -2.329   5.601  0.00  0.00    +0.172 HD
ENDROOT
BRANCH   1   3
ATOM      3  C   UNL     1       0.216  -2.058   3.603  0.00  0.00    +0.151 C 
ATOM      4  S   UNL     1      -0.113  -0.379   3.664  0.00  0.00    -0.017 S 
BRANCH   3   5
ATOM      5  N   UNL     1       0.385  -2.669   2.414  0.00  0.00    -0.296 N 
ATOM      6  H   UNL     1       0.517  -3.629   2.376  0.00  0.00    +0.154 HD
BRANCH   5  12
ATOM      7  C   UNL     1       1.697   1.381  -0.045  0.00  0.00    +0.044 C 
ATOM      8  C   UNL     1       0.996   0.048   0.014  0.00  0.00    -0.049 A 
ATOM      9  C   UNL     1       0.336  -0.435  -1.102  0.00  0.00    +0.004 A 
ATOM     10  C   UNL     1      -0.308  -1.657  -1.052  0.00  0.00    +0.005 A 
ATOM     11  C   UNL     1      -0.294  -2.400   0.112  0.00  0.00    -0.029 A 
ATOM     12  C   UNL     1       0.368  -1.919   1.233  0.00  0.00    +0.036 A 
ATOM     13  C   UNL     1       1.019  -0.693   1.179  0.00  0.00    +0.027 A 
ATOM     14  C   UNL     1      -0.997  -3.732   0.165  0.00  0.00    +0.045 C 
ENDBRANCH   5  12
ENDBRANCH   3   5
ENDBRANCH   1   3
BRANCH   1  15
ATOM     15  N   UNL     1       0.577  -4.143   4.695  0.00  0.00    -0.246 N 
ATOM     16  H   UNL     1       0.698  -4.582   3.839  0.00  0.00    +0.172 HD
BRANCH  15  17
ATOM     17  C   UNL     1       0.667  -4.853   5.837  0.00  0.00    +0.151 C 
ATOM     18  S   UNL     1       0.997  -6.532   5.776  0.00  0.00    -0.017 S 
BRANCH  17  19
ATOM     19  N   UNL     1       0.499  -4.242   7.026  0.00  0.00    -0.295 N 
ATOM     20  H   UNL     1       0.222  -3.313   7.059  0.00  0.00    +0.154 HD
BRANCH  19  21
ATOM     21  C   UNL     1       0.725  -4.947   8.213  0.00  0.00    +0.051 A 
ATOM     22  C   UNL     1       1.818  -5.802   8.331  0.00  0.00    +0.026 A 
ATOM     23  C   UNL     1       2.000  -6.478   9.525  0.00  0.00    +0.021 A 
ATOM     24  C   UNL     1       1.097  -6.285  10.555  0.00  0.00    +0.111 A 
ATOM     25  N   UNL     1       0.071  -5.469  10.412  0.00  0.00    -0.261 NA
ATOM     26  C   UNL     1      -0.135  -4.801   9.294  0.00  0.00    +0.134 A 
ENDBRANCH  19  21
ENDBRANCH  17  19
ENDBRANCH  15  17
ENDBRANCH   1  15
TORSDOF 7
