REMARK  Name = ZINC34969925
REMARK  14 active torsions:
REMARK  status: ('A' for Active; 'I' for Inactive)
REMARK    1  A    between atoms: C_1  and  C_2
REMARK    2  A    between atoms: C_2  and  C_3
REMARK    3  A    between atoms: C_3  and  C_5
REMARK    4  A    between atoms: C_3  and  C_6
REMARK    5  A    between atoms: C_6  and  C_8
REMARK    6  A    between atoms: C_6  and  N_25
REMARK    7  A    between atoms: N_13  and  C_16
REMARK    8  A    between atoms: C_16  and  C_17
REMARK    9  A    between atoms: C_18  and  C_19
REMARK   10  A    between atoms: N_25  and  S_26
REMARK   11  A    between atoms: S_26  and  C_29
REMARK   12  A    between atoms: C_30  and  C_37
REMARK   13  A    between atoms: C_32  and  C_36
REMARK   14  A    between atoms: C_34  and  C_35
REMARK                            x       y       z     vdW  Elec       q    Type
REMARK                         _______ _______ _______ _____ _____    ______ ____
ROOT
ATOM      1  C   UNL     1      -0.702  -0.734  -1.499  0.00  0.00    +0.165 C 
ENDROOT
BRANCH   1   2
ATOM      2  C   UNL     1      -0.879  -1.646  -2.686  0.00  0.00    +0.235 C 
ATOM      3  O   UNL     1      -0.753  -1.209  -3.810  0.00  0.00    -0.274 OA
ATOM      4  N   UNL     1      -1.177  -2.947  -2.497  0.00  0.00    -0.298 N 
ATOM      5  C   UNL     1      -1.468  -3.467  -1.153  0.00  0.00    +0.123 C 
ATOM      6  C   UNL     1      -2.790  -4.240  -1.205  0.00  0.00    +0.103 C 
ATOM      7  N   UNL     1      -2.717  -5.257  -2.263  0.00  0.00    -0.296 NA
ATOM      8  C   UNL     1      -2.554  -4.639  -3.585  0.00  0.00    +0.103 C 
ATOM      9  C   UNL     1      -1.228  -3.882  -3.632  0.00  0.00    +0.123 C 
BRANCH   7  10
ATOM     10  C   UNL     1      -3.896  -6.133  -2.233  0.00  0.00    +0.111 C 
BRANCH  10  11
ATOM     11  C   UNL     1      -3.678  -7.302  -3.158  0.00  0.00    -0.011 C 
ATOM     12  C   UNL     1      -3.795  -8.541  -2.700  0.00  0.00    +0.005 C 
BRANCH  12  13
ATOM     13  C   UNL     1      -3.580  -9.687  -3.608  0.00  0.00    -0.025 A 
ATOM     14  C   UNL     1      -3.248  -9.470  -4.946  0.00  0.00    +0.008 A 
ATOM     15  C   UNL     1      -3.049 -10.544  -5.788  0.00  0.00    +0.001 A 
ATOM     16  C   UNL     1      -3.179 -11.836  -5.308  0.00  0.00    +0.000 A 
ATOM     17  C   UNL     1      -3.508 -12.058  -3.983  0.00  0.00    +0.001 A 
ATOM     18  C   UNL     1      -3.703 -10.992  -3.129  0.00  0.00    +0.008 A 
ENDBRANCH  12  13
ENDBRANCH  10  11
ENDBRANCH   7  10
ENDBRANCH   1   2
BRANCH   1  19
ATOM     19  C   UNL     1       0.526  -1.171  -0.698  0.00  0.00    +0.013 C 
ATOM     20  C   UNL     1       0.605  -0.360   0.597  0.00  0.00    +0.009 C 
BRANCH  19  22
ATOM     21  C   UNL     1       1.879  -1.984  -2.635  0.00  0.00    +0.004 C 
ATOM     22  C   UNL     1       1.788  -0.931  -1.528  0.00  0.00    +0.002 C 
ENDBRANCH  19  22
ENDBRANCH   1  19
BRANCH   1  23
ATOM     23  N   UNL     1      -0.517   0.643  -1.965  0.00  0.00    -0.178 NA
ATOM     24  H   UNL     1       0.225   0.861  -2.551  0.00  0.00    +0.149 HD
BRANCH  23  25
ATOM     25  S   UNL     1      -1.573   1.827  -1.491  0.00  0.00    +0.060 S 
ATOM     26  O   UNL     1      -1.186   3.013  -2.171  0.00  0.00    -0.153 OA
ATOM     27  O   UNL     1      -2.878   1.276  -1.603  0.00  0.00    -0.153 OA
BRANCH  25  28
ATOM     28  C   UNL     1      -1.295   2.117   0.225  0.00  0.00    +0.111 A 
ATOM     29  C   UNL     1      -0.374   3.068   0.625  0.00  0.00    -0.024 A 
ATOM     30  C   UNL     1      -0.156   3.295   1.970  0.00  0.00    +0.008 A 
ATOM     31  C   UNL     1      -0.859   2.572   2.916  0.00  0.00    -0.050 A 
ATOM     32  C   UNL     1      -1.780   1.622   2.517  0.00  0.00    +0.008 A 
ATOM     33  C   UNL     1      -2.001   1.398   1.171  0.00  0.00    -0.024 A 
ATOM     34  C   UNL     1      -3.009   0.365   0.735  0.00  0.00    +0.046 C 
ATOM     35  C   UNL     1      -0.620   2.820   4.384  0.00  0.00    +0.044 C 
ATOM     36  C   UNL     1       0.391   3.856  -0.407  0.00  0.00    +0.046 C 
ENDBRANCH  25  28
ENDBRANCH  23  25
ENDBRANCH   1  23
TORSDOF 9
