REMARK  Name = ZINC25246373
REMARK  11 active torsions:
REMARK  status: ('A' for Active; 'I' for Inactive)
REMARK    1  A    between atoms: C_1  and  N_2
REMARK    2  A    between atoms: N_2  and  C_3
REMARK    3  A    between atoms: C_3  and  C_4
REMARK    4  A    between atoms: C_7  and  C_9
REMARK    5  A    between atoms: C_16  and  C_18
REMARK    6  A    between atoms: C_18  and  S_19
REMARK    7  A    between atoms: S_19  and  C_20
REMARK    8  A    between atoms: C_23  and  C_30
REMARK    9  A    between atoms: N_24  and  C_25
REMARK   10  A    between atoms: C_25  and  C_26
REMARK   11  A    between atoms: C_26  and  C_27
REMARK                            x       y       z     vdW  Elec       q    Type
REMARK                         _______ _______ _______ _____ _____    ______ ____
ROOT
ATOM      1  C   UNL     1      -5.170  -3.570   0.095  0.00  0.00    +0.173 C 
ENDROOT
BRANCH   1   4
ATOM      2  C   UNL     1      -6.050  -6.229  -0.340  0.00  0.00    +0.132 C 
ATOM      3  N   UNL     1      -7.024  -5.207   0.050  0.00  0.00    -0.297 N 
ATOM      4  C   UNL     1      -6.622  -3.938   0.261  0.00  0.00    +0.226 C 
ATOM      5  O   UNL     1      -7.429  -3.092   0.584  0.00  0.00    -0.275 OA
BRANCH   3   6
ATOM      6  C   UNL     1      -8.436  -5.564   0.211  0.00  0.00    +0.181 C 
BRANCH   6   7
ATOM      7  C   UNL     1      -9.152  -5.385  -1.103  0.00  0.00    +0.123 A 
ATOM      8  C   UNL     1      -9.294  -6.328  -2.055  0.00  0.00    +0.047 A 
ATOM      9  C   UNL     1     -10.024  -5.743  -3.109  0.00  0.00    +0.050 A 
ATOM     10  C   UNL     1     -10.290  -4.463  -2.739  0.00  0.00    +0.135 A 
ATOM     11  O   UNL     1      -9.760  -4.261  -1.517  0.00  0.00    -0.458 OA
BRANCH  10  12
ATOM     12  C   UNL     1     -11.037  -3.467  -3.535  0.00  0.00    +0.017 A 
ATOM     13  C   UNL     1     -11.536  -3.807  -4.793  0.00  0.00    +0.013 A 
ATOM     14  C   UNL     1     -12.237  -2.875  -5.530  0.00  0.00    +0.021 A 
ATOM     15  C   UNL     1     -12.436  -1.600  -5.028  0.00  0.00    +0.041 A 
ATOM     16  C   UNL     1     -11.939  -1.254  -3.782  0.00  0.00    +0.021 A 
ATOM     17  C   UNL     1     -11.241  -2.180  -3.034  0.00  0.00    +0.013 A 
ATOM     18 CL   UNL     1     -13.312  -0.429  -5.963  0.00  0.00    -0.084 Cl
ENDBRANCH  10  12
ENDBRANCH   6   7
ENDBRANCH   3   6
ENDBRANCH   1   4
BRANCH   1  19
ATOM     19  S   UNL     1      -4.950  -1.808   0.446  0.00  0.00    -0.077 S 
BRANCH  19  20
ATOM     20  C   UNL     1      -3.214  -1.659   0.184  0.00  0.00    +0.192 A 
ATOM     21  N   UNL     1      -2.393  -2.623  -0.168  0.00  0.00    -0.122 NA
ATOM     22  N   UNL     1      -1.196  -2.168  -0.277  0.00  0.00    -0.125 NA
ATOM     23  C   UNL     1      -1.177  -0.884   0.009  0.00  0.00    +0.200 A 
ATOM     24  N   UNL     1      -2.471  -0.518   0.309  0.00  0.00    -0.299 N 
BRANCH  23  25
ATOM     25  C   UNL     1       0.002  -0.004   0.002  0.00  0.00    +0.172 A 
ATOM     26  C   UNL     1       1.303  -0.409  -0.013  0.00  0.00    +0.053 A 
ATOM     27  C   UNL     1       2.091   0.758  -0.014  0.00  0.00    +0.042 A 
ATOM     28  C   UNL     1       1.245   1.807  -0.000  0.00  0.00    +0.196 A 
ATOM     29  O   UNL     1      -0.016   1.343   0.009  0.00  0.00    -0.460 OA
ENDBRANCH  23  25
BRANCH  24  30
ATOM     30  C   UNL     1      -2.950   0.814   0.684  0.00  0.00    +0.135 C 
BRANCH  30  31
ATOM     31  C   UNL     1      -3.353   1.584  -0.575  0.00  0.00    +0.117 C 
BRANCH  31  32
ATOM     32  C   UNL     1      -3.846   2.955  -0.189  0.00  0.00    +0.212 C 
ATOM     33  O   UNL     1      -3.872   3.284   0.978  0.00  0.00    -0.276 OA
ATOM     34  N   UNL     1      -4.258   3.816  -1.141  0.00  0.00    -0.329 N 
ATOM     35  H   UNL     1      -4.617   4.816  -0.860  0.00  0.00    +0.145 HD
ATOM     36  H   UNL     1      -4.234   3.518  -2.200  0.00  0.00    +0.145 HD
ENDBRANCH  31  32
ENDBRANCH  30  31
ENDBRANCH  24  30
ENDBRANCH  19  20
ENDBRANCH   1  19
TORSDOF 10
