REMARK  Name = ZINC39940719
REMARK  7 active torsions:
REMARK  status: ('A' for Active; 'I' for Inactive)
REMARK    1  A    between atoms: C_1  and  C_2
REMARK    2  A    between atoms: C_10  and  C_14
REMARK    3  A    between atoms: C_14  and  C_16
REMARK    4  A    between atoms: C_14  and  S_17
REMARK    5  A    between atoms: S_17  and  C_18
REMARK    6  A    between atoms: C_22  and  C_25
REMARK    7  A    between atoms: N_23  and  N_24
REMARK                            x       y       z     vdW  Elec       q    Type
REMARK                         _______ _______ _______ _____ _____    ______ ____
ROOT
ATOM      1  C   UNL     1       7.523  -3.104   0.793  0.00  0.00    +0.112 C 
ATOM      2  C   UNL     1       7.199  -4.390   1.555  0.00  0.00    +0.027 C 
ENDROOT
BRANCH   1  11
ATOM      3  C   UNL     1      -0.019   1.526   0.010  0.00  0.00    +0.007 C 
ATOM      4  C   UNL     1       0.002  -0.004   0.002  0.00  0.00    -0.012 C 
ATOM      5  C   UNL     1       0.702  -0.489  -1.265  0.00  0.00    +0.008 C 
ATOM      6  C   UNL     1       2.123   0.085  -1.344  0.00  0.00    +0.033 C 
ATOM      7  C   UNL     1       2.809  -0.264  -0.025  0.00  0.00    -0.042 C 
ATOM      8  C   UNL     1       3.969  -0.911   0.083  0.00  0.00    +0.071 C 
ATOM      9  C   UNL     1       4.411  -1.344   1.435  0.00  0.00    +0.112 C 
ATOM     10  N   UNL     1       5.516  -2.025   1.629  0.00  0.00    -0.226 NA
ATOM     11  C   UNL     1       6.254  -2.325   0.560  0.00  0.00    +0.136 C 
ATOM     12  N   UNL     1       5.969  -1.998  -0.674  0.00  0.00    -0.160 NA
ATOM     13  C   UNL     1       4.875  -1.309  -1.047  0.00  0.00    +0.271 C 
ATOM     14  O   UNL     1       4.637  -1.030  -2.210  0.00  0.00    -0.268 OA
ATOM     15  S   UNL     1       3.169  -0.735   2.531  0.00  0.00    -0.097 S 
ATOM     16  C   UNL     1       2.124   0.120   1.289  0.00  0.00    +0.080 C 
ATOM     17  C   UNL     1       0.729  -0.504   1.254  0.00  0.00    +0.022 C 
ENDBRANCH   1  11
BRANCH   1  18
ATOM     18  S   UNL     1       8.278  -3.520  -0.803  0.00  0.00    -0.106 S 
BRANCH  18  19
ATOM     19  C   UNL     1       9.849  -4.309  -0.352  0.00  0.00    +0.252 C 
ATOM     20  N   UNL     1       9.611  -5.464   0.531  0.00  0.00    -0.236 N 
ATOM     21  N   UNL     1      10.265  -5.179   1.736  0.00  0.00    -0.167 NA
ATOM     22  C   UNL     1      10.853  -4.027   1.695  0.00  0.00    +0.169 C 
ATOM     23  N   UNL     1      10.670  -3.397   0.461  0.00  0.00    -0.220 N 
ATOM     24  H   UNL     1       9.103  -6.262   0.319  0.00  0.00    +0.171 HD
BRANCH  22  25
ATOM     25  C   UNL     1      11.621  -3.450   2.811  0.00  0.00    +0.055 A 
ATOM     26  C   UNL     1      11.870  -3.978   4.053  0.00  0.00    +0.019 A 
ATOM     27  C   UNL     1      12.623  -3.246   4.942  0.00  0.00    +0.008 A 
ATOM     28  C   UNL     1      13.096  -2.030   4.566  0.00  0.00    +0.046 A 
ATOM     29  S   UNL     1      12.479  -1.887   2.897  0.00  0.00    -0.094 S 
ENDBRANCH  22  25
BRANCH  23  30
ATOM     30  N   UNL     1      11.155  -2.177   0.083  0.00  0.00    -0.250 NA
ATOM     31  H   UNL     1      11.689  -1.754   0.827  0.00  0.00    +0.141 HD
ATOM     32  H   UNL     1      11.704  -2.252  -0.760  0.00  0.00    +0.141 HD
ENDBRANCH  23  30
ENDBRANCH  18  19
ENDBRANCH   1  18
TORSDOF 5
