REMARK  Name = ZINC33331595
REMARK  5 active torsions:
REMARK  status: ('A' for Active; 'I' for Inactive)
REMARK    1  A    between atoms: C_1  and  C_2
REMARK    2  A    between atoms: C_7  and  C_19
REMARK    3  A    between atoms: N_12  and  C_13
REMARK    4  A    between atoms: C_13  and  C_14
REMARK    5  A    between atoms: C_21  and  C_24
REMARK                            x       y       z     vdW  Elec       q    Type
REMARK                         _______ _______ _______ _____ _____    ______ ____
ROOT
ATOM      1  C   UNL     1      -0.559   0.962  -0.071  0.00  0.00    +0.044 C 
ATOM      2  C   UNL     1      -1.117   1.455   1.240  0.00  0.00    -0.048 A 
ATOM      3  C   UNL     1      -2.496   1.567   1.399  0.00  0.00    +0.004 A 
ATOM      4  C   UNL     1      -3.030   2.004   2.573  0.00  0.00    +0.010 A 
ATOM      5  C   UNL     1      -2.179   2.359   3.633  0.00  0.00    +0.001 A 
ATOM      6  C   UNL     1      -2.698   2.820   4.858  0.00  0.00    +0.025 A 
ATOM      7  C   UNL     1      -1.804   3.151   5.861  0.00  0.00    +0.063 A 
ATOM      8  C   UNL     1      -0.417   3.018   5.628  0.00  0.00    +0.131 A 
ATOM      9  N   UNL     1       0.045   2.585   4.475  0.00  0.00    -0.231 NA
ATOM     10  C   UNL     1      -0.776   2.251   3.472  0.00  0.00    +0.073 A 
ATOM     11  C   UNL     1      -0.264   1.790   2.247  0.00  0.00    +0.031 A 
ATOM     12  N   UNL     1       0.474   3.350   6.634  0.00  0.00    -0.324 N 
ATOM     13  H   UNL     1       0.106   3.793   7.571  0.00  0.00    +0.148 HD
ENDROOT
BRANCH   7  14
ATOM     14  C   UNL     1      -2.298   3.641   7.171  0.00  0.00    +0.205 A 
ATOM     15  N   UNL     1      -1.894   3.218   8.390  0.00  0.00    -0.191 NA
ATOM     16  C   UNL     1      -2.587   3.919   9.253  0.00  0.00    +0.225 A 
ATOM     17  O   UNL     1      -3.386   4.729   8.551  0.00  0.00    -0.338 OA
ATOM     18  N   UNL     1      -3.210   4.559   7.363  0.00  0.00    -0.056 NA
ATOM     19  C   UNL     1      -2.503   3.827  10.755  0.00  0.00    +0.112 C 
ENDBRANCH   7  14
BRANCH  12  20
ATOM     20  C   UNL     1       1.908   3.110   6.450  0.00  0.00    +0.145 C 
BRANCH  20  21
ATOM     21  C   UNL     1       2.654   3.555   7.682  0.00  0.00    +0.007 A 
ATOM     22  C   UNL     1       2.968   2.845   8.793  0.00  0.00    +0.013 A 
ATOM     23  C   UNL     1       3.667   3.467   9.810  0.00  0.00    +0.008 A 
ATOM     24  C   UNL     1       4.016   4.769   9.668  0.00  0.00    +0.045 A 
ATOM     25  S   UNL     1       3.358   5.153   8.054  0.00  0.00    -0.100 S 
ENDBRANCH  20  21
ENDBRANCH  12  20
TORSDOF 3
