REMARK  Name = ZINC25712768
REMARK  9 active torsions:
REMARK  status: ('A' for Active; 'I' for Inactive)
REMARK    1  A    between atoms: C_1  and  C_2
REMARK    2  A    between atoms: C_3  and  C_30
REMARK    3  A    between atoms: C_4  and  C_27
REMARK    4  A    between atoms: C_5  and  S_9
REMARK    5  A    between atoms: C_7  and  C_8
REMARK    6  A    between atoms: S_9  and  C_10
REMARK    7  A    between atoms: C_10  and  C_11
REMARK    8  A    between atoms: C_19  and  C_21
REMARK    9  A    between atoms: N_25  and  C_26
REMARK                            x       y       z     vdW  Elec       q    Type
REMARK                         _______ _______ _______ _____ _____    ______ ____
ROOT
ATOM      1  C   UNL     1       4.161   1.710   2.217  0.00  0.00    +0.171 C 
ENDROOT
BRANCH   1   2
ATOM      2  C   UNL     1       3.193   2.271   1.208  0.00  0.00    +0.226 C 
ATOM      3  O   UNL     1       2.593   1.525   0.464  0.00  0.00    -0.275 OA
ATOM      4  N   UNL     1       2.995   3.602   1.132  0.00  0.00    -0.292 N 
ATOM      5  C   UNL     1       3.830   4.490   1.964  0.00  0.00    +0.108 C 
ATOM      6  C   UNL     1       4.299   5.737   1.193  0.00  0.00    +0.019 C 
ATOM      7  C   UNL     1       4.687   5.360  -0.215  0.00  0.00    +0.002 C 
ATOM      8  C   UNL     1       3.478   5.516  -1.133  0.00  0.00    +0.002 C 
ATOM      9  C   UNL     1       2.586   4.348  -1.163  0.00  0.00    +0.029 C 
ATOM     10  C   UNL     1       1.974   4.101   0.238  0.00  0.00    +0.123 C 
BRANCH  10  11
ATOM     11  C   UNL     1       0.864   3.088   0.130  0.00  0.00    +0.039 A 
ATOM     12  C   UNL     1      -0.102   2.873   1.046  0.00  0.00    +0.024 A 
ATOM     13  C   UNL     1      -0.931   1.846   0.553  0.00  0.00    +0.019 A 
ATOM     14  C   UNL     1      -0.437   1.470  -0.644  0.00  0.00    +0.085 A 
ATOM     15  N   UNL     1       0.661   2.232  -0.911  0.00  0.00    -0.352 N 
ATOM     16  C   UNL     1       1.490   2.142  -2.116  0.00  0.00    +0.148 C 
ENDBRANCH  10  11
ENDBRANCH   1   2
BRANCH   1  17
ATOM     17  S   UNL     1       4.205  -0.094   2.073  0.00  0.00    -0.096 S 
BRANCH  17  22
ATOM     18  C   UNL     1       8.215  -1.277   6.379  0.00  0.00    +0.046 C 
ATOM     19  C   UNL     1       7.204  -1.028   5.289  0.00  0.00    -0.026 A 
ATOM     20  C   UNL     1       6.667  -2.088   4.581  0.00  0.00    -0.031 A 
ATOM     21  C   UNL     1       5.728  -1.813   3.581  0.00  0.00    +0.071 A 
ATOM     22  C   UNL     1       5.379  -0.474   3.330  0.00  0.00    +0.110 A 
ATOM     23  N   UNL     1       5.925   0.504   4.039  0.00  0.00    -0.245 NA
ATOM     24  C   UNL     1       6.807   0.263   4.989  0.00  0.00    +0.043 A 
ATOM     25  C   UNL     1       7.394   1.416   5.762  0.00  0.00    +0.066 C 
ATOM     26  C   UNL     1       7.079  -3.506   4.884  0.00  0.00    +0.045 C 
BRANCH  21  27
ATOM     27  C   UNL     1       5.120  -2.905   2.801  0.00  0.00    +0.244 C 
ATOM     28  O   UNL     1       5.648  -3.285   1.773  0.00  0.00    -0.270 OA
ATOM     29  N   UNL     1       3.979  -3.483   3.226  0.00  0.00    -0.325 N 
ATOM     30  H   UNL     1       3.525  -4.299   2.643  0.00  0.00    +0.145 HD
ATOM     31  H   UNL     1       3.502  -3.140   4.155  0.00  0.00    +0.145 HD
ENDBRANCH  21  27
ENDBRANCH  17  22
ENDBRANCH   1  17
TORSDOF 5
