REMARK  Name = ZINC01605043
REMARK  2 active torsions:
REMARK  status: ('A' for Active; 'I' for Inactive)
REMARK    1  A    between atoms: C_1  and  N_2
REMARK    2  A    between atoms: C_11  and  O_13
REMARK                            x       y       z     vdW  Elec       q    Type
REMARK                         _______ _______ _______ _____ _____    ______ ____
ROOT
ATOM      1  C   UNL     1       3.457  -1.975  -0.733  0.00  0.00    +0.132 C 
ATOM      2  N   UNL     1       3.606  -0.701  -0.016  0.00  0.00    -0.304 N 
ATOM      3  C   UNL     1       2.406   0.017  -0.016  0.00  0.00    +0.054 A 
ATOM      4  C   UNL     1       1.205  -0.684  -0.011  0.00  0.00    +0.046 A 
ATOM      5  C   UNL     1       0.002  -0.004   0.002  0.00  0.00    +0.061 A 
ATOM      6  C   UNL     1      -0.017   1.380   0.010  0.00  0.00    +0.061 A 
ATOM      7  C   UNL     1       1.173   2.087   0.002  0.00  0.00    +0.046 A 
ATOM      8  C   UNL     1       2.382   1.409  -0.013  0.00  0.00    +0.051 A 
ATOM      9  N   UNL     1       3.584   2.138  -0.029  0.00  0.00    -0.319 N 
ATOM     10  C   UNL     1       4.833   1.400   0.214  0.00  0.00    +0.229 C 
ATOM     11  C   UNL     1       4.735   0.070  -0.544  0.00  0.00    +0.244 C 
ATOM     12  C   UNL     1       4.982   1.134   1.684  0.00  0.00    +0.257 C 
ATOM     13  O   UNL     1       4.119   0.507   2.260  0.00  0.00    -0.272 OA
ATOM     14  N   UNL     1       6.043   1.571   2.377  0.00  0.00    -0.238 N 
ATOM     15  C   UNL     1       7.030   2.271   1.796  0.00  0.00    +0.312 C 
ATOM     16  O   UNL     1       7.971   2.639   2.471  0.00  0.00    -0.252 OA
ATOM     17  N   UNL     1       7.005   2.574   0.490  0.00  0.00    -0.238 N 
ATOM     18  C   UNL     1       5.996   2.193  -0.307  0.00  0.00    +0.257 C 
ATOM     19  O   UNL     1       6.024   2.497  -1.480  0.00  0.00    -0.272 OA
ATOM     20 CL   UNL     1      -1.531   2.229   0.021  0.00  0.00    -0.082 Cl
ATOM     21 CL   UNL     1      -1.492  -0.889   0.008  0.00  0.00    -0.082 Cl
ATOM     22  H   UNL     1       3.589   3.094  -0.196  0.00  0.00    +0.148 HD
ATOM     23  H   UNL     1       6.099   1.377   3.326  0.00  0.00    +0.159 HD
ATOM     24  H   UNL     1       7.738   3.084   0.111  0.00  0.00    +0.159 HD
ENDROOT
BRANCH  11  25
ATOM     25  O   UNL     1       4.530   0.327  -1.935  0.00  0.00    -0.371 OA
ATOM     26  H   UNL     1       4.458  -0.472  -2.475  0.00  0.00    +0.212 HD
ENDBRANCH  11  25
TORSDOF 1
