REMARK  Name = ZINC09233316
REMARK  1 active torsions:
REMARK  status: ('A' for Active; 'I' for Inactive)
REMARK    1  A    between atoms: C_5  and  N_7
REMARK                            x       y       z     vdW  Elec       q    Type
REMARK                         _______ _______ _______ _____ _____    ______ ____
ROOT
ATOM      1  N   UNL     1       1.236  -2.083  -0.021  0.00  0.00    -0.209 N 
ATOM      2  C   UNL     1       1.237  -2.801  -1.150  0.00  0.00    +0.228 C 
ATOM      3  O   UNL     1       1.216  -2.342  -2.272  0.00  0.00    -0.275 OA
ATOM      4  C   UNL     1       1.267  -4.273  -0.809  0.00  0.00    +0.074 C 
ATOM      5  C   UNL     1      -0.073  -4.919  -1.204  0.00  0.00    -0.054 C 
ATOM      6  C   UNL     1      -0.738  -4.079  -2.309  0.00  0.00    -0.016 C 
ATOM      7  C   UNL     1      -1.638  -3.067  -1.573  0.00  0.00    -0.020 C 
ATOM      8  C   UNL     1      -1.424  -3.354  -0.074  0.00  0.00    -0.076 C 
ATOM      9  C   UNL     1      -0.051  -4.930   1.141  0.00  0.00    +0.053 C 
ATOM     10  C   UNL     1       1.280  -4.281   0.745  0.00  0.00    +0.089 C 
ATOM     11  C   UNL     1       1.264  -2.812   1.101  0.00  0.00    +0.229 C 
ATOM     12  O   UNL     1       1.272  -2.364   2.228  0.00  0.00    -0.275 OA
ATOM     13  C   UNL     1      -0.618  -4.302   2.383  0.00  0.00    -0.024 A 
ATOM     14  C   UNL     1      -1.000  -3.018   2.705  0.00  0.00    +0.043 A 
ATOM     15  C   UNL     1      -1.502  -2.740   3.966  0.00  0.00    +0.124 A 
ATOM     16  C   UNL     1      -1.617  -3.757   4.900  0.00  0.00    +0.040 A 
ATOM     17  C   UNL     1      -1.236  -5.043   4.580  0.00  0.00    +0.026 A 
ATOM     18  C   UNL     1      -0.731  -5.330   3.314  0.00  0.00    +0.036 A 
ATOM     19  N   UNL     1      -0.285  -6.533   2.760  0.00  0.00    -0.286 N 
ATOM     20  C   UNL     1       0.129  -6.383   1.487  0.00  0.00    +0.212 C 
ATOM     21  O   UNL     1       0.564  -7.252   0.760  0.00  0.00    -0.277 OA
ATOM     22  F   UNL     1      -1.876  -1.482   4.284  0.00  0.00    -0.205 F 
ATOM     23  H   UNL     1      -0.276  -7.378   3.236  0.00  0.00    +0.155 HD
ATOM     24  N   UNL     1      -0.903  -4.736  -0.036  0.00  0.00    +0.395 N 
ATOM     25  H   UNL     1      -1.679  -5.408  -0.028  0.00  0.00    -0.079 HD
ENDROOT
BRANCH   1  30
ATOM     26  C   UNL     1      -0.017   1.377   0.010  0.00  0.00    +0.002 A 
ATOM     27  C   UNL     1       1.170   2.087   0.002  0.00  0.00    +0.002 A 
ATOM     28  C   UNL     1       2.380   1.417  -0.013  0.00  0.00    +0.022 A 
ATOM     29  C   UNL     1       2.405   0.034  -0.021  0.00  0.00    +0.063 A 
ATOM     30  C   UNL     1       1.214  -0.681  -0.013  0.00  0.00    +0.062 A 
ATOM     31  C   UNL     1       0.002  -0.004   0.002  0.00  0.00    +0.025 A 
ATOM     32 CL   UNL     1       3.924  -0.807  -0.039  0.00  0.00    -0.082 Cl
ENDBRANCH   1  30
TORSDOF 1
