REMARK  Name = ZINC36207766
REMARK  14 active torsions:
REMARK  status: ('A' for Active; 'I' for Inactive)
REMARK    1  A    between atoms: C_1  and  C_2
REMARK    2  A    between atoms: C_7  and  O_8
REMARK    3  A    between atoms: O_8  and  C_9
REMARK    4  A    between atoms: C_9  and  C_10
REMARK    5  A    between atoms: C_10  and  C_12
REMARK    6  A    between atoms: C_10  and  O_37
REMARK    7  A    between atoms: C_12  and  N_13
REMARK    8  A    between atoms: N_13  and  C_14
REMARK    9  A    between atoms: N_13  and  C_18
REMARK   10  A    between atoms: C_14  and  C_15
REMARK   11  A    between atoms: C_15  and  O_16
REMARK   12  A    between atoms: O_16  and  C_17
REMARK   13  A    between atoms: C_18  and  C_19
REMARK   14  A    between atoms: C_25  and  C_30
REMARK                            x       y       z     vdW  Elec       q    Type
REMARK                         _______ _______ _______ _____ _____    ______ ____
ROOT
ATOM      1  N   UNL     1       0.287   0.193   7.023  0.00  0.00    +0.388 N 
ATOM      2  H   UNL     1       0.942   0.821   6.583  0.00  0.00    -0.081 HD
ENDROOT
BRANCH   1   3
ATOM      3  C   UNL     1      -0.083  -0.870   6.079  0.00  0.00    -0.043 C 
BRANCH   3   4
ATOM      4  C   UNL     1      -0.554  -0.244   4.765  0.00  0.00    +0.135 C 
BRANCH   4   5
ATOM      5  O   UNL     1      -1.797   0.429   4.977  0.00  0.00    -0.390 OA
ATOM      6  H   UNL     1      -2.508  -0.147   5.290  0.00  0.00    +0.210 HD
ENDBRANCH   4   5
BRANCH   4   7
ATOM      7  C   UNL     1      -0.741  -1.341   3.716  0.00  0.00    +0.258 C 
BRANCH   7   8
ATOM      8  O   UNL     1      -1.069  -0.747   2.458  0.00  0.00    -0.489 OA
BRANCH   8  15
ATOM      9  C   UNL     1      -1.717   0.408  -0.037  0.00  0.00    +0.047 C 
ATOM     10  C   UNL     1      -1.589  -1.080   0.161  0.00  0.00    -0.009 A 
ATOM     11  C   UNL     1      -1.786  -1.939  -0.904  0.00  0.00    +0.007 A 
ATOM     12  C   UNL     1      -1.669  -3.304  -0.723  0.00  0.00    +0.000 A 
ATOM     13  C   UNL     1      -1.355  -3.815   0.523  0.00  0.00    +0.004 A 
ATOM     14  C   UNL     1      -1.157  -2.961   1.591  0.00  0.00    +0.046 A 
ATOM     15  C   UNL     1      -1.268  -1.589   1.411  0.00  0.00    +0.124 A 
ENDBRANCH   8  15
ENDBRANCH   7   8
ENDBRANCH   4   7
ENDBRANCH   3   4
ENDBRANCH   1   3
BRANCH   1  16
ATOM     16  C   UNL     1      -0.916   0.938   7.418  0.00  0.00    -0.050 C 
BRANCH  16  17
ATOM     17  C   UNL     1      -0.523   2.089   8.346  0.00  0.00    +0.141 C 
BRANCH  17  18
ATOM     18  O   UNL     1       0.285   3.024   7.628  0.00  0.00    -0.385 OA
ATOM     19  C   UNL     1       0.801   4.085   8.435  0.00  0.00    +0.193 C 
ENDBRANCH  17  18
ENDBRANCH  16  17
ENDBRANCH   1  16
BRANCH   1  20
ATOM     20  C   UNL     1       0.906  -0.403   8.214  0.00  0.00    -0.003 C 
BRANCH  20  21
ATOM     21  C   UNL     1       2.222  -1.032   7.835  0.00  0.00    +0.094 A 
ATOM     22  N   UNL     1       2.907  -1.754   8.759  0.00  0.00    -0.312 N 
ATOM     23  H   UNL     1       2.540  -1.855   9.651  0.00  0.00    +0.170 HD
ATOM     24  C   UNL     1       4.085  -2.333   8.460  0.00  0.00    +0.260 A 
ATOM     25  O   UNL     1       4.688  -2.978   9.301  0.00  0.00    -0.267 OA
ATOM     26  C   UNL     1       4.619  -2.179   7.141  0.00  0.00    +0.080 A 
ATOM     27  C   UNL     1       5.860  -2.702   6.581  0.00  0.00    +0.004 A 
ATOM     28  C   UNL     1       6.160  -2.422   5.290  0.00  0.00    +0.056 A 
ATOM     29  S   UNL     1       4.780  -1.432   4.750  0.00  0.00    -0.076 S 
ATOM     30  C   UNL     1       3.841  -1.416   6.255  0.00  0.00    +0.116 A 
ATOM     31  N   UNL     1       2.681  -0.878   6.622  0.00  0.00    -0.229 NA
BRANCH  27  32
ATOM     32  C   UNL     1       6.775  -3.523   7.409  0.00  0.00    -0.016 A 
ATOM     33  C   UNL     1       7.162  -3.079   8.673  0.00  0.00    +0.010 A 
ATOM     34  C   UNL     1       8.014  -3.848   9.440  0.00  0.00    +0.020 A 
ATOM     35  C   UNL     1       8.483  -5.057   8.956  0.00  0.00    +0.041 A 
ATOM     36  C   UNL     1       8.102  -5.502   7.702  0.00  0.00    +0.020 A 
ATOM     37  C   UNL     1       7.246  -4.744   6.929  0.00  0.00    +0.010 A 
ATOM     38 CL   UNL     1       9.555  -6.019   9.926  0.00  0.00    -0.084 Cl
ENDBRANCH  27  32
ENDBRANCH  20  21
ENDBRANCH   1  20
TORSDOF 12
