REMARK  Name = ZINC10000954
REMARK  8 active torsions:
REMARK  status: ('A' for Active; 'I' for Inactive)
REMARK    1  A    between atoms: C_4  and  O_25
REMARK    2  A    between atoms: C_5  and  C_7
REMARK    3  A    between atoms: N_8  and  N_9
REMARK    4  A    between atoms: C_10  and  C_12
REMARK    5  A    between atoms: C_12  and  N_13
REMARK    6  A    between atoms: C_14  and  C_16
REMARK    7  A    between atoms: O_25  and  C_26
REMARK    8  A    between atoms: C_26  and  C_27
REMARK                            x       y       z     vdW  Elec       q    Type
REMARK                         _______ _______ _______ _____ _____    ______ ____
ROOT
ATOM      1  N   UNL     1       8.214  -3.671   4.473  0.00  0.00    -0.206 N 
ATOM      2  C   UNL     1       7.043  -3.338   3.894  0.00  0.00    +0.249 C 
ATOM      3  O   UNL     1       6.159  -4.163   3.793  0.00  0.00    -0.272 OA
ATOM      4  H   UNL     1       8.920  -3.012   4.554  0.00  0.00    +0.177 HD
ENDROOT
BRANCH   1   6
ATOM      5  C   UNL     1       9.538  -5.292   5.515  0.00  0.00    +0.142 C 
ATOM      6  N   UNL     1       8.410  -4.971   4.958  0.00  0.00    -0.188 NA
BRANCH   5  11
ATOM      7  C   UNL     1      11.144  -8.291   7.099  0.00  0.00    +0.001 A 
ATOM      8  C   UNL     1      10.135  -9.232   6.984  0.00  0.00    +0.004 A 
ATOM      9  C   UNL     1       8.931  -8.898   6.392  0.00  0.00    +0.046 A 
ATOM     10  C   UNL     1       8.726  -7.616   5.910  0.00  0.00    +0.130 A 
ATOM     11  C   UNL     1       9.745  -6.660   6.025  0.00  0.00    +0.036 A 
ATOM     12  C   UNL     1      10.958  -7.011   6.620  0.00  0.00    +0.013 A 
BRANCH  10  13
ATOM     13  O   UNL     1       7.544  -7.287   5.329  0.00  0.00    -0.487 OA
BRANCH  13  14
ATOM     14  C   UNL     1       6.553  -8.313   5.247  0.00  0.00    +0.264 C 
BRANCH  14  15
ATOM     15  C   UNL     1       5.318  -7.768   4.578  0.00  0.00    -0.010 A 
ATOM     16  C   UNL     1       4.318  -7.191   5.338  0.00  0.00    +0.008 A 
ATOM     17  C   UNL     1       3.188  -6.685   4.724  0.00  0.00    +0.020 A 
ATOM     18  C   UNL     1       3.052  -6.766   3.350  0.00  0.00    +0.041 A 
ATOM     19  C   UNL     1       4.051  -7.349   2.590  0.00  0.00    +0.020 A 
ATOM     20  C   UNL     1       5.184  -7.849   3.204  0.00  0.00    +0.008 A 
ATOM     21 CL   UNL     1       1.630  -6.137   2.578  0.00  0.00    -0.084 Cl
ENDBRANCH  14  15
ENDBRANCH  13  14
ENDBRANCH  10  13
ENDBRANCH   5  11
ENDBRANCH   1   6
BRANCH   2  22
ATOM     22  C   UNL     1       6.831  -1.940   3.373  0.00  0.00    +0.202 C 
BRANCH  22  23
ATOM     23  N   UNL     1       5.489  -1.832   2.796  0.00  0.00    -0.303 N 
ATOM     24  C   UNL     1       5.076  -0.664   2.264  0.00  0.00    +0.245 C 
ATOM     25  O   UNL     1       5.818   0.300   2.264  0.00  0.00    -0.270 OA
ATOM     26  H   UNL     1       4.898  -2.601   2.795  0.00  0.00    +0.150 HD
BRANCH  24  27
ATOM     27  C   UNL     1       3.724  -0.555   1.682  0.00  0.00    +0.040 A 
ATOM     28  C   UNL     1       2.871  -1.662   1.681  0.00  0.00    +0.017 A 
ATOM     29  C   UNL     1       1.609  -1.558   1.138  0.00  0.00    +0.050 A 
ATOM     30  C   UNL     1       1.181  -0.356   0.590  0.00  0.00    +0.166 A 
ATOM     31  C   UNL     1       2.028   0.752   0.588  0.00  0.00    +0.167 A 
ATOM     32  C   UNL     1       3.294   0.654   1.131  0.00  0.00    +0.062 A 
ATOM     33  O   UNL     1       1.376   1.797  -0.001  0.00  0.00    -0.453 OA
ATOM     34  C   UNL     1      -0.017   1.435   0.010  0.00  0.00    +0.466 C 
ATOM     35  O   UNL     1       0.002  -0.004   0.002  0.00  0.00    -0.453 OA
ENDBRANCH  24  27
ENDBRANCH  22  23
ENDBRANCH   2  22
TORSDOF 8
