REMARK  Name = ZINC36048119
REMARK  10 active torsions:
REMARK  status: ('A' for Active; 'I' for Inactive)
REMARK    1  A    between atoms: C_1  and  C_2
REMARK    2  A    between atoms: C_2  and  C_3
REMARK    3  A    between atoms: C_2  and  C_4
REMARK    4  A    between atoms: C_7  and  N_10
REMARK    5  A    between atoms: C_12  and  C_32
REMARK    6  A    between atoms: C_16  and  C_18
REMARK    7  A    between atoms: C_18  and  N_19
REMARK    8  A    between atoms: N_19  and  C_20
REMARK    9  A    between atoms: C_20  and  C_21
REMARK   10  A    between atoms: C_23  and  C_25
REMARK                            x       y       z     vdW  Elec       q    Type
REMARK                         _______ _______ _______ _____ _____    ______ ____
ROOT
ATOM      1  N   UNL     1      -4.637   0.593  -0.309  0.00  0.00    -0.287 N 
ATOM      2  C   UNL     1      -5.167   0.490   0.955  0.00  0.00    +0.122 A 
ATOM      3  C   UNL     1      -6.452   0.079   0.809  0.00  0.00    +0.091 A 
ATOM      4  N   UNL     1      -6.698  -0.063  -0.511  0.00  0.00    -0.214 NA
ATOM      5  C   UNL     1      -5.621   0.247  -1.188  0.00  0.00    +0.207 A 
ATOM      6  N   UNL     1      -5.499   0.225  -2.571  0.00  0.00    -0.254 N 
ATOM      7  C   UNL     1      -6.549  -0.137  -3.334  0.00  0.00    +0.237 C 
ATOM      8  O   UNL     1      -7.601  -0.443  -2.813  0.00  0.00    -0.274 OA
ATOM      9  H   UNL     1      -4.658   0.469  -2.988  0.00  0.00    +0.158 HD
ENDROOT
BRANCH   1  13
ATOM     10  C   UNL     1      -0.755   1.764  -1.275  0.00  0.00    -0.045 A 
ATOM     11  C   UNL     1      -1.510   2.529  -0.405  0.00  0.00    +0.006 A 
ATOM     12  C   UNL     1      -2.797   2.144  -0.083  0.00  0.00    +0.026 A 
ATOM     13  C   UNL     1      -3.332   0.987  -0.634  0.00  0.00    +0.049 A 
ATOM     14  C   UNL     1      -2.571   0.221  -1.507  0.00  0.00    +0.026 A 
ATOM     15  C   UNL     1      -1.287   0.614  -1.829  0.00  0.00    +0.006 A 
BRANCH  10  17
ATOM     16  C   UNL     1       0.618   3.572  -2.272  0.00  0.00    +0.012 C 
ATOM     17  C   UNL     1       0.649   2.186  -1.624  0.00  0.00    +0.013 C 
ATOM     18  C   UNL     1       1.497   2.238  -0.351  0.00  0.00    +0.012 C 
ENDBRANCH  10  17
ENDBRANCH   1  13
BRANCH   3  19
ATOM     19  C   UNL     1      -7.417  -0.170   1.907  0.00  0.00    +0.002 A 
ATOM     20  C   UNL     1      -7.033   0.022   3.233  0.00  0.00    +0.010 A 
ATOM     21  C   UNL     1      -7.935  -0.211   4.251  0.00  0.00    +0.001 A 
ATOM     22  C   UNL     1      -9.219  -0.635   3.958  0.00  0.00    +0.000 A 
ATOM     23  C   UNL     1      -9.606  -0.828   2.644  0.00  0.00    +0.001 A 
ATOM     24  C   UNL     1      -8.714  -0.591   1.617  0.00  0.00    +0.010 A 
ENDBRANCH   3  19
BRANCH   7  25
ATOM     25  C   UNL     1      -6.417  -0.162  -4.835  0.00  0.00    +0.204 C 
BRANCH  25  26
ATOM     26  N   UNL     1      -7.687  -0.585  -5.430  0.00  0.00    -0.285 N 
ATOM     27  C   UNL     1      -7.844  -1.855  -5.851  0.00  0.00    +0.247 C 
ATOM     28  O   UNL     1      -8.888  -2.199  -6.371  0.00  0.00    -0.270 OA
BRANCH  27  29
ATOM     29  C   UNL     1      -6.748  -2.831  -5.679  0.00  0.00    +0.037 A 
ATOM     30  C   UNL     1      -5.775  -2.626  -4.699  0.00  0.00    +0.016 A 
ATOM     31  C   UNL     1      -4.754  -3.540  -4.543  0.00  0.00    +0.039 A 
ATOM     32  C   UNL     1      -4.693  -4.660  -5.358  0.00  0.00    +0.123 A 
ATOM     33  C   UNL     1      -5.656  -4.868  -6.333  0.00  0.00    +0.039 A 
ATOM     34  C   UNL     1      -6.684  -3.964  -6.493  0.00  0.00    +0.016 A 
ATOM     35  F   UNL     1      -3.690  -5.551  -5.201  0.00  0.00    -0.205 F 
ENDBRANCH  27  29
BRANCH  26  36
ATOM     36  C   UNL     1      -8.786   0.374  -5.569  0.00  0.00    +0.135 C 
BRANCH  36  37
ATOM     37  C   UNL     1      -8.751   0.982  -6.947  0.00  0.00    -0.016 C 
ATOM     38  C   UNL     1      -9.813   0.930  -7.713  0.00  0.00    +0.005 C 
ENDBRANCH  36  37
ENDBRANCH  26  36
ENDBRANCH  25  26
ENDBRANCH   7  25
TORSDOF 8
