REMARK  Name = ZINC09873341
REMARK  9 active torsions:
REMARK  status: ('A' for Active; 'I' for Inactive)
REMARK    1  A    between atoms: C_1  and  C_2
REMARK    2  A    between atoms: C_2  and  C_4
REMARK    3  A    between atoms: C_2  and  S_17
REMARK    4  A    between atoms: N_6  and  C_7
REMARK    5  A    between atoms: C_9  and  N_14
REMARK    6  A    between atoms: S_17  and  C_18
REMARK    7  A    between atoms: C_21  and  C_29
REMARK    8  A    between atoms: N_22  and  C_23
REMARK    9  A    between atoms: C_29  and  N_56
REMARK                            x       y       z     vdW  Elec       q    Type
REMARK                         _______ _______ _______ _____ _____    ______ ____
ROOT
ATOM      1  C   UNL     1      -4.693   0.553  -0.389  0.00  0.00    +0.197 A 
ATOM      2  N   UNL     1      -4.720  -0.667   0.095  0.00  0.00    -0.122 NA
ATOM      3  N   UNL     1      -5.904  -1.155  -0.012  0.00  0.00    -0.135 NA
ATOM      4  C   UNL     1      -6.700  -0.284  -0.565  0.00  0.00    +0.122 A 
ATOM      5  N   UNL     1      -5.959   0.840  -0.821  0.00  0.00    -0.276 N 
ENDROOT
BRANCH   5   6
ATOM      6  C   UNL     1      -6.405   2.034  -1.407  0.00  0.00    +0.050 A 
ATOM      7  C   UNL     1      -7.320   2.836  -0.740  0.00  0.00    +0.026 A 
ATOM      8  C   UNL     1      -7.753   4.014  -1.316  0.00  0.00    +0.002 A 
ATOM      9  C   UNL     1      -7.284   4.389  -2.562  0.00  0.00    +0.000 A 
ATOM     10  C   UNL     1      -6.377   3.589  -3.231  0.00  0.00    +0.002 A 
ATOM     11  C   UNL     1      -5.936   2.412  -2.657  0.00  0.00    +0.026 A 
ENDBRANCH   5   6
BRANCH   1  12
ATOM     12  S   UNL     1      -3.294   1.622  -0.462  0.00  0.00    -0.073 S 
BRANCH  12  14
ATOM     13  C   UNL     1      -2.407   0.284   1.749  0.00  0.00    +0.029 C 
ATOM     14  C   UNL     1      -2.042   0.551   0.288  0.00  0.00    +0.137 C 
BRANCH  14  15
ATOM     15  C   UNL     1      -0.697   1.228   0.221  0.00  0.00    +0.230 C 
ATOM     16  O   UNL     1      -0.629   2.438   0.157  0.00  0.00    -0.274 OA
ATOM     17  N   UNL     1       0.431   0.490   0.234  0.00  0.00    -0.283 N 
ATOM     18  H   UNL     1       0.377  -0.478   0.207  0.00  0.00    +0.155 HD
BRANCH  17  19
ATOM     19  C   UNL     1       1.679   1.121   0.279  0.00  0.00    +0.054 A 
ATOM     20  C   UNL     1       1.784   2.425   0.744  0.00  0.00    +0.057 A 
ATOM     21  C   UNL     1       3.018   3.045   0.787  0.00  0.00    +0.128 A 
ATOM     22  C   UNL     1       4.149   2.368   0.368  0.00  0.00    +0.034 A 
ATOM     23  C   UNL     1       4.049   1.069  -0.095  0.00  0.00    +0.024 A 
ATOM     24  C   UNL     1       2.818   0.441  -0.135  0.00  0.00    +0.062 A 
ATOM     25 CL   UNL     1       2.695  -1.192  -0.710  0.00  0.00    -0.082 Cl
BRANCH  21  26
ATOM     26  N   UNL     1       3.129   4.435   1.282  0.00  0.00    +0.056 N 
ATOM     27  O   UNL     1       2.134   5.032   1.651  0.00  0.00    -0.126 OA
ATOM     28  O   UNL     1       4.217   4.982   1.321  0.00  0.00    -0.126 OA
ENDBRANCH  21  26
ENDBRANCH  17  19
ENDBRANCH  14  15
ENDBRANCH  12  14
ENDBRANCH   1  12
BRANCH   4  29
ATOM     29  C   UNL     1      -8.165  -0.475  -0.863  0.00  0.00    -0.001 C 
BRANCH  29  34
ATOM     30  C   UNL     1      -7.594  -2.424  -2.205  0.00  0.00    -0.078 C 
ATOM     31  C   UNL     1      -8.272  -3.177  -3.377  0.00  0.00    -0.020 C 
ATOM     32  C   UNL     1      -9.756  -2.765  -3.240  0.00  0.00    -0.020 C 
ATOM     33  C   UNL     1      -9.736  -1.450  -2.438  0.00  0.00    -0.078 C 
ATOM     34  N   UNL     1      -8.326  -1.148  -2.187  0.00  0.00    +0.384 N 
ATOM     35  H   UNL     1      -7.966  -0.531  -2.924  0.00  0.00    -0.081 HD
ENDBRANCH  29  34
ENDBRANCH   4  29
TORSDOF 8
