REMARK  Name = ZINC09415994
REMARK  12 active torsions:
REMARK  status: ('A' for Active; 'I' for Inactive)
REMARK    1  A    between atoms: C_1  and  C_2
REMARK    2  A    between atoms: C_2  and  N_3
REMARK    3  A    between atoms: N_3  and  C_4
REMARK    4  A    between atoms: C_4  and  C_5
REMARK    5  A    between atoms: C_6  and  C_8
REMARK    6  A    between atoms: C_8  and  C_10
REMARK    7  A    between atoms: C_8  and  S_16
REMARK    8  A    between atoms: S_16  and  C_17
REMARK    9  A    between atoms: C_20  and  C_29
REMARK   10  A    between atoms: N_21  and  C_22
REMARK   11  A    between atoms: C_29  and  C_31
REMARK   12  A    between atoms: C_29  and  N_69
REMARK                            x       y       z     vdW  Elec       q    Type
REMARK                         _______ _______ _______ _____ _____    ______ ____
ROOT
ATOM      1  C   UNL     1       2.046   0.586  -0.014  0.00  0.00    +0.197 A 
ATOM      2  N   UNL     1       1.214  -0.430  -0.012  0.00  0.00    -0.122 NA
ATOM      3  N   UNL     1       0.002  -0.004   0.002  0.00  0.00    -0.135 NA
ATOM      4  C   UNL     1      -0.016   1.299   0.009  0.00  0.00    +0.125 A 
ATOM      5  N   UNL     1       1.286   1.724  -0.001  0.00  0.00    -0.275 N 
ENDROOT
BRANCH   5   6
ATOM      6  C   UNL     1       1.746   3.050   0.001  0.00  0.00    +0.050 A 
ATOM      7  C   UNL     1       1.488   3.876  -1.083  0.00  0.00    +0.029 A 
ATOM      8  C   UNL     1       1.936   5.183  -1.077  0.00  0.00    +0.040 A 
ATOM      9  C   UNL     1       2.652   5.665   0.006  0.00  0.00    +0.124 A 
ATOM     10  C   UNL     1       2.914   4.840   1.087  0.00  0.00    +0.040 A 
ATOM     11  C   UNL     1       2.463   3.535   1.086  0.00  0.00    +0.029 A 
ATOM     12  F   UNL     1       3.094   6.941   0.008  0.00  0.00    -0.205 F 
ENDBRANCH   5   6
BRANCH   4  13
ATOM     13  C   UNL     1      -1.241   2.176   0.020  0.00  0.00    -0.002 C 
ATOM     14  C   UNL     1      -1.866   2.162   1.417  0.00  0.00    -0.005 C 
BRANCH  13  20
ATOM     15  C   UNL     1      -1.616   1.574  -2.295  0.00  0.00    -0.078 C 
ATOM     16  C   UNL     1      -2.608   0.909  -3.252  0.00  0.00    -0.019 C 
ATOM     17  C   UNL     1      -3.894   1.739  -3.305  0.00  0.00    -0.004 C 
ATOM     18  C   UNL     1      -4.470   1.863  -1.892  0.00  0.00    -0.019 C 
ATOM     19  C   UNL     1      -3.425   2.501  -0.974  0.00  0.00    -0.078 C 
ATOM     20  N   UNL     1      -2.222   1.641  -0.948  0.00  0.00    +0.386 N 
ATOM     21  H   UNL     1      -2.495   0.695  -0.657  0.00  0.00    -0.081 HD
ENDBRANCH  13  20
ENDBRANCH   4  13
BRANCH   1  22
ATOM     22  S   UNL     1       3.805   0.501  -0.032  0.00  0.00    -0.068 S 
BRANCH  22  23
ATOM     23  C   UNL     1       4.033  -1.295  -0.044  0.00  0.00    +0.170 C 
BRANCH  23  24
ATOM     24  C   UNL     1       3.488  -1.862  -1.329  0.00  0.00    -0.025 A 
ATOM     25  C   UNL     1       4.005  -1.447  -2.542  0.00  0.00    +0.005 A 
ATOM     26  C   UNL     1       3.508  -1.971  -3.721  0.00  0.00    +0.000 A 
ATOM     27  C   UNL     1       2.487  -2.902  -3.687  0.00  0.00    +0.000 A 
ATOM     28  C   UNL     1       1.966  -3.313  -2.474  0.00  0.00    +0.000 A 
ATOM     29  C   UNL     1       2.466  -2.793  -1.295  0.00  0.00    +0.005 A 
ENDBRANCH  23  24
BRANCH  23  31
ATOM     30  N   UNL     1       5.896  -2.837   0.475  0.00  0.00    -0.301 N 
ATOM     31  C   UNL     1       5.501  -1.616   0.064  0.00  0.00    +0.233 C 
ATOM     32  O   UNL     1       6.328  -0.775  -0.219  0.00  0.00    -0.274 OA
BRANCH  30  34
ATOM     33  C   UNL     1       7.821  -2.798   1.983  0.00  0.00    +0.024 C 
ATOM     34  C   UNL     1       7.323  -3.149   0.580  0.00  0.00    +0.104 C 
ENDBRANCH  30  34
BRANCH  30  35
ATOM     35  C   UNL     1       4.897  -3.853   0.817  0.00  0.00    +0.104 C 
ATOM     36  C   UNL     1       4.549  -4.667  -0.431  0.00  0.00    +0.024 C 
ENDBRANCH  30  35
ENDBRANCH  23  31
ENDBRANCH  22  23
ENDBRANCH   1  22
TORSDOF 9
