REMARK  Name = ZINC34773898
REMARK  11 active torsions:
REMARK  status: ('A' for Active; 'I' for Inactive)
REMARK    1  A    between atoms: C_1  and  C_2
REMARK    2  A    between atoms: C_2  and  C_3
REMARK    3  A    between atoms: C_4  and  C_37
REMARK    4  A    between atoms: C_8  and  N_27
REMARK    5  A    between atoms: C_10  and  S_12
REMARK    6  A    between atoms: S_12  and  C_13
REMARK    7  A    between atoms: C_13  and  C_14
REMARK    8  A    between atoms: N_16  and  C_17
REMARK    9  A    between atoms: N_30  and  C_33
REMARK   10  A    between atoms: C_33  and  C_34
REMARK   11  A    between atoms: C_34  and  C_36
REMARK                            x       y       z     vdW  Elec       q    Type
REMARK                         _______ _______ _______ _____ _____    ______ ____
ROOT
ATOM      1  C   UNL     1      -1.273  -0.830  -0.317  0.00  0.00    -0.025 A 
ATOM      2  C   UNL     1      -1.745  -0.997   0.927  0.00  0.00    -0.007 A 
ATOM      3  S   UNL     1      -3.419  -1.554   0.665  0.00  0.00    -0.073 S 
ATOM      4  C   UNL     1      -3.438  -1.547  -1.108  0.00  0.00    +0.115 A 
ATOM      5  C   UNL     1      -2.142  -1.106  -1.449  0.00  0.00    +0.051 A 
ATOM      6  C   UNL     1      -1.877  -1.001  -2.843  0.00  0.00    +0.134 A 
ATOM      7  N   UNL     1      -2.829  -1.308  -3.708  0.00  0.00    -0.206 NA
ATOM      8  C   UNL     1      -4.032  -1.714  -3.318  0.00  0.00    +0.191 A 
ATOM      9  N   UNL     1      -4.332  -1.839  -2.032  0.00  0.00    -0.214 NA
ATOM     10  C   UNL     1      -1.032  -0.769   2.234  0.00  0.00    +0.052 C 
ENDROOT
BRANCH   6  11
ATOM     11  N   UNL     1      -0.637  -0.582  -3.289  0.00  0.00    -0.318 N 
ATOM     12  C   UNL     1       0.430  -1.553  -3.579  0.00  0.00    +0.088 C 
ATOM     13  C   UNL     1       0.992  -1.255  -4.973  0.00  0.00    -0.059 C 
ATOM     14  N   UNL     1       1.415   0.149  -5.039  0.00  0.00    +0.384 N 
ATOM     15  C   UNL     1       0.251   1.031  -4.886  0.00  0.00    -0.059 C 
ATOM     16  C   UNL     1      -0.349   0.846  -3.493  0.00  0.00    +0.088 C 
ATOM     17  H   UNL     1       2.076   0.335  -4.300  0.00  0.00    -0.081 HD
BRANCH  14  18
ATOM     18  C   UNL     1       2.054   0.406  -6.337  0.00  0.00    -0.048 C 
BRANCH  18  19
ATOM     19  C   UNL     1       2.598   1.811  -6.360  0.00  0.00    -0.096 C 
ATOM     20  C   UNL     1       3.852   2.033  -6.053  0.00  0.00    +0.005 C 
ATOM     21  C   UNL     1       1.701   2.961  -6.738  0.00  0.00    +0.036 C 
ENDBRANCH  18  19
ENDBRANCH  14  18
ENDBRANCH   6  11
BRANCH   1  23
ATOM     22  C   UNL     1       0.186   1.170  -0.448  0.00  0.00    +0.009 C 
ATOM     23  C   UNL     1       0.140  -0.356  -0.538  0.00  0.00    +0.033 C 
ENDBRANCH   1  23
BRANCH   8  24
ATOM     24  S   UNL     1      -5.248  -2.104  -4.532  0.00  0.00    -0.077 S 
BRANCH  24  25
ATOM     25  C   UNL     1      -6.697  -2.599  -3.559  0.00  0.00    +0.173 C 
BRANCH  25  26
ATOM     26  C   UNL     1      -7.825  -2.964  -4.488  0.00  0.00    +0.228 C 
ATOM     27  O   UNL     1      -7.668  -2.897  -5.689  0.00  0.00    -0.275 OA
ATOM     28  N   UNL     1      -9.010  -3.364  -3.985  0.00  0.00    -0.284 N 
ATOM     29  H   UNL     1      -9.118  -3.474  -3.028  0.00  0.00    +0.155 HD
BRANCH  28  30
ATOM     30  C   UNL     1     -10.081  -3.620  -4.843  0.00  0.00    +0.041 A 
ATOM     31  C   UNL     1      -9.858  -4.146  -6.097  0.00  0.00    +0.024 A 
ATOM     32  C   UNL     1     -10.919  -4.406  -6.959  0.00  0.00    +0.002 A 
ATOM     33  C   UNL     1     -12.204  -4.148  -6.590  0.00  0.00    +0.008 A 
ATOM     34  C   UNL     1     -12.475  -3.612  -5.319  0.00  0.00    -0.016 A 
ATOM     35  C   UNL     1     -11.403  -3.349  -4.431  0.00  0.00    +0.003 A 
ATOM     36  C   UNL     1     -11.676  -2.817  -3.160  0.00  0.00    +0.010 A 
ATOM     37  C   UNL     1     -12.964  -2.567  -2.796  0.00  0.00    +0.001 A 
ATOM     38  C   UNL     1     -14.019  -2.831  -3.667  0.00  0.00    +0.001 A 
ATOM     39  C   UNL     1     -13.791  -3.336  -4.911  0.00  0.00    +0.008 A 
ENDBRANCH  28  30
ENDBRANCH  25  26
ENDBRANCH  24  25
ENDBRANCH   8  24
TORSDOF 8
