REMARK  Name = ZINC38918226
REMARK  10 active torsions:
REMARK  status: ('A' for Active; 'I' for Inactive)
REMARK    1  A    between atoms: C_1  and  C_2
REMARK    2  A    between atoms: C_5  and  C_8
REMARK    3  A    between atoms: C_12  and  S_22
REMARK    4  A    between atoms: N_13  and  C_14
REMARK    5  A    between atoms: C_17  and  O_20
REMARK    6  A    between atoms: O_20  and  C_21
REMARK    7  A    between atoms: S_22  and  C_23
REMARK    8  A    between atoms: C_23  and  C_24
REMARK    9  A    between atoms: N_26  and  N_27
REMARK   10  A    between atoms: C_28  and  C_29
REMARK                            x       y       z     vdW  Elec       q    Type
REMARK                         _______ _______ _______ _____ _____    ______ ____
ROOT
ATOM      1  C   UNL     1       0.051  -4.288  -0.021  0.00  0.00    +0.213 C 
ATOM      2  N   UNL     1       0.711  -4.784  -1.241  0.00  0.00    -0.242 N 
ATOM      3  N   UNL     1       1.837  -5.497  -0.814  0.00  0.00    -0.162 NA
ATOM      4  C   UNL     1       1.938  -5.494   0.473  0.00  0.00    +0.180 C 
ATOM      5  N   UNL     1       0.902  -4.787   1.073  0.00  0.00    -0.254 N 
ATOM      6  H   UNL     1       0.422  -4.645  -2.157  0.00  0.00    +0.170 HD
ENDROOT
BRANCH   1  11
ATOM      7  C   UNL     1      -0.100   1.489   0.001  0.00  0.00    +0.044 C 
ATOM      8  C   UNL     1      -0.060  -0.018  -0.005  0.00  0.00    -0.050 A 
ATOM      9  C   UNL     1      -0.023  -0.704  -1.205  0.00  0.00    +0.004 A 
ATOM     10  C   UNL     1       0.013  -2.086  -1.210  0.00  0.00    +0.007 A 
ATOM     11  C   UNL     1       0.013  -2.782  -0.015  0.00  0.00    -0.008 A 
ATOM     12  C   UNL     1      -0.024  -2.095   1.184  0.00  0.00    +0.007 A 
ATOM     13  C   UNL     1      -0.056  -0.714   1.190  0.00  0.00    +0.004 A 
ENDBRANCH   1  11
BRANCH   5  14
ATOM     14  C   UNL     1       0.704  -4.588   2.444  0.00  0.00    +0.038 A 
ATOM     15  C   UNL     1      -0.414  -5.124   3.070  0.00  0.00    +0.027 A 
ATOM     16  C   UNL     1      -0.607  -4.927   4.423  0.00  0.00    +0.047 A 
ATOM     17  C   UNL     1       0.314  -4.194   5.157  0.00  0.00    +0.120 A 
ATOM     18  C   UNL     1       1.431  -3.658   4.532  0.00  0.00    +0.047 A 
ATOM     19  C   UNL     1       1.629  -3.859   3.180  0.00  0.00    +0.027 A 
BRANCH  17  20
ATOM     20  O   UNL     1       0.122  -4.001   6.489  0.00  0.00    -0.495 OA
ATOM     21  C   UNL     1       1.111  -3.236   7.183  0.00  0.00    +0.277 C 
ENDBRANCH  17  20
ENDBRANCH   5  14
BRANCH   4  22
ATOM     22  S   UNL     1       3.232  -6.292   1.363  0.00  0.00    -0.079 S 
BRANCH  22  23
ATOM     23  C   UNL     1       4.263  -7.034   0.068  0.00  0.00    +0.174 C 
BRANCH  23  24
ATOM     24  C   UNL     1       5.423  -7.757   0.702  0.00  0.00    +0.242 C 
ATOM     25  O   UNL     1       5.543  -7.771   1.909  0.00  0.00    -0.273 OA
ATOM     26  N   UNL     1       6.328  -8.389  -0.072  0.00  0.00    -0.206 N 
ATOM     27  H   UNL     1       6.233  -8.378  -1.037  0.00  0.00    +0.177 HD
BRANCH  26  28
ATOM     28  N   UNL     1       7.406  -9.062   0.518  0.00  0.00    -0.188 NA
ATOM     29  C   UNL     1       8.285  -9.675  -0.234  0.00  0.00    +0.136 C 
BRANCH  29  30
ATOM     30  C   UNL     1       9.364 -10.349   0.356  0.00  0.00    +0.000 C 
ATOM     31  C   UNL     1      10.382 -11.041  -0.295  0.00  0.00    +0.004 A 
ATOM     32  C   UNL     1      10.651 -11.281  -1.661  0.00  0.00    +0.010 A 
ATOM     33  C   UNL     1      11.742 -12.007  -2.014  0.00  0.00    +0.001 A 
ATOM     34  C   UNL     1      12.616 -12.530  -1.056  0.00  0.00    +0.002 A 
ATOM     35  C   UNL     1      12.420 -12.340   0.270  0.00  0.00    +0.026 A 
ATOM     36  C   UNL     1      11.300 -11.590   0.719  0.00  0.00    +0.043 A 
ATOM     37  N   UNL     1      10.895 -11.269   1.929  0.00  0.00    -0.380 N 
ATOM     38  C   UNL     1       9.670 -10.470   1.833  0.00  0.00    +0.150 C 
ATOM     39  H   UNL     1      11.339 -11.519   2.755  0.00  0.00    +0.160 HD
ENDBRANCH  29  30
ENDBRANCH  26  28
ENDBRANCH  23  24
ENDBRANCH  22  23
ENDBRANCH   4  22
TORSDOF 8
