REMARK  Name = ZINC38673140
REMARK  13 active torsions:
REMARK  status: ('A' for Active; 'I' for Inactive)
REMARK    1  A    between atoms: C_1  and  C_2
REMARK    2  A    between atoms: C_2  and  O_3
REMARK    3  A    between atoms: O_3  and  C_4
REMARK    4  A    between atoms: C_5  and  C_36
REMARK    5  A    between atoms: C_7  and  S_11
REMARK    6  A    between atoms: C_9  and  C_10
REMARK    7  A    between atoms: S_11  and  N_14
REMARK    8  A    between atoms: N_14  and  C_15
REMARK    9  A    between atoms: C_15  and  C_16
REMARK   10  A    between atoms: C_16  and  C_18
REMARK   11  A    between atoms: C_16  and  N_29
REMARK   12  A    between atoms: N_27  and  C_28
REMARK   13  A    between atoms: N_32  and  C_35
REMARK                            x       y       z     vdW  Elec       q    Type
REMARK                         _______ _______ _______ _____ _____    ______ ____
ROOT
ATOM      1  C   UNL     1      -1.521  -7.821   0.641  0.00  0.00    +0.102 C 
ENDROOT
BRANCH   1   2
ATOM      2  C   UNL     1      -2.989  -7.505   0.524  0.00  0.00    -0.029 A 
ATOM      3  C   UNL     1      -3.461  -6.818  -0.580  0.00  0.00    +0.007 A 
ATOM      4  C   UNL     1      -4.806  -6.527  -0.686  0.00  0.00    +0.024 A 
ATOM      5  C   UNL     1      -5.686  -6.925   0.315  0.00  0.00    +0.033 A 
ATOM      6  C   UNL     1      -5.213  -7.617   1.419  0.00  0.00    -0.026 A 
ATOM      7  C   UNL     1      -3.862  -7.907   1.516  0.00  0.00    +0.010 A 
ATOM      8  C   UNL     1      -6.137  -8.073   2.517  0.00  0.00    +0.038 C 
ATOM      9  C   UNL     1      -7.433  -7.263   2.498  0.00  0.00    +0.024 C 
ATOM     10  C   UNL     1      -8.009  -7.284   1.076  0.00  0.00    +0.105 C 
ATOM     11  N   UNL     1      -7.045  -6.616   0.191  0.00  0.00    -0.333 N 
ATOM     12  C   UNL     1      -7.499  -5.643  -0.805  0.00  0.00    +0.129 C 
ENDBRANCH   1   2
BRANCH   1  13
ATOM     13  N   UNL     1      -1.183  -8.924  -0.269  0.00  0.00    -0.298 NA
ATOM     14  C   UNL     1      -1.696  -8.666  -1.622  0.00  0.00    +0.066 C 
ATOM     15  C   UNL     1      -1.274  -9.807  -2.551  0.00  0.00    -0.064 C 
ATOM     16  N   UNL     1      -1.806 -11.077  -2.041  0.00  0.00    +0.379 N 
ATOM     17  C   UNL     1      -1.266 -11.333  -0.699  0.00  0.00    -0.064 C 
ATOM     18  C   UNL     1      -1.689 -10.205   0.245  0.00  0.00    +0.066 C 
ATOM     19  C   UNL     1      -1.416 -12.169  -2.942  0.00  0.00    -0.096 C 
ATOM     20  H   UNL     1      -2.813 -11.024  -1.993  0.00  0.00    -0.082 HD
ENDBRANCH   1  13
BRANCH   1  21
ATOM     21  C   UNL     1      -0.701  -6.584   0.268  0.00  0.00    +0.129 C 
BRANCH  21  22
ATOM     22  N   UNL     1       0.724  -6.925   0.266  0.00  0.00    -0.188 NA
ATOM     23  H   UNL     1       1.027  -7.745   0.684  0.00  0.00    +0.148 HD
BRANCH  22  24
ATOM     24  S   UNL     1       1.817  -5.908  -0.451  0.00  0.00    +0.058 S 
ATOM     25  O   UNL     1       1.300  -5.598  -1.738  0.00  0.00    -0.153 OA
ATOM     26  O   UNL     1       3.098  -6.493  -0.266  0.00  0.00    -0.153 OA
BRANCH  24  30
ATOM     27  C   UNL     1       1.804  -2.046   1.913  0.00  0.00    +0.126 A 
ATOM     28  C   UNL     1       2.673  -3.070   2.260  0.00  0.00    -0.007 A 
ATOM     29  C   UNL     1       2.675  -4.247   1.538  0.00  0.00    +0.035 A 
ATOM     30  C   UNL     1       1.812  -4.405   0.469  0.00  0.00    +0.106 A 
ATOM     31  C   UNL     1       0.945  -3.386   0.121  0.00  0.00    +0.035 A 
ATOM     32  C   UNL     1       0.935  -2.209   0.845  0.00  0.00    -0.007 A 
ATOM     33  C   UNL     1      -0.014  -1.100   0.468  0.00  0.00    +0.047 C 
ATOM     34  C   UNL     1       3.615  -2.898   3.424  0.00  0.00    +0.047 C 
BRANCH  27  35
ATOM     35  O   UNL     1       1.800  -0.887   2.623  0.00  0.00    -0.492 OA
BRANCH  35  37
ATOM     36  C   UNL     1       1.055   0.552   4.417  0.00  0.00    +0.048 C 
ATOM     37  C   UNL     1       0.922  -0.818   3.748  0.00  0.00    +0.226 C 
ENDBRANCH  35  37
ENDBRANCH  27  35
ENDBRANCH  24  30
ENDBRANCH  22  24
ENDBRANCH  21  22
ENDBRANCH   1  21
TORSDOF 8
