REMARK  Name = ZINC16042782
REMARK  13 active torsions:
REMARK  status: ('A' for Active; 'I' for Inactive)
REMARK    1  A    between atoms: C_1  and  C_2
REMARK    2  A    between atoms: C_2  and  C_3
REMARK    3  A    between atoms: C_3  and  C_4
REMARK    4  A    between atoms: C_4  and  N_77
REMARK    5  A    between atoms: C_5  and  C_6
REMARK    6  A    between atoms: C_5  and  N_77
REMARK    7  A    between atoms: C_6  and  C_7
REMARK    8  A    between atoms: C_7  and  C_8
REMARK    9  A    between atoms: C_9  and  C_10
REMARK   10  A    between atoms: C_9  and  N_77
REMARK   11  A    between atoms: C_10  and  C_11
REMARK   12  A    between atoms: C_11  and  N_12
REMARK   13  A    between atoms: C_32  and  C_34
REMARK                            x       y       z     vdW  Elec       q    Type
REMARK                         _______ _______ _______ _____ _____    ______ ____
ROOT
ATOM      1  N   UNL     1      -5.441  -2.522  -0.115  0.00  0.00    -0.291 N 
ATOM      2  C   UNL     1      -4.513  -3.435   0.530  0.00  0.00    +0.203 C 
ATOM      3  C   UNL     1      -3.121  -3.282   0.009  0.00  0.00    +0.234 C 
ATOM      4  O   UNL     1      -2.264  -4.010   0.464  0.00  0.00    -0.274 OA
ATOM      5  N   UNL     1      -2.757  -2.399  -0.922  0.00  0.00    -0.276 N 
ATOM      6  C   UNL     1      -3.675  -1.413  -1.491  0.00  0.00    +0.167 C 
ATOM      7  C   UNL     1      -5.079  -1.615  -1.020  0.00  0.00    +0.237 C 
ATOM      8  O   UNL     1      -5.943  -0.907  -1.493  0.00  0.00    -0.274 OA
ATOM      9  C   UNL     1      -3.200  -0.004  -1.109  0.00  0.00    +0.069 C 
ATOM     10  C   UNL     1      -1.713   0.086  -1.341  0.00  0.00    -0.015 A 
ATOM     11  C   UNL     1      -0.892   1.275  -1.460  0.00  0.00    +0.003 A 
ATOM     12  C   UNL     1      -1.189   2.640  -1.407  0.00  0.00    +0.010 A 
ATOM     13  C   UNL     1      -0.138   3.510  -1.563  0.00  0.00    +0.001 A 
ATOM     14  C   UNL     1       1.159   3.067  -1.766  0.00  0.00    +0.002 A 
ATOM     15  C   UNL     1       1.481   1.722  -1.823  0.00  0.00    +0.026 A 
ATOM     16  C   UNL     1       0.434   0.816  -1.666  0.00  0.00    +0.047 A 
ATOM     17  N   UNL     1       0.397  -0.549  -1.667  0.00  0.00    -0.356 N 
ATOM     18  H   UNL     1       1.165  -1.128  -1.787  0.00  0.00    +0.166 HD
ATOM     19  C   UNL     1      -0.890  -0.977  -1.474  0.00  0.00    +0.046 A 
ATOM     20  C   UNL     1      -1.364  -2.411  -1.417  0.00  0.00    +0.154 C 
ENDROOT
BRANCH  20  21
ATOM     21  C   UNL     1      -0.492  -3.201  -0.475  0.00  0.00    -0.021 A 
ATOM     22  C   UNL     1       0.066  -4.396  -0.888  0.00  0.00    +0.006 A 
ATOM     23  C   UNL     1       0.869  -5.119  -0.026  0.00  0.00    +0.000 A 
ATOM     24  C   UNL     1       1.106  -4.651   1.253  0.00  0.00    +0.000 A 
ATOM     25  C   UNL     1       0.543  -3.458   1.668  0.00  0.00    +0.000 A 
ATOM     26  C   UNL     1      -0.256  -2.733   0.804  0.00  0.00    +0.006 A 
ENDBRANCH  20  21
BRANCH   1  27
ATOM     27  C   UNL     1      -6.857  -2.604   0.251  0.00  0.00    +0.106 C 
BRANCH  27  28
ATOM     28  C   UNL     1      -7.134  -1.669   1.431  0.00  0.00    +0.000 C 
BRANCH  28  29
ATOM     29  C   UNL     1      -8.613  -1.755   1.813  0.00  0.00    -0.077 C 
BRANCH  29  30
ATOM     30  N   UNL     1      -8.859  -0.863   2.966  0.00  0.00    +0.380 N 
ATOM     31  H   UNL     1      -8.178  -1.076   3.704  0.00  0.00    -0.082 HD
BRANCH  30  32
ATOM     32  C   UNL     1      -8.698   0.548   2.557  0.00  0.00    -0.079 C 
BRANCH  32  33
ATOM     33  C   UNL     1      -9.639   0.881   1.397  0.00  0.00    -0.019 C 
BRANCH  33  35
ATOM     34  C   UNL     1     -10.405   2.682  -0.155  0.00  0.00    +0.004 C 
ATOM     35  C   UNL     1      -9.465   2.349   1.004  0.00  0.00    -0.005 C 
ENDBRANCH  33  35
ENDBRANCH  32  33
ENDBRANCH  30  32
BRANCH  30  36
ATOM     36  C   UNL     1     -10.222  -1.085   3.493  0.00  0.00    -0.079 C 
BRANCH  36  37
ATOM     37  C   UNL     1     -10.361  -0.348   4.827  0.00  0.00    -0.019 C 
BRANCH  37  38
ATOM     38  C   UNL     1     -11.706  -0.699   5.466  0.00  0.00    -0.005 C 
ATOM     39  C   UNL     1     -11.844   0.038   6.800  0.00  0.00    +0.004 C 
ENDBRANCH  37  38
ENDBRANCH  36  37
ENDBRANCH  30  36
ENDBRANCH  29  30
ENDBRANCH  28  29
ENDBRANCH  27  28
ENDBRANCH   1  27
TORSDOF 11
