REMARK  Name = ZINC38848410
REMARK  10 active torsions:
REMARK  status: ('A' for Active; 'I' for Inactive)
REMARK    1  A    between atoms: C_1  and  O_2
REMARK    2  A    between atoms: O_2  and  C_3
REMARK    3  A    between atoms: C_6  and  O_35
REMARK    4  A    between atoms: N_12  and  C_13
REMARK    5  A    between atoms: C_13  and  C_14
REMARK    6  A    between atoms: C_14  and  C_15
REMARK    7  A    between atoms: C_15  and  N_16
REMARK    8  A    between atoms: C_21  and  C_23
REMARK    9  A    between atoms: C_26  and  C_29
REMARK   10  A    between atoms: O_35  and  C_36
REMARK                            x       y       z     vdW  Elec       q    Type
REMARK                         _______ _______ _______ _____ _____    ______ ____
ROOT
ATOM      1  C   UNL     1      -0.443  -0.501   0.670  0.00  0.00    +0.147 A 
ATOM      2  C   UNL     1      -0.085   0.383   1.659  0.00  0.00    +0.051 A 
ATOM      3  C   UNL     1       0.666  -0.020   2.754  0.00  0.00    +0.050 A 
ATOM      4  C   UNL     1       1.063  -1.345   2.854  0.00  0.00    +0.136 A 
ATOM      5  C   UNL     1       0.707  -2.237   1.867  0.00  0.00    +0.086 A 
ATOM      6  C   UNL     1      -0.059  -1.865   0.742  0.00  0.00    +0.125 A 
ATOM      7  N   UNL     1      -0.331  -2.855  -0.136  0.00  0.00    -0.221 NA
ATOM      8  C   UNL     1       0.082  -4.088   0.041  0.00  0.00    +0.169 A 
ATOM      9  S   UNL     1       0.981  -3.970   1.582  0.00  0.00    -0.048 S 
ATOM     10  N   UNL     1      -0.118  -5.196  -0.765  0.00  0.00    -0.246 N 
ATOM     11  C   UNL     1      -0.824  -5.080  -1.907  0.00  0.00    +0.252 C 
ATOM     12  O   UNL     1      -1.222  -3.989  -2.267  0.00  0.00    -0.270 OA
ENDROOT
BRANCH  11  13
ATOM     13  C   UNL     1      -1.115  -6.277  -2.720  0.00  0.00    +0.037 A 
ATOM     14  C   UNL     1      -1.453  -7.481  -2.097  0.00  0.00    +0.013 A 
ATOM     15  C   UNL     1      -1.724  -8.597  -2.857  0.00  0.00    +0.009 A 
ATOM     16  C   UNL     1      -1.661  -8.526  -4.248  0.00  0.00    -0.018 A 
ATOM     17  C   UNL     1      -1.323  -7.324  -4.872  0.00  0.00    +0.009 A 
ATOM     18  C   UNL     1      -1.057  -6.206  -4.115  0.00  0.00    +0.013 A 
BRANCH  16  19
ATOM     19  C   UNL     1      -1.952  -9.728  -5.066  0.00  0.00    -0.018 A 
ATOM     20  C   UNL     1      -2.295 -10.929  -4.446  0.00  0.00    +0.008 A 
ATOM     21  C   UNL     1      -2.566 -12.045  -5.212  0.00  0.00    +0.001 A 
ATOM     22  C   UNL     1      -2.498 -11.973  -6.591  0.00  0.00    +0.000 A 
ATOM     23  C   UNL     1      -2.158 -10.785  -7.212  0.00  0.00    +0.001 A 
ATOM     24  C   UNL     1      -1.890  -9.661  -6.457  0.00  0.00    +0.008 A 
ENDBRANCH  16  19
ENDBRANCH  11  13
BRANCH   1  26
ATOM     25  C   UNL     1      -1.536   1.319  -0.404  0.00  0.00    +0.277 C 
ATOM     26  O   UNL     1      -1.180  -0.065  -0.388  0.00  0.00    -0.493 OA
ENDBRANCH   1  26
BRANCH   4  27
ATOM     27  O   UNL     1       1.799  -1.760   3.920  0.00  0.00    -0.494 OA
ATOM     28  C   UNL     1       2.130  -0.777   4.902  0.00  0.00    +0.277 C 
ENDBRANCH   4  27
BRANCH  10  29
ATOM     29  C   UNL     1       0.438  -6.495  -0.376  0.00  0.00    +0.117 C 
BRANCH  29  30
ATOM     30  C   UNL     1      -0.378  -7.073   0.782  0.00  0.00    +0.041 C 
BRANCH  30  31
ATOM     31  C   UNL     1       0.105  -8.492   1.088  0.00  0.00    +0.124 C 
BRANCH  31  32
ATOM     32  N   UNL     1      -0.676  -9.045   2.197  0.00  0.00    -0.338 N 
ATOM     33  C   UNL     1      -0.380  -8.943   3.529  0.00  0.00    +0.104 A 
ATOM     34  C   UNL     1      -1.355  -9.589   4.196  0.00  0.00    +0.101 A 
ATOM     35  N   UNL     1      -2.224 -10.072   3.295  0.00  0.00    -0.352 N 
ATOM     36  C   UNL     1      -1.826  -9.746   2.096  0.00  0.00    +0.173 A 
ATOM     37  H   UNL     1      -3.023 -10.581   3.503  0.00  0.00    +0.166 HD
ENDBRANCH  31  32
ENDBRANCH  30  31
ENDBRANCH  29  30
ENDBRANCH  10  29
TORSDOF 8
