REMARK  Name = ZINC52527988
REMARK  9 active torsions:
REMARK  status: ('A' for Active; 'I' for Inactive)
REMARK    1  A    between atoms: C_1  and  C_2
REMARK    2  A    between atoms: C_2  and  C_3
REMARK    3  A    between atoms: C_2  and  C_4
REMARK    4  A    between atoms: C_4  and  C_6
REMARK    5  A    between atoms: C_4  and  N_23
REMARK    6  A    between atoms: N_8  and  C_9
REMARK    7  A    between atoms: C_9  and  C_10
REMARK    8  A    between atoms: C_15  and  C_16
REMARK    9  A    between atoms: C_16  and  N_17
REMARK                            x       y       z     vdW  Elec       q    Type
REMARK                         _______ _______ _______ _____ _____    ______ ____
ROOT
ATOM      1  C   UNL     1      -2.274  -2.934  -0.233  0.00  0.00    +0.234 C 
ATOM      2  O   UNL     1      -2.795  -3.788  -0.918  0.00  0.00    -0.274 OA
ATOM      3  N   UNL     1      -1.568  -3.284   0.860  0.00  0.00    -0.310 N 
ATOM      4  H   UNL     1      -1.090  -2.608   1.366  0.00  0.00    +0.149 HD
ENDROOT
BRANCH   1   5
ATOM      5  C   UNL     1      -2.416  -1.480  -0.604  0.00  0.00    +0.163 C 
BRANCH   5   6
ATOM      6  N   UNL     1      -3.426  -1.341  -1.656  0.00  0.00    -0.288 N 
ATOM      7  C   UNL     1      -4.089  -0.177  -1.805  0.00  0.00    +0.298 C 
ATOM      8  O   UNL     1      -3.850   0.757  -1.065  0.00  0.00    -0.253 OA
ATOM      9  N   UNL     1      -5.018  -0.050  -2.773  0.00  0.00    -0.313 N 
ATOM     10  H   UNL     1      -3.617  -2.087  -2.246  0.00  0.00    +0.151 HD
ATOM     11  H   UNL     1      -5.209  -0.795  -3.363  0.00  0.00    +0.146 HD
ATOM     12  H   UNL     1      -5.495   0.788  -2.880  0.00  0.00    +0.146 HD
ENDBRANCH   5   6
BRANCH   5  14
ATOM     13  C   UNL     1      -0.649  -1.739  -2.350  0.00  0.00    +0.009 C 
ATOM     14  C   UNL     1      -1.074  -0.949  -1.111  0.00  0.00    +0.012 C 
ATOM     15  C   UNL     1      -1.215   0.531  -1.473  0.00  0.00    +0.009 C 
ENDBRANCH   5  14
ENDBRANCH   1   5
BRANCH   3  16
ATOM     16  C   UNL     1      -1.522  -4.686   1.285  0.00  0.00    +0.139 C 
BRANCH  16  17
ATOM     17  C   UNL     1      -0.780  -4.791   2.592  0.00  0.00    -0.029 A 
ATOM     18  C   UNL     1       0.551  -5.162   2.604  0.00  0.00    +0.005 A 
ATOM     19  C   UNL     1       1.231  -5.259   3.803  0.00  0.00    +0.000 A 
ATOM     20  C   UNL     1       0.581  -4.983   4.991  0.00  0.00    +0.000 A 
ATOM     21  C   UNL     1      -0.750  -4.611   4.980  0.00  0.00    +0.002 A 
ATOM     22  C   UNL     1      -1.430  -4.510   3.780  0.00  0.00    -0.059 A 
BRANCH  22  23
ATOM     23  C   UNL     1      -2.880  -4.099   3.767  0.00  0.00    -0.043 C 
BRANCH  23  24
ATOM     24  N   UNL     1      -2.978  -2.660   3.489  0.00  0.00    +0.382 N 
ATOM     25  C   UNL     1      -2.385  -1.907   4.601  0.00  0.00    -0.078 C 
ATOM     26  C   UNL     1      -2.412  -0.411   4.281  0.00  0.00    -0.019 C 
ATOM     27  C   UNL     1      -3.862   0.036   4.076  0.00  0.00    -0.004 C 
ATOM     28  C   UNL     1      -4.493  -0.807   2.964  0.00  0.00    -0.019 C 
ATOM     29  C   UNL     1      -4.389  -2.288   3.333  0.00  0.00    -0.078 C 
ATOM     30  H   UNL     1      -2.479  -2.447   2.638  0.00  0.00    -0.081 HD
ENDBRANCH  23  24
ENDBRANCH  22  23
ENDBRANCH  16  17
ENDBRANCH   3  16
TORSDOF 7
