REMARK  Name = ZINC25406154
REMARK  7 active torsions:
REMARK  status: ('A' for Active; 'I' for Inactive)
REMARK    1  A    between atoms: C_1  and  C_2
REMARK    2  A    between atoms: C_2  and  C_4
REMARK    3  A    between atoms: C_2  and  N_11
REMARK    4  A    between atoms: N_11  and  C_12
REMARK    5  A    between atoms: C_12  and  C_13
REMARK    6  A    between atoms: N_15  and  C_16
REMARK    7  A    between atoms: C_17  and  C_24
REMARK                            x       y       z     vdW  Elec       q    Type
REMARK                         _______ _______ _______ _____ _____    ______ ____
ROOT
ATOM      1  C   UNL     1      -0.016   1.344   0.009  0.00  0.00    +0.201 C 
ATOM      2  O   UNL     1       1.026   1.964   0.003  0.00  0.00    -0.278 OA
ATOM      3  N   UNL     1       0.002  -0.004   0.002  0.00  0.00    -0.281 N 
ATOM      4  H   UNL     1      -0.943  -0.567   0.008  0.00  0.00    +0.155 HD
ENDROOT
BRANCH   3   5
ATOM      5  C   UNL     1       1.212  -0.681  -0.013  0.00  0.00    +0.084 A 
ATOM      6  C   UNL     1       1.434  -2.047  -0.017  0.00  0.00    +0.068 A 
ATOM      7  C   UNL     1       2.821  -2.509  -0.038  0.00  0.00    -0.023 A 
ATOM      8  C   UNL     1       3.747  -1.533  -0.042  0.00  0.00    -0.004 A 
ATOM      9  S   UNL     1       2.813  -0.023  -0.024  0.00  0.00    -0.077 S 
ATOM     10  C   UNL     1       5.147  -2.084  -0.061  0.00  0.00    +0.043 C 
ATOM     11  C   UNL     1       4.981  -3.554  -0.506  0.00  0.00    +0.010 C 
ATOM     12  C   UNL     1       3.540  -3.859  -0.051  0.00  0.00    +0.037 C 
BRANCH   6  13
ATOM     13  C   UNL     1       0.317  -2.998  -0.004  0.00  0.00    +0.244 C 
ATOM     14  O   UNL     1      -0.159  -3.392  -1.053  0.00  0.00    -0.270 OA
ATOM     15  N   UNL     1      -0.182  -3.435   1.169  0.00  0.00    -0.325 N 
ATOM     16  H   UNL     1      -1.020  -4.149   1.178  0.00  0.00    +0.145 HD
ATOM     17  H   UNL     1       0.248  -3.079   2.116  0.00  0.00    +0.145 HD
ENDBRANCH   6  13
ENDBRANCH   3   5
BRANCH   1  18
ATOM     18  C   UNL     1      -1.331   2.079   0.020  0.00  0.00    +0.016 C 
BRANCH  18  19
ATOM     19  N   UNL     1      -1.083   3.527   0.026  0.00  0.00    +0.389 N 
ATOM     20  H   UNL     1      -0.507   3.790  -0.873  0.00  0.00    -0.084 HD
ATOM     21  H   UNL     1      -0.498   3.780   0.923  0.00  0.00    -0.084 HD
BRANCH  19  23
ATOM     22  C   UNL     1      -2.841   4.423   1.477  0.00  0.00    -0.009 C 
ATOM     23  C   UNL     1      -2.345   4.278   0.036  0.00  0.00    -0.041 C 
BRANCH  23  24
ATOM     24  C   UNL     1      -2.121   5.645  -0.558  0.00  0.00    -0.026 A 
ATOM     25  C   UNL     1      -0.845   6.171  -0.619  0.00  0.00    +0.005 A 
ATOM     26  C   UNL     1      -0.638   7.423  -1.169  0.00  0.00    +0.000 A 
ATOM     27  C   UNL     1      -1.710   8.153  -1.648  0.00  0.00    +0.003 A 
ATOM     28  C   UNL     1      -2.987   7.631  -1.583  0.00  0.00    +0.038 A 
ATOM     29  C   UNL     1      -3.195   6.376  -1.037  0.00  0.00    +0.125 A 
ATOM     30  F   UNL     1      -4.443   5.864  -0.973  0.00  0.00    -0.205 F 
ENDBRANCH  23  24
ENDBRANCH  19  23
ENDBRANCH  18  19
ENDBRANCH   1  18
TORSDOF 6
