REMARK  Name = ZINC13499679
REMARK  13 active torsions:
REMARK  status: ('A' for Active; 'I' for Inactive)
REMARK    1  A    between atoms: C_1  and  C_2
REMARK    2  A    between atoms: C_2  and  C_3
REMARK    3  A    between atoms: C_3  and  C_4
REMARK    4  A    between atoms: C_4  and  C_6
REMARK    5  A    between atoms: C_4  and  N_17
REMARK    6  A    between atoms: N_10  and  C_11
REMARK    7  A    between atoms: C_11  and  C_12
REMARK    8  A    between atoms: N_17  and  C_18
REMARK    9  A    between atoms: N_17  and  C_24
REMARK   10  A    between atoms: C_18  and  C_19
REMARK   11  A    between atoms: C_24  and  C_25
REMARK   12  A    between atoms: C_28  and  C_38
REMARK   13  A    between atoms: C_31  and  C_37
REMARK                            x       y       z     vdW  Elec       q    Type
REMARK                         _______ _______ _______ _____ _____    ______ ____
ROOT
ATOM      1  N   UNL     1       1.218  -2.270   1.098  0.00  0.00    -0.284 NA
ENDROOT
BRANCH   1   2
ATOM      2  C   UNL     1       0.336  -1.790   2.170  0.00  0.00    +0.127 C 
BRANCH   2   3
ATOM      3  C   UNL     1       0.480  -2.682   3.376  0.00  0.00    +0.169 A 
ATOM      4  N   UNL     1       1.599  -3.035   3.959  0.00  0.00    -0.112 NA
ATOM      5  N   UNL     1       1.306  -3.800   4.953  0.00  0.00    -0.023 NA
ATOM      6  N   UNL     1       0.028  -3.944   5.020  0.00  0.00    -0.043 NA
ATOM      7  N   UNL     1      -0.517  -3.265   4.067  0.00  0.00    -0.220 N 
BRANCH   7   8
ATOM      8  C   UNL     1      -1.951  -3.154   3.788  0.00  0.00    +0.221 C 
BRANCH   8   9
ATOM      9  C   UNL     1      -2.416  -4.383   3.050  0.00  0.00    +0.126 A 
ATOM     10  C   UNL     1      -2.991  -5.464   3.607  0.00  0.00    +0.046 A 
ATOM     11  C   UNL     1      -3.264  -6.370   2.556  0.00  0.00    +0.041 A 
ATOM     12  C   UNL     1      -2.840  -5.787   1.420  0.00  0.00    +0.195 A 
ATOM     13  O   UNL     1      -2.332  -4.582   1.725  0.00  0.00    -0.466 OA
ENDBRANCH   8   9
ENDBRANCH   7   8
ENDBRANCH   2   3
BRANCH   2  14
ATOM     14  C   UNL     1       0.723  -0.358   2.545  0.00  0.00    +0.026 C 
BRANCH  14  16
ATOM     15  C   UNL     1       0.685   2.022   1.784  0.00  0.00    +0.004 C 
ATOM     16  C   UNL     1       0.455   0.570   1.359  0.00  0.00    -0.001 C 
ENDBRANCH  14  16
ENDBRANCH   2  14
ENDBRANCH   1   2
BRANCH   1  17
ATOM     17  C   UNL     1       1.418  -3.723   1.191  0.00  0.00    +0.127 C 
BRANCH  17  18
ATOM     18  C   UNL     1       2.614  -4.119   0.365  0.00  0.00    +0.004 A 
ATOM     19  C   UNL     1       3.900  -4.298   0.756  0.00  0.00    +0.012 A 
ATOM     20  C   UNL     1       4.841  -4.668  -0.186  0.00  0.00    +0.008 A 
ATOM     21  C   UNL     1       4.451  -4.840  -1.473  0.00  0.00    +0.045 A 
ATOM     22  S   UNL     1       2.704  -4.483  -1.380  0.00  0.00    -0.100 S 
ENDBRANCH  17  18
ENDBRANCH   1  17
BRANCH   1  23
ATOM     23  C   UNL     1       0.694  -1.895  -0.223  0.00  0.00    +0.126 C 
BRANCH  23  24
ATOM     24  C   UNL     1      -0.718  -2.401  -0.365  0.00  0.00    +0.032 A 
ATOM     25  C   UNL     1      -1.760  -1.590  -0.060  0.00  0.00    +0.020 A 
ATOM     26  C   UNL     1      -3.120  -2.112  -0.210  0.00  0.00    +0.002 A 
ATOM     27  C   UNL     1      -4.235  -1.323   0.088  0.00  0.00    -0.041 A 
ATOM     28  C   UNL     1      -5.491  -1.839  -0.063  0.00  0.00    +0.004 A 
ATOM     29  C   UNL     1      -5.670  -3.142  -0.510  0.00  0.00    +0.005 A 
ATOM     30  C   UNL     1      -4.586  -3.938  -0.809  0.00  0.00    -0.026 A 
ATOM     31  C   UNL     1      -3.297  -3.433  -0.664  0.00  0.00    +0.052 A 
ATOM     32  N   UNL     1      -2.195  -4.207  -0.958  0.00  0.00    -0.322 N 
ATOM     33  H   UNL     1      -2.319  -5.117  -1.270  0.00  0.00    +0.169 HD
ATOM     34  C   UNL     1      -0.950  -3.717  -0.822  0.00  0.00    +0.254 A 
ATOM     35  O   UNL     1       0.001  -4.428  -1.095  0.00  0.00    -0.268 OA
ATOM     36  C   UNL     1      -4.795  -5.350  -1.292  0.00  0.00    +0.046 C 
ATOM     37  C   UNL     1      -4.053   0.092   0.575  0.00  0.00    +0.044 C 
ENDBRANCH  23  24
ENDBRANCH   1  23
TORSDOF 10
