REMARK  Name = ZINC08214834
REMARK  15 active torsions:
REMARK  status: ('A' for Active; 'I' for Inactive)
REMARK    1  A    between atoms: C_1  and  C_2
REMARK    2  A    between atoms: C_2  and  O_4
REMARK    3  A    between atoms: O_4  and  C_5
REMARK    4  A    between atoms: C_10  and  C_48
REMARK    5  A    between atoms: C_13  and  C_31
REMARK    6  A    between atoms: C_20  and  C_26
REMARK    7  A    between atoms: C_22  and  C_25
REMARK    8  A    between atoms: C_32  and  O_44
REMARK    9  A    between atoms: C_35  and  O_40
REMARK   10  A    between atoms: C_37  and  C_38
REMARK   11  A    between atoms: C_37  and  C_39
REMARK   12  A    between atoms: O_40  and  C_41
REMARK   13  A    between atoms: C_41  and  C_43
REMARK   14  A    between atoms: O_44  and  C_45
REMARK   15  A    between atoms: C_45  and  C_47
REMARK                            x       y       z     vdW  Elec       q    Type
REMARK                         _______ _______ _______ _____ _____    ______ ____
ROOT
ATOM      1  C   UNL     1       0.644  -3.801  -2.730  0.00  0.00    +0.186 C 
ATOM      2  C   UNL     1       1.747  -4.469  -3.518  0.00  0.00    +0.050 C 
ATOM      3  C   UNL     1       1.276  -5.326  -4.682  0.00  0.00    +0.011 C 
ATOM      4  C   UNL     1       0.291  -4.577  -5.555  0.00  0.00    +0.012 C 
ATOM      5  C   UNL     1      -0.900  -4.013  -4.786  0.00  0.00    +0.011 C 
ATOM      6  C   UNL     1      -0.707  -3.628  -3.356  0.00  0.00    +0.041 C 
ATOM      7  C   UNL     1      -1.326  -2.281  -3.024  0.00  0.00    +0.119 C 
ATOM      8  C   UNL     1      -1.290  -1.514  -1.709  0.00  0.00    +0.218 C 
ATOM      9  O   UNL     1      -2.425  -2.304  -2.091  0.00  0.00    -0.355 OA
ATOM     10  C   UNL     1      -1.392  -0.032  -2.074  0.00  0.00    +0.173 C 
ATOM     11  O   UNL     1      -1.009   0.919  -1.451  0.00  0.00    -0.294 OA
ATOM     12  C   UNL     1      -2.110  -0.052  -3.430  0.00  0.00    +0.100 C 
ATOM     13  C   UNL     1      -1.356  -1.216  -4.130  0.00  0.00    +0.014 C 
ATOM     14  C   UNL     1      -2.124  -1.756  -5.309  0.00  0.00    +0.011 C 
ATOM     15  C   UNL     1      -1.781  -3.179  -5.680  0.00  0.00    +0.005 C 
ATOM     16  C   UNL     1       0.032  -0.716  -4.518  0.00  0.00    +0.015 C 
ATOM     17  C   UNL     1      -1.606  -4.633  -2.563  0.00  0.00    +0.018 C 
ATOM     18  C   UNL     1       1.001  -3.528  -6.397  0.00  0.00    +0.186 C 
ATOM     19  C   UNL     1       2.017  -4.211  -7.317  0.00  0.00    +0.090 C 
ATOM     20  C   UNL     1       3.059  -4.951  -6.490  0.00  0.00    +0.186 C 
ATOM     21  C   UNL     1       2.476  -5.883  -5.443  0.00  0.00    +0.006 C 
ATOM     22  C   UNL     1       3.619  -6.183  -4.439  0.00  0.00    +0.015 C 
ATOM     23  C   UNL     1       2.143  -7.242  -6.085  0.00  0.00    +0.015 C 
ATOM     24  C   UNL     1      -0.372  -5.594  -6.524  0.00  0.00    +0.015 C 
ENDROOT
BRANCH  12  25
ATOM     25  C   UNL     1      -1.884   1.242  -4.169  0.00  0.00    +0.001 A 
ATOM     26  C   UNL     1      -2.858   1.998  -4.861  0.00  0.00    +0.045 A 
ATOM     27  C   UNL     1      -2.228   3.072  -5.370  0.00  0.00    +0.195 A 
ATOM     28  O   UNL     1      -0.931   3.006  -5.025  0.00  0.00    -0.471 OA
ATOM     29  C   UNL     1      -0.718   1.901  -4.293  0.00  0.00    +0.199 A 
ENDBRANCH  12  25
BRANCH   1  30
ATOM     30  O   UNL     1       1.124  -2.530  -2.263  0.00  0.00    -0.461 OA
BRANCH  30  32
ATOM     31  C   UNL     1       2.376  -1.232  -0.576  0.00  0.00    +0.136 C 
ATOM     32  C   UNL     1       1.840  -2.528  -1.127  0.00  0.00    +0.304 C 
ATOM     33  O   UNL     1       2.055  -3.566  -0.547  0.00  0.00    -0.251 OA
ENDBRANCH  30  32
ENDBRANCH   1  30
BRANCH  20  34
ATOM     34  O   UNL     1       3.950  -4.014  -5.874  0.00  0.00    -0.461 OA
BRANCH  34  35
ATOM     35  C   UNL     1       5.047  -3.671  -6.566  0.00  0.00    +0.304 C 
ATOM     36  O   UNL     1       5.246  -4.148  -7.659  0.00  0.00    -0.251 OA
ATOM     37  C   UNL     1       6.030  -2.690  -5.982  0.00  0.00    +0.136 C 
ENDBRANCH  34  35
ENDBRANCH  20  34
BRANCH  18  38
ATOM     38  O   UNL     1       1.718  -2.609  -5.569  0.00  0.00    -0.461 OA
BRANCH  38  39
ATOM     39  C   UNL     1       2.048  -1.428  -6.115  0.00  0.00    +0.304 C 
ATOM     40  O   UNL     1       1.740  -1.182  -7.257  0.00  0.00    -0.251 OA
ATOM     41  C   UNL     1       2.805  -0.409  -5.302  0.00  0.00    +0.136 C 
ENDBRANCH  38  39
ENDBRANCH  18  38
TORSDOF 7
