REMARK  Name = ZINC39558240
REMARK  9 active torsions:
REMARK  status: ('A' for Active; 'I' for Inactive)
REMARK    1  A    between atoms: C_1  and  C_2
REMARK    2  A    between atoms: C_5  and  O_9
REMARK    3  A    between atoms: C_6  and  C_8
REMARK    4  A    between atoms: O_9  and  C_10
REMARK    5  A    between atoms: C_10  and  C_11
REMARK    6  A    between atoms: N_13  and  C_14
REMARK    7  A    between atoms: C_18  and  N_20
REMARK    8  A    between atoms: N_20  and  S_21
REMARK    9  A    between atoms: S_21  and  N_24
REMARK                            x       y       z     vdW  Elec       q    Type
REMARK                         _______ _______ _______ _____ _____    ______ ____
ROOT
ATOM      1  C   UNL     1       0.081  -6.266  -1.108  0.00  0.00    +0.255 C 
ATOM      2  O   UNL     1       0.101  -6.735   0.010  0.00  0.00    -0.272 OA
ATOM      3  N   UNL     1       0.084  -7.081  -2.182  0.00  0.00    -0.283 N 
ATOM      4  H   UNL     1      -0.000  -6.709  -3.074  0.00  0.00    +0.155 HD
ENDROOT
BRANCH   3   5
ATOM      5  C   UNL     1       0.208  -8.464  -2.009  0.00  0.00    +0.035 A 
ATOM      6  C   UNL     1       0.915  -9.220  -2.937  0.00  0.00    +0.023 A 
ATOM      7  C   UNL     1       1.038 -10.585  -2.768  0.00  0.00    +0.004 A 
ATOM      8  C   UNL     1       0.459 -11.204  -1.676  0.00  0.00    +0.027 A 
ATOM      9  C   UNL     1      -0.248 -10.454  -0.745  0.00  0.00    +0.077 A 
ATOM     10  C   UNL     1      -0.369  -9.081  -0.909  0.00  0.00    +0.050 A 
BRANCH   9  11
ATOM     11  N   UNL     1      -0.833 -11.080   0.358  0.00  0.00    -0.087 NA
BRANCH  11  12
ATOM     12  S   UNL     1      -0.683 -12.718   0.557  0.00  0.00    +0.126 S 
ATOM     13  O   UNL     1      -1.397 -13.323  -0.512  0.00  0.00    -0.137 OA
ATOM     14  O   UNL     1       0.694 -12.973   0.795  0.00  0.00    -0.137 OA
BRANCH  12  15
ATOM     15  N   UNL     1      -1.486 -13.118   1.948  0.00  0.00    -0.189 NA
ATOM     16  H   UNL     1      -1.927 -12.428   2.469  0.00  0.00    +0.146 HD
ATOM     17  H   UNL     1      -1.516 -14.041   2.243  0.00  0.00    +0.146 HD
ENDBRANCH  12  15
ENDBRANCH  11  12
ENDBRANCH   9  11
ENDBRANCH   3   5
BRANCH   1  18
ATOM     18  C   UNL     1       0.052  -4.771  -1.298  0.00  0.00    +0.324 C 
BRANCH  18  19
ATOM     19  O   UNL     1       0.054  -4.129  -0.021  0.00  0.00    -0.483 OA
BRANCH  19  24
ATOM     20  C   UNL     1      -0.050   1.502   0.009  0.00  0.00    +0.044 C 
ATOM     21  C   UNL     1      -0.022  -0.004   0.001  0.00  0.00    -0.050 A 
ATOM     22  C   UNL     1      -0.021  -0.688  -1.201  0.00  0.00    +0.007 A 
ATOM     23  C   UNL     1       0.004  -2.069  -1.211  0.00  0.00    +0.046 A 
ATOM     24  C   UNL     1       0.029  -2.770  -0.014  0.00  0.00    +0.124 A 
ATOM     25  C   UNL     1       0.030  -2.082   1.191  0.00  0.00    -0.009 A 
ATOM     26  C   UNL     1       0.009  -0.700   1.195  0.00  0.00    +0.010 A 
ATOM     27  C   UNL     1       0.057  -2.840   2.493  0.00  0.00    +0.047 C 
ENDBRANCH  19  24
ENDBRANCH  18  19
ENDBRANCH   1  18
TORSDOF 7
