REMARK  Name = ZINC21500791
REMARK  4 active torsions:
REMARK  status: ('A' for Active; 'I' for Inactive)
REMARK    1  A    between atoms: C_1  and  C_2
REMARK    2  A    between atoms: N_12  and  S_13
REMARK    3  A    between atoms: S_13  and  C_16
REMARK    4  A    between atoms: C_20  and  N_22
REMARK                            x       y       z     vdW  Elec       q    Type
REMARK                         _______ _______ _______ _____ _____    ______ ____
ROOT
ATOM      1  S   UNL     1      -3.867   2.988  -0.289  0.00  0.00    +0.075 S 
ATOM      2  O   UNL     1      -4.838   3.967  -0.635  0.00  0.00    -0.150 OA
ATOM      3  O   UNL     1      -3.519   1.920  -1.160  0.00  0.00    -0.150 OA
ENDROOT
BRANCH   1  14
ATOM      4  C   UNL     1      -2.281   5.459   1.845  0.00  0.00    +0.030 C 
ATOM      5  C   UNL     1      -2.495   5.243   0.346  0.00  0.00    +0.095 C 
ATOM      6  C   UNL     1      -1.362   5.912  -0.443  0.00  0.00    +0.029 C 
ATOM      7  C   UNL     1      -0.025   5.355   0.045  0.00  0.00    +0.039 C 
ATOM      8  C   UNL     1      -0.044   3.849   0.030  0.00  0.00    -0.025 A 
ATOM      9  C   UNL     1       1.159   3.163   0.017  0.00  0.00    +0.005 A 
ATOM     10  C   UNL     1       1.174   1.782   0.012  0.00  0.00    +0.000 A 
ATOM     11  C   UNL     1      -0.014   1.074   0.020  0.00  0.00    +0.002 A 
ATOM     12  C   UNL     1      -1.218   1.750   0.025  0.00  0.00    +0.025 A 
ATOM     13  C   UNL     1      -1.236   3.140   0.035  0.00  0.00    +0.055 A 
ATOM     14  N   UNL     1      -2.466   3.806   0.041  0.00  0.00    -0.200 N 
ENDBRANCH   1  14
BRANCH   1  15
ATOM     15  C   UNL     1      -4.409   2.252   1.217  0.00  0.00    +0.110 A 
ATOM     16  C   UNL     1      -3.991   0.977   1.552  0.00  0.00    +0.029 A 
ATOM     17  C   UNL     1      -4.409   0.398   2.736  0.00  0.00    +0.004 A 
ATOM     18  C   UNL     1      -5.255   1.087   3.583  0.00  0.00    +0.023 A 
ATOM     19  C   UNL     1      -5.681   2.366   3.247  0.00  0.00    +0.026 A 
ATOM     20  C   UNL     1      -5.255   2.947   2.059  0.00  0.00    +0.051 A 
BRANCH  19  21
ATOM     21  N   UNL     1      -6.536   3.066   4.101  0.00  0.00    -0.358 N 
ATOM     22  H   UNL     1      -6.872   4.079   3.833  0.00  0.00    +0.142 HD
ATOM     23  H   UNL     1      -6.873   2.605   5.041  0.00  0.00    +0.142 HD
ENDBRANCH  19  21
ENDBRANCH   1  15
TORSDOF 3
