REMARK  Name = ZINC23259550
REMARK  13 active torsions:
REMARK  status: ('A' for Active; 'I' for Inactive)
REMARK    1  A    between atoms: C_1  and  C_2
REMARK    2  A    between atoms: C_5  and  N_8
REMARK    3  A    between atoms: C_9  and  C_11
REMARK    4  A    between atoms: C_11  and  N_12
REMARK    5  A    between atoms: N_15  and  C_18
REMARK    6  A    between atoms: C_18  and  C_19
REMARK    7  A    between atoms: N_21  and  C_22
REMARK    8  A    between atoms: C_22  and  C_24
REMARK    9  A    between atoms: C_22  and  C_25
REMARK   10  A    between atoms: C_28  and  C_31
REMARK   11  A    between atoms: C_31  and  C_32
REMARK   12  A    between atoms: C_32  and  C_33
REMARK   13  A    between atoms: C_32  and  C_34
REMARK                            x       y       z     vdW  Elec       q    Type
REMARK                         _______ _______ _______ _____ _____    ______ ____
ROOT
ATOM      1  N   UNL     1       5.963   0.533  -0.243  0.00  0.00    -0.298 NA
ATOM      2  C   UNL     1       5.377   1.307   0.860  0.00  0.00    +0.066 C 
ATOM      3  C   UNL     1       6.364   2.391   1.300  0.00  0.00    -0.063 C 
ATOM      4  N   UNL     1       6.673   3.261   0.156  0.00  0.00    +0.387 N 
ATOM      5  C   UNL     1       7.259   2.487  -0.947  0.00  0.00    -0.063 C 
ATOM      6  C   UNL     1       6.272   1.403  -1.387  0.00  0.00    +0.066 C 
ATOM      7  H   UNL     1       5.731   3.701  -0.200  0.00  0.00    -0.081 HD
ENDROOT
BRANCH   1   8
ATOM      8  C   UNL     1       5.076  -0.567  -0.644  0.00  0.00    +0.180 C 
BRANCH   8  10
ATOM      9  N   UNL     1       4.214  -2.668   0.336  0.00  0.00    -0.284 N 
ATOM     10  C   UNL     1       4.978  -1.567   0.479  0.00  0.00    +0.231 C 
ATOM     11  O   UNL     1       5.588  -1.382   1.511  0.00  0.00    -0.274 OA
ATOM     12  H   UNL     1       3.597  -2.796  -0.566  0.00  0.00    +0.155 HD
BRANCH   9  17
ATOM     13  C   UNL     1       4.176  -6.641   4.386  0.00  0.00    +0.044 C 
ATOM     14  C   UNL     1       4.186  -5.586   3.310  0.00  0.00    -0.050 A 
ATOM     15  C   UNL     1       3.041  -5.340   2.574  0.00  0.00    +0.005 A 
ATOM     16  C   UNL     1       3.047  -4.373   1.587  0.00  0.00    +0.023 A 
ATOM     17  C   UNL     1       4.204  -3.648   1.335  0.00  0.00    +0.033 A 
ATOM     18  C   UNL     1       5.354  -3.901   2.072  0.00  0.00    +0.023 A 
ATOM     19  C   UNL     1       5.340  -4.865   3.061  0.00  0.00    +0.005 A 
ENDBRANCH   9  17
ENDBRANCH   8  10
ENDBRANCH   1   8
BRANCH   4  20
ATOM     20  C   UNL     1       7.561   4.361   0.557  0.00  0.00    +0.019 C 
BRANCH  20  21
ATOM     21  C   UNL     1       7.652   5.366  -0.563  0.00  0.00    +0.197 C 
ATOM     22  O   UNL     1       6.957   5.240  -1.549  0.00  0.00    -0.278 OA
ATOM     23  N   UNL     1       8.507   6.404  -0.469  0.00  0.00    -0.310 N 
ATOM     24  H   UNL     1       9.137   6.518   0.425  0.00  0.00    +0.149 HD
BRANCH  23  25
ATOM     25  C   UNL     1       8.595   7.380  -1.557  0.00  0.00    +0.100 C 
ATOM     26  C   UNL     1       7.512   8.445  -1.377  0.00  0.00    +0.033 C 
BRANCH  25  27
ATOM     27  C   UNL     1       9.953   8.035  -1.535  0.00  0.00    -0.027 A 
ATOM     28  C   UNL     1      10.534   8.380  -0.329  0.00  0.00    +0.006 A 
ATOM     29  C   UNL     1      11.781   8.977  -0.308  0.00  0.00    +0.004 A 
ATOM     30  C   UNL     1      12.442   9.238  -1.494  0.00  0.00    -0.047 A 
ATOM     31  C   UNL     1      11.858   8.897  -2.700  0.00  0.00    +0.004 A 
ATOM     32  C   UNL     1      10.614   8.296  -2.721  0.00  0.00    +0.006 A 
BRANCH  30  33
ATOM     33  C   UNL     1      13.799   9.893  -1.472  0.00  0.00    +0.038 C 
BRANCH  33  34
ATOM     34  C   UNL     1      13.631  11.413  -1.527  0.00  0.00    -0.013 C 
ATOM     35  C   UNL     1      14.999  12.082  -1.379  0.00  0.00    +0.007 C 
ATOM     36  C   UNL     1      13.012  11.809  -2.869  0.00  0.00    +0.007 C 
ENDBRANCH  33  34
ENDBRANCH  30  33
ENDBRANCH  25  27
ENDBRANCH  23  25
ENDBRANCH  20  21
ENDBRANCH   4  20
TORSDOF 9
