REMARK  Name = ZINC13064145
REMARK  13 active torsions:
REMARK  status: ('A' for Active; 'I' for Inactive)
REMARK    1  A    between atoms: C_1  and  C_2
REMARK    2  A    between atoms: C_2  and  C_3
REMARK    3  A    between atoms: C_3  and  C_5
REMARK    4  A    between atoms: C_3  and  N_67
REMARK    5  A    between atoms: N_9  and  C_10
REMARK    6  A    between atoms: C_10  and  C_11
REMARK    7  A    between atoms: C_16  and  C_17
REMARK    8  A    between atoms: C_16  and  N_67
REMARK    9  A    between atoms: C_20  and  C_23
REMARK   10  A    between atoms: C_24  and  C_25
REMARK   11  A    between atoms: C_24  and  N_67
REMARK   12  A    between atoms: C_29  and  O_37
REMARK   13  A    between atoms: O_37  and  C_38
REMARK                            x       y       z     vdW  Elec       q    Type
REMARK                         _______ _______ _______ _____ _____    ______ ____
ROOT
ATOM      1  N   UNL     1       0.011   0.142   0.395  0.00  0.00    +0.392 N 
ATOM      2  H   UNL     1       0.698  -0.323   1.000  0.00  0.00    -0.080 HD
ENDROOT
BRANCH   1   3
ATOM      3  C   UNL     1      -1.346  -0.126   0.915  0.00  0.00    +0.003 C 
BRANCH   3   4
ATOM      4  C   UNL     1      -1.534   0.621   2.211  0.00  0.00    +0.139 A 
ATOM      5  N   UNL     1      -0.676   0.704   3.198  0.00  0.00    -0.115 NA
ATOM      6  N   UNL     1      -1.202   1.430   4.123  0.00  0.00    -0.023 NA
ATOM      7  N   UNL     1      -2.377   1.807   3.754  0.00  0.00    -0.044 NA
ATOM      8  N   UNL     1      -2.618   1.328   2.581  0.00  0.00    -0.223 N 
BRANCH   8   9
ATOM      9  C   UNL     1      -3.842   1.518   1.798  0.00  0.00    +0.221 C 
BRANCH   9  10
ATOM     10  C   UNL     1      -4.820   0.418   2.120  0.00  0.00    +0.126 A 
ATOM     11  C   UNL     1      -5.746   0.450   3.095  0.00  0.00    +0.046 A 
ATOM     12  C   UNL     1      -6.441  -0.780   3.040  0.00  0.00    +0.041 A 
ATOM     13  C   UNL     1      -5.892  -1.494   2.040  0.00  0.00    +0.195 A 
ATOM     14  O   UNL     1      -4.911  -0.762   1.486  0.00  0.00    -0.466 OA
ENDBRANCH   9  10
ENDBRANCH   8   9
ENDBRANCH   3   4
BRANCH   3  16
ATOM     15  C   UNL     1      -0.497  -2.061   2.248  0.00  0.00    +0.002 C 
ATOM     16  C   UNL     1      -1.490  -1.628   1.167  0.00  0.00    -0.011 C 
ENDBRANCH   3  16
ENDBRANCH   1   3
BRANCH   1  17
ATOM     17  C   UNL     1       0.276   1.596   0.398  0.00  0.00    -0.042 C 
BRANCH  17  18
ATOM     18  C   UNL     1       1.764   1.817   0.305  0.00  0.00    -0.064 A 
ATOM     19  C   UNL     1       2.542   1.761   1.446  0.00  0.00    +0.002 A 
ATOM     20  C   UNL     1       3.908   1.959   1.361  0.00  0.00    +0.003 A 
ATOM     21  C   UNL     1       4.493   2.222   0.137  0.00  0.00    -0.050 A 
ATOM     22  C   UNL     1       3.714   2.282  -1.003  0.00  0.00    +0.003 A 
ATOM     23  C   UNL     1       2.349   2.080  -0.919  0.00  0.00    +0.002 A 
ATOM     24  C   UNL     1       5.981   2.442   0.044  0.00  0.00    +0.044 C 
ENDBRANCH  17  18
ENDBRANCH   1  17
BRANCH   1  25
ATOM     25  C   UNL     1       0.141  -0.393  -0.977  0.00  0.00    -0.036 C 
BRANCH  25  26
ATOM     26  C   UNL     1      -0.907   0.206  -1.879  0.00  0.00    +0.001 A 
ATOM     27  C   UNL     1      -0.619   1.312  -2.609  0.00  0.00    +0.017 A 
ATOM     28  C   UNL     1      -1.657   1.867  -3.479  0.00  0.00    +0.002 A 
ATOM     29  C   UNL     1      -1.415   3.003  -4.258  0.00  0.00    +0.055 A 
ATOM     30  C   UNL     1      -2.418   3.503  -5.064  0.00  0.00    +0.121 A 
ATOM     31  C   UNL     1      -3.664   2.882  -5.102  0.00  0.00    +0.047 A 
ATOM     32  C   UNL     1      -3.915   1.764  -4.338  0.00  0.00    +0.030 A 
ATOM     33  C   UNL     1      -2.918   1.243  -3.520  0.00  0.00    +0.049 A 
ATOM     34  N   UNL     1      -3.150   0.123  -2.748  0.00  0.00    -0.322 N 
ATOM     35  H   UNL     1      -4.019  -0.306  -2.777  0.00  0.00    +0.169 HD
ATOM     36  C   UNL     1      -2.188  -0.382  -1.956  0.00  0.00    +0.251 A 
ATOM     37  O   UNL     1      -2.428  -1.373  -1.288  0.00  0.00    -0.268 OA
BRANCH  30  38
ATOM     38  O   UNL     1      -2.188   4.607  -5.824  0.00  0.00    -0.495 OA
ATOM     39  C   UNL     1      -3.269   5.072  -6.635  0.00  0.00    +0.277 C 
ENDBRANCH  30  38
ENDBRANCH  25  26
ENDBRANCH   1  25
TORSDOF 10
