REMARK  Name = ZINC36603065
REMARK  14 active torsions:
REMARK  status: ('A' for Active; 'I' for Inactive)
REMARK    1  A    between atoms: C_1  and  C_2
REMARK    2  A    between atoms: C_5  and  C_7
REMARK    3  A    between atoms: C_7  and  N_8
REMARK    4  A    between atoms: N_8  and  C_9
REMARK    5  A    between atoms: C_9  and  C_11
REMARK    6  A    between atoms: C_9  and  C_23
REMARK    7  A    between atoms: C_20  and  O_21
REMARK    8  A    between atoms: O_21  and  C_22
REMARK    9  A    between atoms: N_25  and  C_26
REMARK   10  A    between atoms: C_26  and  C_27
REMARK   11  A    between atoms: C_26  and  C_28
REMARK   12  A    between atoms: C_26  and  C_29
REMARK   13  A    between atoms: C_30  and  C_32
REMARK   14  A    between atoms: C_35  and  N_38
REMARK                            x       y       z     vdW  Elec       q    Type
REMARK                         _______ _______ _______ _____ _____    ______ ____
ROOT
ATOM      1  C   UNL     1       3.369  -2.822  -2.792  0.00  0.00    +0.197 C 
ENDROOT
BRANCH   1   2
ATOM      2  C   UNL     1       3.078  -1.435  -3.307  0.00  0.00    +0.031 A 
ATOM      3  C   UNL     1       3.168  -1.158  -4.681  0.00  0.00    -0.009 A 
ATOM      4  C   UNL     1       3.528  -2.156  -5.603  0.00  0.00    +0.009 A 
ATOM      5  C   UNL     1       3.605  -1.852  -6.928  0.00  0.00    +0.001 A 
ATOM      6  C   UNL     1       3.332  -0.564  -7.385  0.00  0.00    +0.001 A 
ATOM      7  C   UNL     1       2.980   0.427  -6.521  0.00  0.00    +0.008 A 
ATOM      8  C   UNL     1       2.890   0.151  -5.146  0.00  0.00    -0.017 A 
ATOM      9  C   UNL     1       2.529   1.150  -4.225  0.00  0.00    +0.012 A 
ATOM     10  C   UNL     1       2.451   0.850  -2.901  0.00  0.00    +0.046 A 
ATOM     11  C   UNL     1       2.720  -0.443  -2.440  0.00  0.00    +0.126 A 
BRANCH  11  12
ATOM     12  O   UNL     1       2.627  -0.714  -1.111  0.00  0.00    -0.495 OA
ATOM     13  C   UNL     1       2.177   0.345  -0.263  0.00  0.00    +0.277 C 
ENDBRANCH  11  12
ENDBRANCH   1   2
BRANCH   1  14
ATOM     14  C   UNL     1       3.859  -2.737  -1.370  0.00  0.00    +0.239 C 
ATOM     15  O   UNL     1       3.247  -3.295  -0.484  0.00  0.00    -0.273 OA
ATOM     16  N   UNL     1       4.977  -2.042  -1.082  0.00  0.00    -0.309 N 
ATOM     17  H   UNL     1       5.466  -1.596  -1.791  0.00  0.00    +0.149 HD
BRANCH  16  18
ATOM     18  C   UNL     1       5.453  -1.960   0.301  0.00  0.00    +0.026 C 
ATOM     19  C   UNL     1       5.749  -3.367   0.823  0.00  0.00    +0.031 C 
ATOM     20  C   UNL     1       6.730  -1.119   0.351  0.00  0.00    +0.031 C 
ATOM     21  C   UNL     1       4.378  -1.308   1.172  0.00  0.00    +0.031 C 
ENDBRANCH  16  18
ENDBRANCH   1  14
BRANCH   1  22
ATOM     22  N   UNL     1       2.147  -3.627  -2.841  0.00  0.00    -0.274 N 
ATOM     23  C   UNL     1       2.210  -4.928  -3.188  0.00  0.00    +0.248 C 
ATOM     24  O   UNL     1       1.187  -5.568  -3.337  0.00  0.00    -0.270 OA
BRANCH  23  25
ATOM     25  C   UNL     1       3.523  -5.577  -3.386  0.00  0.00    +0.037 A 
ATOM     26  C   UNL     1       4.672  -5.023  -2.819  0.00  0.00    +0.015 A 
ATOM     27  C   UNL     1       5.895  -5.634  -3.008  0.00  0.00    +0.033 A 
ATOM     28  C   UNL     1       5.984  -6.793  -3.758  0.00  0.00    +0.126 A 
ATOM     29  C   UNL     1       4.849  -7.347  -4.324  0.00  0.00    +0.033 A 
ATOM     30  C   UNL     1       3.620  -6.750  -4.138  0.00  0.00    +0.015 A 
BRANCH  28  31
ATOM     31  N   UNL     1       7.299  -7.442  -3.957  0.00  0.00    +0.056 N 
ATOM     32  O   UNL     1       8.292  -6.960  -3.464  0.00  0.00    -0.126 OA
ATOM     33  O   UNL     1       7.380  -8.455  -4.612  0.00  0.00    -0.126 OA
ENDBRANCH  28  31
ENDBRANCH  23  25
BRANCH  22  34
ATOM     34  C   UNL     1       0.855  -3.019  -2.513  0.00  0.00    +0.183 C 
BRANCH  34  39
ATOM     35  C   UNL     1       0.140   0.249  -6.287  0.00  0.00    +0.086 C 
ATOM     36  C   UNL     1      -0.032  -0.945  -5.384  0.00  0.00    +0.102 A 
ATOM     37  C   UNL     1      -0.959  -1.910  -5.523  0.00  0.00    +0.045 A 
ATOM     38  C   UNL     1      -0.758  -2.826  -4.465  0.00  0.00    +0.046 A 
ATOM     39  C   UNL     1       0.280  -2.366  -3.743  0.00  0.00    +0.122 A 
ATOM     40  O   UNL     1       0.720  -1.230  -4.308  0.00  0.00    -0.463 OA
ENDBRANCH  34  39
ENDBRANCH  22  34
ENDBRANCH   1  22
TORSDOF 9
