REMARK  Name = ZINC24506288
REMARK  5 active torsions:
REMARK  status: ('A' for Active; 'I' for Inactive)
REMARK    1  A    between atoms: C_1  and  C_2
REMARK    2  A    between atoms: C_3  and  N_9
REMARK    3  A    between atoms: C_13  and  S_15
REMARK    4  A    between atoms: S_15  and  C_16
REMARK    5  A    between atoms: C_16  and  C_17
REMARK                            x       y       z     vdW  Elec       q    Type
REMARK                         _______ _______ _______ _____ _____    ______ ____
ROOT
ATOM      1  N   UNL     1       9.583   4.638   1.915  0.00  0.00    -0.292 N 
ATOM      2  C   UNL     1       8.395   3.989   1.597  0.00  0.00    +0.187 A 
ATOM      3  N   UNL     1       7.868   3.745   0.413  0.00  0.00    -0.125 NA
ATOM      4  N   UNL     1       6.667   3.079   0.323  0.00  0.00    -0.133 NA
ATOM      5  C   UNL     1       6.049   2.689   1.421  0.00  0.00    +0.160 A 
ATOM      6  S   UNL     1       7.172   3.271   2.682  0.00  0.00    -0.024 S 
ATOM      7  H   UNL     1       9.928   4.674   2.959  0.00  0.00    +0.154 HD
ENDROOT
BRANCH   1  10
ATOM      8  C   UNL     1      12.184   5.584   2.576  0.00  0.00    +0.047 C 
ATOM      9  C   UNL     1      11.614   5.722   1.188  0.00  0.00    -0.011 A 
ATOM     10  C   UNL     1      10.339   5.245   0.909  0.00  0.00    +0.037 A 
ATOM     11  C   UNL     1       9.819   5.368  -0.374  0.00  0.00    +0.023 A 
ATOM     12  C   UNL     1      10.566   5.974  -1.365  0.00  0.00    +0.003 A 
ATOM     13  C   UNL     1      11.835   6.447  -1.085  0.00  0.00    +0.020 A 
ATOM     14  C   UNL     1      12.358   6.321   0.190  0.00  0.00    +0.046 A 
ATOM     15 CL   UNL     1      13.951   6.918   0.536  0.00  0.00    -0.083 Cl
ENDBRANCH   1  10
BRANCH   5  16
ATOM     16  S   UNL     1       4.520   1.830   1.597  0.00  0.00    -0.091 S 
BRANCH  16  17
ATOM     17  C   UNL     1       3.955   1.586  -0.110  0.00  0.00    +0.132 C 
BRANCH  17  18
ATOM     18  C   UNL     1       2.639   0.852  -0.103  0.00  0.00    +0.059 A 
ATOM     19  C   UNL     1       1.468   1.535  -0.367  0.00  0.00    +0.094 A 
ATOM     20  C   UNL     1       0.257   0.832  -0.356  0.00  0.00    +0.259 A 
ATOM     21  O   UNL     1      -0.795   1.404  -0.591  0.00  0.00    -0.267 OA
ATOM     22  N   UNL     1       0.272  -0.491  -0.086  0.00  0.00    -0.268 N 
ATOM     23  C   UNL     1      -0.897  -1.190  -0.071  0.00  0.00    +0.096 A 
ATOM     24  C   UNL     1      -0.907  -2.515   0.197  0.00  0.00    +0.018 A 
ATOM     25  C   UNL     1       0.293  -3.189   0.463  0.00  0.00    +0.005 A 
ATOM     26  C   UNL     1       1.468  -2.499   0.451  0.00  0.00    +0.047 A 
ATOM     27  C   UNL     1       1.459  -1.121   0.169  0.00  0.00    +0.140 A 
ATOM     28  N   UNL     1       2.607  -0.445   0.156  0.00  0.00    -0.233 NA
ENDBRANCH  17  18
ENDBRANCH  16  17
ENDBRANCH   5  16
TORSDOF 4
