REMARK  Name = ZINC03319288
REMARK  13 active torsions:
REMARK  status: ('A' for Active; 'I' for Inactive)
REMARK    1  A    between atoms: C_1  and  C_2
REMARK    2  A    between atoms: C_2  and  C_3
REMARK    3  A    between atoms: C_2  and  C_4
REMARK    4  A    between atoms: C_2  and  C_5
REMARK    5  A    between atoms: C_8  and  N_11
REMARK    6  A    between atoms: C_12  and  C_14
REMARK    7  A    between atoms: C_14  and  S_15
REMARK    8  A    between atoms: S_15  and  C_16
REMARK    9  A    between atoms: N_26  and  C_27
REMARK   10  A    between atoms: C_30  and  O_35
REMARK   11  A    between atoms: C_31  and  O_33
REMARK   12  A    between atoms: O_33  and  C_34
REMARK   13  A    between atoms: O_35  and  C_36
REMARK                            x       y       z     vdW  Elec       q    Type
REMARK                         _______ _______ _______ _____ _____    ______ ____
ROOT
ATOM      1  C   UNL     1      -0.990  -1.958   0.409  0.00  0.00    +0.177 A 
ATOM      2  N   UNL     1      -0.936  -0.649   0.390  0.00  0.00    -0.223 NA
ATOM      3  C   UNL     1       0.207   0.007   0.105  0.00  0.00    +0.079 A 
ATOM      4  C   UNL     1       0.265   1.404   0.085  0.00  0.00    +0.028 A 
ATOM      5  C   UNL     1       1.444   2.028  -0.209  0.00  0.00    +0.002 A 
ATOM      6  C   UNL     1       2.590   1.295  -0.491  0.00  0.00    +0.001 A 
ATOM      7  C   UNL     1       2.566  -0.072  -0.479  0.00  0.00    +0.015 A 
ATOM      8  C   UNL     1       1.376  -0.735  -0.181  0.00  0.00    +0.065 A 
ATOM      9  C   UNL     1       1.290  -2.201  -0.154  0.00  0.00    +0.267 A 
ATOM     10  O   UNL     1       2.262  -2.895  -0.392  0.00  0.00    -0.267 OA
ATOM     11  N   UNL     1       0.091  -2.752   0.145  0.00  0.00    -0.255 N 
ENDROOT
BRANCH  11  12
ATOM     12  C   UNL     1      -0.044  -4.147   0.183  0.00  0.00    +0.056 A 
ATOM     13  C   UNL     1      -0.804  -4.798  -0.780  0.00  0.00    +0.030 A 
ATOM     14  C   UNL     1      -0.934  -6.173  -0.747  0.00  0.00    +0.051 A 
ATOM     15  C   UNL     1      -0.316  -6.905   0.255  0.00  0.00    +0.162 A 
ATOM     16  C   UNL     1       0.441  -6.255   1.225  0.00  0.00    +0.163 A 
ATOM     17  C   UNL     1       0.576  -4.877   1.188  0.00  0.00    +0.075 A 
BRANCH  16  18
ATOM     18  O   UNL     1       1.048  -6.972   2.208  0.00  0.00    -0.491 OA
ATOM     19  C   UNL     1       1.810  -6.239   3.170  0.00  0.00    +0.277 C 
ENDBRANCH  16  18
BRANCH  15  20
ATOM     20  O   UNL     1      -0.450  -8.258   0.290  0.00  0.00    -0.491 OA
ATOM     21  C   UNL     1      -1.242  -8.859  -0.737  0.00  0.00    +0.277 C 
ENDBRANCH  15  20
ENDBRANCH  11  12
BRANCH   1  22
ATOM     22  S   UNL     1      -2.527  -2.729   0.792  0.00  0.00    -0.078 S 
BRANCH  22  23
ATOM     23  C   UNL     1      -3.560  -1.264   1.042  0.00  0.00    +0.173 C 
BRANCH  23  25
ATOM     24  N   UNL     1      -5.913  -0.765   1.622  0.00  0.00    -0.285 N 
ATOM     25  C   UNL     1      -4.963  -1.693   1.390  0.00  0.00    +0.227 C 
ATOM     26  O   UNL     1      -5.236  -2.872   1.463  0.00  0.00    -0.275 OA
ATOM     27  H   UNL     1      -5.713   0.176   1.496  0.00  0.00    +0.155 HD
BRANCH  24  31
ATOM     28  C   UNL     1      -9.708  -1.938   2.876  0.00  0.00    -0.042 A 
ATOM     29  C   UNL     1      -8.597  -2.660   3.272  0.00  0.00    +0.006 A 
ATOM     30  C   UNL     1      -7.337  -2.273   2.858  0.00  0.00    +0.023 A 
ATOM     31  C   UNL     1      -7.187  -1.159   2.043  0.00  0.00    +0.033 A 
ATOM     32  C   UNL     1      -8.305  -0.434   1.651  0.00  0.00    +0.023 A 
ATOM     33  C   UNL     1      -9.562  -0.829   2.063  0.00  0.00    +0.006 A 
BRANCH  28  35
ATOM     34  C   UNL     1     -11.146  -2.332   4.857  0.00  0.00    +0.015 C 
ATOM     35  C   UNL     1     -11.081  -2.363   3.329  0.00  0.00    -0.013 C 
ATOM     36  C   UNL     1     -12.127  -1.404   2.755  0.00  0.00    +0.015 C 
ATOM     37  C   UNL     1     -11.365  -3.783   2.835  0.00  0.00    +0.015 C 
ENDBRANCH  28  35
ENDBRANCH  24  31
ENDBRANCH  23  25
ENDBRANCH  22  23
ENDBRANCH   1  22
TORSDOF 8
