REMARK  Name = ZINC09086872
REMARK  10 active torsions:
REMARK  status: ('A' for Active; 'I' for Inactive)
REMARK    1  A    between atoms: C_1  and  O_2
REMARK    2  A    between atoms: O_2  and  C_3
REMARK    3  A    between atoms: C_5  and  N_13
REMARK    4  A    between atoms: C_7  and  O_11
REMARK    5  A    between atoms: C_8  and  O_9
REMARK    6  A    between atoms: O_9  and  C_10
REMARK    7  A    between atoms: O_11  and  C_12
REMARK    8  A    between atoms: C_21  and  C_22
REMARK    9  A    between atoms: C_21  and  C_28
REMARK   10  A    between atoms: C_21  and  N_65
REMARK                            x       y       z     vdW  Elec       q    Type
REMARK                         _______ _______ _______ _____ _____    ______ ____
ROOT
ATOM      1  N   UNL     1      -5.665  -2.141  -0.726  0.00  0.00    -0.269 N 
ATOM      2  C   UNL     1      -4.794  -2.438  -1.711  0.00  0.00    +0.306 C 
ATOM      3  O   UNL     1      -5.029  -3.354  -2.475  0.00  0.00    -0.252 OA
ATOM      4  N   UNL     1      -3.662  -1.719  -1.848  0.00  0.00    -0.289 N 
ATOM      5  C   UNL     1      -2.639  -2.103  -2.833  0.00  0.00    +0.091 C 
ATOM      6  C   UNL     1      -1.282  -2.169  -2.125  0.00  0.00    -0.058 C 
ATOM      7  C   UNL     1      -2.030  -0.658  -0.381  0.00  0.00    -0.058 C 
ATOM      8  C   UNL     1      -3.417  -0.530  -1.018  0.00  0.00    +0.091 C 
ATOM      9  H   UNL     1      -5.530  -1.349  -0.182  0.00  0.00    +0.156 HD
ATOM     10  N   UNL     1      -1.034  -0.875  -1.453  0.00  0.00    +0.389 N 
ATOM     11  H   UNL     1      -1.118  -0.120  -2.144  0.00  0.00    -0.080 HD
ENDROOT
BRANCH   1  14
ATOM     12  C   UNL     1      -9.052  -3.260   0.191  0.00  0.00    +0.167 A 
ATOM     13  C   UNL     1      -7.964  -2.435  -0.045  0.00  0.00    +0.073 A 
ATOM     14  C   UNL     1      -6.765  -2.976  -0.488  0.00  0.00    +0.042 A 
ATOM     15  C   UNL     1      -6.657  -4.343  -0.702  0.00  0.00    +0.073 A 
ATOM     16  C   UNL     1      -7.743  -5.171  -0.462  0.00  0.00    +0.167 A 
ATOM     17  C   UNL     1      -8.943  -4.630  -0.018  0.00  0.00    +0.204 A 
BRANCH  12  19
ATOM     18  C   UNL     1     -10.267  -1.314   0.817  0.00  0.00    +0.277 C 
ATOM     19  O   UNL     1     -10.227  -2.729   0.625  0.00  0.00    -0.491 OA
ENDBRANCH  12  19
BRANCH  17  20
ATOM     20  O   UNL     1     -10.012  -5.441   0.213  0.00  0.00    -0.488 OA
ATOM     21  C   UNL     1     -10.899  -5.674  -0.883  0.00  0.00    +0.277 C 
ENDBRANCH  17  20
BRANCH  16  22
ATOM     22  O   UNL     1      -7.635  -6.511  -0.666  0.00  0.00    -0.491 OA
ATOM     23  C   UNL     1      -6.371  -6.998  -1.123  0.00  0.00    +0.277 C 
ENDBRANCH  16  22
ENDBRANCH   1  14
BRANCH  10  24
ATOM     24  C   UNL     1       0.331  -0.856  -0.885  0.00  0.00    -0.007 C 
BRANCH  24  25
ATOM     25  C   UNL     1       1.325  -1.084  -1.994  0.00  0.00    -0.057 A 
ATOM     26  C   UNL     1       1.128  -0.497  -3.231  0.00  0.00    +0.002 A 
ATOM     27  C   UNL     1       2.043  -0.703  -4.246  0.00  0.00    +0.000 A 
ATOM     28  C   UNL     1       3.149  -1.503  -4.029  0.00  0.00    +0.000 A 
ATOM     29  C   UNL     1       3.343  -2.094  -2.795  0.00  0.00    +0.000 A 
ATOM     30  C   UNL     1       2.431  -1.884  -1.777  0.00  0.00    +0.002 A 
ENDBRANCH  24  25
BRANCH  24  31
ATOM     31  C   UNL     1       0.578   0.492  -0.258  0.00  0.00    -0.057 A 
ATOM     32  C   UNL     1       0.210   1.644  -0.927  0.00  0.00    +0.002 A 
ATOM     33  C   UNL     1       0.433   2.880  -0.349  0.00  0.00    +0.000 A 
ATOM     34  C   UNL     1       1.033   2.964   0.893  0.00  0.00    +0.000 A 
ATOM     35  C   UNL     1       1.407   1.812   1.559  0.00  0.00    +0.000 A 
ATOM     36  C   UNL     1       1.179   0.576   0.984  0.00  0.00    +0.002 A 
ENDBRANCH  24  31
ENDBRANCH  10  24
TORSDOF 7
