REMARK  Name = ZINC39944854
REMARK  10 active torsions:
REMARK  status: ('A' for Active; 'I' for Inactive)
REMARK    1  A    between atoms: C_7  and  C_10
REMARK    2  A    between atoms: C_10  and  C_12
REMARK    3  A    between atoms: C_12  and  O_13
REMARK    4  A    between atoms: O_13  and  C_14
REMARK    5  A    between atoms: C_14  and  C_16
REMARK    6  A    between atoms: C_21  and  O_22
REMARK    7  A    between atoms: O_22  and  C_23
REMARK    8  A    between atoms: C_23  and  C_24
REMARK    9  A    between atoms: N_26  and  C_27
REMARK   10  A    between atoms: C_31  and  C_33
REMARK                            x       y       z     vdW  Elec       q    Type
REMARK                         _______ _______ _______ _____ _____    ______ ____
ROOT
ATOM      1  C   UNL     1      -0.680  -7.786  -0.026  0.00  0.00    +0.101 A 
ATOM      2  C   UNL     1      -2.018  -7.383  -0.010  0.00  0.00    +0.018 A 
ATOM      3  C   UNL     1      -3.020  -8.329   0.004  0.00  0.00    +0.001 A 
ATOM      4  C   UNL     1      -2.707  -9.679   0.004  0.00  0.00    +0.004 A 
ATOM      5  C   UNL     1      -1.390 -10.091  -0.011  0.00  0.00    +0.046 A 
ATOM      6  C   UNL     1      -0.368  -9.153  -0.033  0.00  0.00    +0.135 A 
ENDROOT
BRANCH   1   7
ATOM      7  C   UNL     1       0.397  -6.780  -0.041  0.00  0.00    +0.343 C 
ATOM      8  O   UNL     1       1.559  -7.134  -0.060  0.00  0.00    -0.245 OA
BRANCH   7   9
ATOM      9  O   UNL     1       0.092  -5.467  -0.035  0.00  0.00    -0.453 OA
BRANCH   9  10
ATOM     10  C   UNL     1       1.186  -4.547  -0.051  0.00  0.00    +0.311 C 
BRANCH  10  11
ATOM     11  C   UNL     1       0.656  -3.136  -0.041  0.00  0.00    +0.199 C 
ATOM     12  O   UNL     1      -0.542  -2.938  -0.021  0.00  0.00    -0.289 OA
BRANCH  11  19
ATOM     13  C   UNL     1      -0.018   1.347  -0.022  0.00  0.00    +0.001 A 
ATOM     14  C   UNL     1       1.156   2.117  -0.040  0.00  0.00    +0.002 A 
ATOM     15  C   UNL     1       2.382   1.551  -0.060  0.00  0.00    +0.026 A 
ATOM     16  C   UNL     1       2.492   0.083  -0.065  0.00  0.00    +0.043 A 
ATOM     17  N   UNL     1       3.523  -0.712  -0.082  0.00  0.00    -0.380 N 
ATOM     18  C   UNL     1       3.063  -2.104  -0.077  0.00  0.00    +0.152 C 
ATOM     19  C   UNL     1       1.552  -2.046  -0.053  0.00  0.00    +0.026 C 
ATOM     20  C   UNL     1       1.232  -0.701  -0.046  0.00  0.00    +0.006 A 
ATOM     21  C   UNL     1       0.000  -0.004  -0.025  0.00  0.00    +0.010 A 
ATOM     22  H   UNL     1       4.451  -0.427  -0.097  0.00  0.00    +0.160 HD
ENDBRANCH  11  19
ENDBRANCH  10  11
ENDBRANCH   9  10
ENDBRANCH   7   9
ENDBRANCH   1   7
BRANCH   6  23
ATOM     23  O   UNL     1       0.927  -9.556  -0.053  0.00  0.00    -0.482 OA
BRANCH  23  24
ATOM     24  C   UNL     1       1.168 -10.964  -0.059  0.00  0.00    +0.324 C 
BRANCH  24  25
ATOM     25  C   UNL     1       2.653 -11.220  -0.083  0.00  0.00    +0.255 C 
ATOM     26  O   UNL     1       3.429 -10.288  -0.094  0.00  0.00    -0.272 OA
ATOM     27  N   UNL     1       3.119 -12.485  -0.092  0.00  0.00    -0.283 N 
ATOM     28  H   UNL     1       2.502 -13.229  -0.015  0.00  0.00    +0.155 HD
BRANCH  27  29
ATOM     29  C   UNL     1       4.493 -12.723  -0.211  0.00  0.00    +0.034 A 
ATOM     30  C   UNL     1       4.948 -13.826  -0.923  0.00  0.00    +0.023 A 
ATOM     31  C   UNL     1       6.304 -14.058  -1.039  0.00  0.00    +0.002 A 
ATOM     32  C   UNL     1       7.209 -13.195  -0.448  0.00  0.00    +0.012 A 
ATOM     33  C   UNL     1       6.758 -12.097   0.261  0.00  0.00    +0.057 A 
ATOM     34  C   UNL     1       5.403 -11.855   0.376  0.00  0.00    +0.035 A 
BRANCH  33  35
ATOM     35  C   UNL     1       7.747 -11.159   0.904  0.00  0.00    +0.417 C 
ATOM     36  F   UNL     1       9.048 -11.605   0.647  0.00  0.00    -0.166 F 
ATOM     37  F   UNL     1       7.582  -9.874   0.377  0.00  0.00    -0.166 F 
ATOM     38  F   UNL     1       7.530 -11.127   2.286  0.00  0.00    -0.166 F 
ENDBRANCH  33  35
ENDBRANCH  27  29
ENDBRANCH  24  25
ENDBRANCH  23  24
ENDBRANCH   6  23
TORSDOF 10
