REMARK  Name = ZINC63617053
REMARK  11 active torsions:
REMARK  status: ('A' for Active; 'I' for Inactive)
REMARK    1  A    between atoms: C_1  and  C_2
REMARK    2  A    between atoms: C_5  and  C_8
REMARK    3  A    between atoms: C_8  and  C_10
REMARK    4  A    between atoms: C_8  and  N_21
REMARK    5  A    between atoms: N_12  and  C_13
REMARK    6  A    between atoms: C_16  and  O_19
REMARK    7  A    between atoms: O_19  and  C_20
REMARK    8  A    between atoms: N_21  and  C_22
REMARK    9  A    between atoms: C_22  and  C_23
REMARK   10  A    between atoms: C_28  and  C_30
REMARK   11  A    between atoms: C_30  and  C_31
REMARK                            x       y       z     vdW  Elec       q    Type
REMARK                         _______ _______ _______ _____ _____    ______ ____
ROOT
ATOM      1  C   UNL     1      -0.072  -4.267   0.221  0.00  0.00    +0.193 C 
ENDROOT
BRANCH   1   6
ATOM      2  C   UNL     1      -1.888   0.875   2.135  0.00  0.00    +0.044 C 
ATOM      3  C   UNL     1      -1.414  -0.466   1.636  0.00  0.00    -0.050 A 
ATOM      4  C   UNL     1      -1.266  -0.686   0.279  0.00  0.00    +0.004 A 
ATOM      5  C   UNL     1      -0.831  -1.915  -0.179  0.00  0.00    +0.006 A 
ATOM      6  C   UNL     1      -0.545  -2.926   0.720  0.00  0.00    -0.018 A 
ATOM      7  C   UNL     1      -0.693  -2.706   2.077  0.00  0.00    +0.006 A 
ATOM      8  C   UNL     1      -1.123  -1.475   2.535  0.00  0.00    +0.004 A 
ENDBRANCH   1   6
BRANCH   1   9
ATOM      9  C   UNL     1      -1.185  -5.274   0.357  0.00  0.00    +0.242 C 
ATOM     10  O   UNL     1      -1.061  -6.216   1.111  0.00  0.00    -0.273 OA
ATOM     11  N   UNL     1      -2.317  -5.128  -0.358  0.00  0.00    -0.284 N 
ATOM     12  H   UNL     1      -2.414  -4.378  -0.966  0.00  0.00    +0.155 HD
BRANCH  11  13
ATOM     13  C   UNL     1      -3.355  -6.059  -0.225  0.00  0.00    +0.034 A 
ATOM     14  C   UNL     1      -3.628  -6.623   1.014  0.00  0.00    +0.027 A 
ATOM     15  C   UNL     1      -4.651  -7.541   1.145  0.00  0.00    +0.047 A 
ATOM     16  C   UNL     1      -5.407  -7.900   0.039  0.00  0.00    +0.120 A 
ATOM     17  C   UNL     1      -5.135  -7.337  -1.200  0.00  0.00    +0.047 A 
ATOM     18  C   UNL     1      -4.116  -6.415  -1.331  0.00  0.00    +0.027 A 
BRANCH  16  19
ATOM     19  O   UNL     1      -6.415  -8.804   0.168  0.00  0.00    -0.495 OA
ATOM     20  C   UNL     1      -7.152  -9.127  -1.012  0.00  0.00    +0.277 C 
ENDBRANCH  16  19
ENDBRANCH  11  13
ENDBRANCH   1   9
BRANCH   1  21
ATOM     21  N   UNL     1       1.081  -4.703   1.012  0.00  0.00    -0.278 N 
ATOM     22  C   UNL     1       2.318  -4.270   0.696  0.00  0.00    +0.221 C 
ATOM     23  O   UNL     1       2.476  -3.519  -0.243  0.00  0.00    -0.275 OA
BRANCH  21  24
ATOM     24  C   UNL     1       0.890  -5.611   2.147  0.00  0.00    +0.183 C 
BRANCH  24  25
ATOM     25  C   UNL     1       1.225  -7.019   1.726  0.00  0.00    +0.122 A 
ATOM     26  C   UNL     1       2.410  -7.631   1.898  0.00  0.00    +0.046 A 
ATOM     27  C   UNL     1       2.281  -8.931   1.359  0.00  0.00    +0.041 A 
ATOM     28  C   UNL     1       1.025  -9.037   0.890  0.00  0.00    +0.195 A 
ATOM     29  O   UNL     1       0.388  -7.877   1.120  0.00  0.00    -0.466 OA
ENDBRANCH  24  25
ENDBRANCH  21  24
BRANCH  22  30
ATOM     30  C   UNL     1       3.504  -4.719   1.510  0.00  0.00    +0.129 C 
BRANCH  30  31
ATOM     31  C   UNL     1       4.759  -4.097   0.953  0.00  0.00    -0.033 C 
ATOM     32  C   UNL     1       5.361  -2.963   1.377  0.00  0.00    -0.001 A 
ATOM     33  C   UNL     1       5.040  -2.005   2.442  0.00  0.00    +0.010 A 
ATOM     34  C   UNL     1       5.851  -0.939   2.631  0.00  0.00    +0.001 A 
ATOM     35  C   UNL     1       6.986  -0.726   1.838  0.00  0.00    +0.002 A 
ATOM     36  C   UNL     1       7.347  -1.562   0.841  0.00  0.00    +0.026 A 
ATOM     37  C   UNL     1       6.567  -2.716   0.554  0.00  0.00    +0.043 A 
ATOM     38  N   UNL     1       6.704  -3.662  -0.344  0.00  0.00    -0.380 N 
ATOM     39  C   UNL     1       5.604  -4.619  -0.188  0.00  0.00    +0.145 C 
ATOM     40  H   UNL     1       7.417  -3.720  -1.000  0.00  0.00    +0.160 HD
ENDBRANCH  30  31
ENDBRANCH  22  30
ENDBRANCH   1  21
TORSDOF 9
