REMARK  Name = ZINC17098097
REMARK  10 active torsions:
REMARK  status: ('A' for Active; 'I' for Inactive)
REMARK    1  A    between atoms: C_1  and  C_2
REMARK    2  A    between atoms: C_3  and  C_32
REMARK    3  A    between atoms: C_5  and  C_30
REMARK    4  A    between atoms: C_7  and  C_10
REMARK    5  A    between atoms: N_12  and  C_13
REMARK    6  A    between atoms: C_14  and  C_27
REMARK    7  A    between atoms: C_19  and  C_23
REMARK    8  A    between atoms: C_23  and  C_24
REMARK    9  A    between atoms: C_23  and  C_25
REMARK   10  A    between atoms: C_23  and  C_26
REMARK                            x       y       z     vdW  Elec       q    Type
REMARK                         _______ _______ _______ _____ _____    ______ ____
ROOT
ATOM      1  C   UNL     1       1.463  -0.362  -0.302  0.00  0.00    +0.084 A 
ATOM      2  C   UNL     1       1.907   0.951  -0.364  0.00  0.00    +0.068 A 
ATOM      3  C   UNL     1       0.902   1.998  -0.422  0.00  0.00    -0.023 A 
ATOM      4  C   UNL     1      -0.378   1.568  -0.407  0.00  0.00    -0.004 A 
ATOM      5  S   UNL     1      -0.261  -0.197  -0.319  0.00  0.00    -0.077 S 
ATOM      6  C   UNL     1      -1.615   2.411  -0.450  0.00  0.00    +0.046 C 
ATOM      7  C   UNL     1      -1.223   3.863  -0.145  0.00  0.00    -0.000 C 
ATOM      8  C   UNL     1      -0.005   4.236  -0.995  0.00  0.00    +0.009 C 
ATOM      9  C   UNL     1       1.229   3.485  -0.495  0.00  0.00    +0.037 C 
ENDROOT
BRANCH   2  10
ATOM     10  C   UNL     1       3.339   1.270  -0.373  0.00  0.00    +0.244 C 
ATOM     11  O   UNL     1       3.938   1.350  -1.429  0.00  0.00    -0.270 OA
ATOM     12  N   UNL     1       3.990   1.475   0.789  0.00  0.00    -0.325 N 
ATOM     13  H   UNL     1       3.513   1.411   1.631  0.00  0.00    +0.145 HD
ATOM     14  H   UNL     1       4.937   1.686   0.783  0.00  0.00    +0.145 HD
ENDBRANCH   2  10
BRANCH   1  17
ATOM     15  C   UNL     1       1.603  -2.723  -0.184  0.00  0.00    +0.222 C 
ATOM     16  O   UNL     1       0.392  -2.785  -0.188  0.00  0.00    -0.275 OA
ATOM     17  N   UNL     1       2.217  -1.524  -0.240  0.00  0.00    -0.279 N 
ATOM     18  H   UNL     1       3.186  -1.475  -0.237  0.00  0.00    +0.155 HD
BRANCH  15  24
ATOM     19  C   UNL     1       5.065  -5.428   2.313  0.00  0.00    +0.039 C 
ATOM     20  C   UNL     1       3.895  -5.328   1.368  0.00  0.00    -0.073 C 
ATOM     21  C   UNL     1       3.484  -6.413   0.795  0.00  0.00    -0.073 C 
ATOM     22  C   UNL     1       2.340  -6.470  -0.175  0.00  0.00    +0.046 C 
ATOM     23  C   UNL     1       1.490  -5.203  -0.062  0.00  0.00    +0.118 C 
ATOM     24  C   UNL     1       2.422  -3.986  -0.117  0.00  0.00    +0.093 C 
ATOM     25  C   UNL     1       3.280  -3.977   1.150  0.00  0.00    +0.044 C 
ATOM     26  C   UNL     1       4.197  -7.700   1.122  0.00  0.00    +0.039 C 
BRANCH  23  27
ATOM     27  C   UNL     1       0.513  -5.145  -1.209  0.00  0.00    +0.360 C 
ATOM     28  O   UNL     1       0.555  -4.226  -1.992  0.00  0.00    -0.246 OA
ATOM     29  O   UNL     1      -0.403  -6.114  -1.359  0.00  0.00    -0.246 OA
ENDBRANCH  23  27
ENDBRANCH  15  24
ENDBRANCH   1  17
BRANCH   7  30
ATOM     30  C   UNL     1      -2.390   4.792  -0.485  0.00  0.00    -0.035 C 
ATOM     31  C   UNL     1      -2.741   4.649  -1.967  0.00  0.00    +0.011 C 
ATOM     32  C   UNL     1      -3.605   4.417   0.366  0.00  0.00    +0.011 C 
ATOM     33  C   UNL     1      -1.991   6.240  -0.192  0.00  0.00    +0.011 C 
ENDBRANCH   7  30
TORSDOF 5
