REMARK  Name = ZINC30983243
REMARK  10 active torsions:
REMARK  status: ('A' for Active; 'I' for Inactive)
REMARK    1  A    between atoms: C_3  and  C_8
REMARK    2  A    between atoms: C_8  and  S_9
REMARK    3  A    between atoms: S_9  and  C_10
REMARK    4  A    between atoms: C_10  and  C_11
REMARK    5  A    between atoms: C_11  and  C_12
REMARK    6  A    between atoms: C_12  and  N_13
REMARK    7  A    between atoms: C_14  and  C_16
REMARK    8  A    between atoms: N_19  and  C_22
REMARK    9  A    between atoms: C_22  and  C_23
REMARK   10  A    between atoms: C_25  and  C_28
REMARK                            x       y       z     vdW  Elec       q    Type
REMARK                         _______ _______ _______ _____ _____    ______ ____
ROOT
ATOM      1  C   UNL     1      -2.482   0.853   0.018  0.00  0.00    +0.071 C 
ATOM      2  C   UNL     1      -2.562  -0.016  -1.240  0.00  0.00    -0.006 C 
ATOM      3  C   UNL     1      -3.905  -0.750  -1.262  0.00  0.00    -0.077 C 
ATOM      4  N   UNL     1      -4.999   0.229  -1.252  0.00  0.00    +0.386 N 
ATOM      5  C   UNL     1      -4.971   1.043  -0.030  0.00  0.00    -0.077 C 
ATOM      6  C   UNL     1      -3.660   1.831   0.029  0.00  0.00    -0.006 C 
ATOM      7  H   UNL     1      -4.854   0.903  -2.108  0.00  0.00    -0.081 HD
ENDROOT
BRANCH   1   9
ATOM      8  N   UNL     1      -0.011   0.966   0.007  0.00  0.00    -0.315 N 
ATOM      9  C   UNL     1      -1.187   1.624   0.017  0.00  0.00    +0.216 C 
ATOM     10  O   UNL     1      -1.204   2.837   0.023  0.00  0.00    -0.276 OA
ATOM     11  H   UNL     1       0.004  -0.134   0.006  0.00  0.00    +0.149 HD
BRANCH   8  12
ATOM     12  C   UNL     1       1.248   1.716  -0.001  0.00  0.00    +0.105 C 
BRANCH  12  13
ATOM     13  C   UNL     1       2.424   0.737  -0.017  0.00  0.00    +0.029 C 
BRANCH  13  14
ATOM     14  C   UNL     1       3.738   1.520  -0.025  0.00  0.00    +0.071 C 
BRANCH  14  15
ATOM     15  S   UNL     1       5.133   0.360  -0.045  0.00  0.00    -0.156 S 
BRANCH  15  16
ATOM     16  C   UNL     1       6.596   1.433  -0.053  0.00  0.00    +0.104 C 
BRANCH  16  19
ATOM     17  C   UNL     1       9.566  -0.589   1.105  0.00  0.00    +0.002 A 
ATOM     18  C   UNL     1       8.426   0.193   1.120  0.00  0.00    +0.004 A 
ATOM     19  C   UNL     1       7.841   0.584  -0.070  0.00  0.00    -0.036 A 
ATOM     20  C   UNL     1       8.400   0.201  -1.274  0.00  0.00    +0.024 A 
ATOM     21  C   UNL     1       9.544  -0.577  -1.289  0.00  0.00    +0.041 A 
ATOM     22  C   UNL     1      10.126  -0.973  -0.098  0.00  0.00    +0.020 A 
ATOM     23 CL   UNL     1      10.247  -1.058  -2.802  0.00  0.00    -0.084 Cl
ENDBRANCH  16  19
ENDBRANCH  15  16
ENDBRANCH  14  15
ENDBRANCH  13  14
ENDBRANCH  12  13
ENDBRANCH   8  12
ENDBRANCH   1   9
BRANCH   4  24
ATOM     24  C   UNL     1      -6.300  -0.434  -1.413  0.00  0.00    +0.022 C 
BRANCH  24  25
ATOM     25  C   UNL     1      -6.381  -1.056  -2.783  0.00  0.00    +0.211 A 
ATOM     26  N   UNL     1      -6.015  -2.270  -3.109  0.00  0.00    -0.193 NA
ATOM     27  C   UNL     1      -6.270  -2.383  -4.432  0.00  0.00    +0.202 A 
ATOM     28  N   UNL     1      -6.772  -1.242  -4.828  0.00  0.00    -0.056 NA
ATOM     29  O   UNL     1      -6.846  -0.473  -3.893  0.00  0.00    -0.340 OA
BRANCH  27  30
ATOM     30  C   UNL     1      -6.026  -3.578  -5.278  0.00  0.00    +0.023 A 
ATOM     31  C   UNL     1      -5.477  -4.730  -4.717  0.00  0.00    +0.014 A 
ATOM     32  C   UNL     1      -5.256  -5.840  -5.506  0.00  0.00    +0.039 A 
ATOM     33  C   UNL     1      -5.570  -5.808  -6.855  0.00  0.00    +0.123 A 
ATOM     34  C   UNL     1      -6.111  -4.663  -7.417  0.00  0.00    +0.039 A 
ATOM     35  C   UNL     1      -6.340  -3.550  -6.635  0.00  0.00    +0.014 A 
ATOM     36  F   UNL     1      -5.348  -6.896  -7.625  0.00  0.00    -0.205 F 
ENDBRANCH  27  30
ENDBRANCH  24  25
ENDBRANCH   4  24
TORSDOF 10
