REMARK  Name = ZINC13064611
REMARK  10 active torsions:
REMARK  status: ('A' for Active; 'I' for Inactive)
REMARK    1  A    between atoms: C_1  and  C_2
REMARK    2  A    between atoms: C_2  and  C_3
REMARK    3  A    between atoms: C_3  and  C_5
REMARK    4  A    between atoms: C_3  and  N_75
REMARK    5  A    between atoms: N_9  and  C_10
REMARK    6  A    between atoms: C_16  and  C_17
REMARK    7  A    between atoms: C_16  and  N_75
REMARK    8  A    between atoms: C_21  and  C_30
REMARK    9  A    between atoms: C_22  and  C_29
REMARK   10  A    between atoms: C_31  and  N_75
REMARK                            x       y       z     vdW  Elec       q    Type
REMARK                         _______ _______ _______ _____ _____    ______ ____
ROOT
ATOM      1  N   UNL     1      -5.914   4.419  -1.635  0.00  0.00    +0.391 N 
ATOM      2  H   UNL     1      -6.037   3.692  -2.350  0.00  0.00    -0.080 HD
ENDROOT
BRANCH   1   3
ATOM      3  C   UNL     1      -5.187   5.559  -2.231  0.00  0.00    -0.067 C 
ATOM      4  C   UNL     1      -6.176   6.460  -2.973  0.00  0.00    -0.015 C 
ATOM      5  C   UNL     1      -5.423   7.627  -3.614  0.00  0.00    -0.002 C 
ATOM      6  C   UNL     1      -4.387   7.084  -4.601  0.00  0.00    -0.000 C 
ATOM      7  C   UNL     1      -3.397   6.184  -3.859  0.00  0.00    -0.002 C 
ATOM      8  C   UNL     1      -4.151   5.017  -3.218  0.00  0.00    -0.015 C 
ENDBRANCH   1   3
BRANCH   1   9
ATOM      9  C   UNL     1      -7.244   4.858  -1.164  0.00  0.00    +0.003 C 
BRANCH   9  10
ATOM     10  C   UNL     1      -8.145   3.654  -1.072  0.00  0.00    +0.138 A 
ATOM     11  N   UNL     1      -7.852   2.497  -0.530  0.00  0.00    -0.115 NA
ATOM     12  N   UNL     1      -8.880   1.730  -0.647  0.00  0.00    -0.023 NA
ATOM     13  N   UNL     1      -9.819   2.365  -1.257  0.00  0.00    -0.044 NA
ATOM     14  N   UNL     1      -9.404   3.555  -1.536  0.00  0.00    -0.228 N 
BRANCH  14  15
ATOM     15  C   UNL     1     -10.162   4.601  -2.226  0.00  0.00    +0.111 C 
ATOM     16  C   UNL     1     -11.425   4.928  -1.427  0.00  0.00    +0.027 C 
ATOM     17  C   UNL     1     -12.216   6.021  -2.149  0.00  0.00    +0.002 C 
ATOM     18  C   UNL     1     -12.608   5.531  -3.544  0.00  0.00    +0.000 C 
ATOM     19  C   UNL     1     -11.344   5.204  -4.343  0.00  0.00    +0.002 C 
ATOM     20  C   UNL     1     -10.553   4.111  -3.622  0.00  0.00    +0.027 C 
ENDBRANCH  14  15
ENDBRANCH   9  10
BRANCH   9  22
ATOM     21  C   UNL     1      -6.388   6.848   0.081  0.00  0.00    +0.002 C 
ATOM     22  C   UNL     1      -7.133   5.518   0.212  0.00  0.00    -0.011 C 
ENDBRANCH   9  22
ENDBRANCH   1   9
BRANCH   1  23
ATOM     23  C   UNL     1      -5.138   3.858  -0.508  0.00  0.00    -0.036 C 
BRANCH  23  24
ATOM     24  C   UNL     1      -3.979   3.071  -1.063  0.00  0.00    +0.001 A 
ATOM     25  C   UNL     1      -2.728   3.592  -1.023  0.00  0.00    +0.017 A 
ATOM     26  C   UNL     1      -1.623   2.802  -1.570  0.00  0.00    -0.001 A 
ATOM     27  C   UNL     1      -0.311   3.286  -1.557  0.00  0.00    +0.013 A 
ATOM     28  C   UNL     1       0.697   2.524  -2.076  0.00  0.00    -0.047 A 
ATOM     29  C   UNL     1       0.431   1.273  -2.615  0.00  0.00    -0.046 A 
ATOM     30  C   UNL     1      -0.854   0.776  -2.639  0.00  0.00    +0.030 A 
ATOM     31  C   UNL     1      -1.898   1.536  -2.122  0.00  0.00    +0.049 A 
ATOM     32  N   UNL     1      -3.192   1.061  -2.127  0.00  0.00    -0.322 N 
ATOM     33  H   UNL     1      -3.379   0.187  -2.504  0.00  0.00    +0.169 HD
ATOM     34  C   UNL     1      -4.200   1.794  -1.623  0.00  0.00    +0.251 A 
ATOM     35  O   UNL     1      -5.333   1.345  -1.649  0.00  0.00    -0.268 OA
ATOM     36  C   UNL     1       1.559   0.450  -3.182  0.00  0.00    +0.044 C 
ATOM     37  C   UNL     1       2.111   3.046  -2.062  0.00  0.00    +0.044 C 
ENDBRANCH  23  24
ENDBRANCH   1  23
TORSDOF 7
