REMARK  Name = ZINC21177815
REMARK  10 active torsions:
REMARK  status: ('A' for Active; 'I' for Inactive)
REMARK    1  A    between atoms: C_1  and  C_2
REMARK    2  A    between atoms: C_2  and  C_3
REMARK    3  A    between atoms: C_2  and  C_4
REMARK    4  A    between atoms: C_2  and  C_5
REMARK    5  A    between atoms: C_8  and  S_11
REMARK    6  A    between atoms: S_11  and  N_14
REMARK    7  A    between atoms: N_17  and  C_20
REMARK    8  A    between atoms: C_20  and  C_21
REMARK    9  A    between atoms: N_23  and  C_24
REMARK   10  A    between atoms: C_29  and  C_30
REMARK                            x       y       z     vdW  Elec       q    Type
REMARK                         _______ _______ _______ _____ _____    ______ ____
ROOT
ATOM      1  N   UNL     1      -0.797   2.167  -1.284  0.00  0.00    -0.180 NA
ATOM      2  C   UNL     1      -1.638   1.242  -2.059  0.00  0.00    +0.091 C 
ATOM      3  C   UNL     1      -3.034   1.867  -2.206  0.00  0.00    -0.061 C 
ATOM      4  N   UNL     1      -2.903   3.214  -2.778  0.00  0.00    +0.387 N 
ATOM      5  C   UNL     1      -2.152   4.103  -1.882  0.00  0.00    -0.061 C 
ATOM      6  C   UNL     1      -0.725   3.571  -1.718  0.00  0.00    +0.091 C 
ATOM      7  H   UNL     1      -2.334   3.126  -3.715  0.00  0.00    -0.081 HD
ENDROOT
BRANCH   1   8
ATOM      8  S   UNL     1       0.052   1.641   0.037  0.00  0.00    +0.061 S 
ATOM      9  O   UNL     1       0.236   0.242  -0.129  0.00  0.00    -0.153 OA
ATOM     10  O   UNL     1       1.141   2.538   0.204  0.00  0.00    -0.153 OA
BRANCH   8  14
ATOM     11  C   UNL     1      -2.626   2.173   3.648  0.00  0.00    -0.042 A 
ATOM     12  C   UNL     1      -2.653   0.989   2.936  0.00  0.00    +0.006 A 
ATOM     13  C   UNL     1      -1.835   0.826   1.833  0.00  0.00    +0.029 A 
ATOM     14  C   UNL     1      -0.991   1.848   1.442  0.00  0.00    +0.105 A 
ATOM     15  C   UNL     1      -0.961   3.031   2.157  0.00  0.00    +0.029 A 
ATOM     16  C   UNL     1      -1.782   3.196   3.257  0.00  0.00    +0.006 A 
BRANCH  11  18
ATOM     17  C   UNL     1      -3.183   1.284   5.894  0.00  0.00    +0.015 C 
ATOM     18  C   UNL     1      -3.518   2.351   4.849  0.00  0.00    -0.013 C 
ATOM     19  C   UNL     1      -3.294   3.740   5.450  0.00  0.00    +0.015 C 
ATOM     20  C   UNL     1      -4.981   2.208   4.425  0.00  0.00    +0.015 C 
ENDBRANCH  11  18
ENDBRANCH   8  14
ENDBRANCH   1   8
BRANCH   4  21
ATOM     21  C   UNL     1      -4.221   3.780  -3.098  0.00  0.00    +0.019 C 
BRANCH  21  22
ATOM     22  C   UNL     1      -5.053   3.855  -1.844  0.00  0.00    +0.201 C 
ATOM     23  O   UNL     1      -4.565   3.561  -0.773  0.00  0.00    -0.278 OA
ATOM     24  N   UNL     1      -6.341   4.249  -1.912  0.00  0.00    -0.287 N 
ATOM     25  H   UNL     1      -6.809   4.429  -2.891  0.00  0.00    +0.155 HD
BRANCH  24  26
ATOM     26  C   UNL     1      -7.081   4.428  -0.739  0.00  0.00    +0.045 A 
ATOM     27  C   UNL     1      -6.429   4.610   0.474  0.00  0.00    +0.024 A 
ATOM     28  C   UNL     1      -7.162   4.791   1.630  0.00  0.00    +0.002 A 
ATOM     29  C   UNL     1      -8.544   4.781   1.583  0.00  0.00    +0.001 A 
ATOM     30  C   UNL     1      -9.196   4.595   0.378  0.00  0.00    +0.014 A 
ATOM     31  C   UNL     1      -8.469   4.418  -0.783  0.00  0.00    +0.076 A 
BRANCH  31  32
ATOM     32  C   UNL     1      -9.180   4.214  -2.096  0.00  0.00    +0.419 C 
ATOM     33  F   UNL     1     -10.563   4.243  -1.886  0.00  0.00    -0.166 F 
ATOM     34  F   UNL     1      -8.821   5.233  -2.984  0.00  0.00    -0.166 F 
ATOM     35  F   UNL     1      -8.816   2.976  -2.635  0.00  0.00    -0.166 F 
ENDBRANCH  31  32
ENDBRANCH  24  26
ENDBRANCH  21  22
ENDBRANCH   4  21
TORSDOF 7
