REMARK  Name = ZINC39355545
REMARK  8 active torsions:
REMARK  status: ('A' for Active; 'I' for Inactive)
REMARK    1  A    between atoms: C_1  and  C_2
REMARK    2  A    between atoms: C_2  and  N_3
REMARK    3  A    between atoms: C_5  and  C_10
REMARK    4  A    between atoms: C_6  and  C_9
REMARK    5  A    between atoms: C_10  and  N_11
REMARK    6  A    between atoms: C_14  and  C_17
REMARK    7  A    between atoms: N_19  and  C_20
REMARK    8  A    between atoms: C_24  and  C_26
REMARK                            x       y       z     vdW  Elec       q    Type
REMARK                         _______ _______ _______ _____ _____    ______ ____
ROOT
ATOM      1  C   UNL     1      -8.431   2.456   2.548  0.00  0.00    +0.220 C 
ATOM      2  O   UNL     1      -8.128   3.462   1.941  0.00  0.00    -0.275 OA
ATOM      3  N   UNL     1      -9.440   2.487   3.441  0.00  0.00    -0.285 N 
ATOM      4  H   UNL     1      -9.635   1.705   3.981  0.00  0.00    +0.155 HD
ENDROOT
BRANCH   1   8
ATOM      5  N   UNL     1      -5.160  -0.255   2.340  0.00  0.00    +0.382 N 
ATOM      6  C   UNL     1      -5.784   0.123   1.066  0.00  0.00    -0.078 C 
ATOM      7  C   UNL     1      -6.593   1.408   1.252  0.00  0.00    -0.006 C 
ATOM      8  C   UNL     1      -7.681   1.173   2.304  0.00  0.00    +0.072 C 
ATOM      9  C   UNL     1      -7.024   0.707   3.607  0.00  0.00    -0.006 C 
ATOM     10  C   UNL     1      -6.199  -0.552   3.334  0.00  0.00    -0.078 C 
ATOM     11  H   UNL     1      -4.587   0.506   2.671  0.00  0.00    -0.081 HD
BRANCH   5  12
ATOM     12  C   UNL     1      -4.322  -1.445   2.140  0.00  0.00    -0.045 C 
BRANCH  12  15
ATOM     13  N   UNL     1      -1.915  -0.850  -0.599  0.00  0.00    -0.274 N 
ATOM     14  C   UNL     1      -3.119  -1.274  -0.073  0.00  0.00    +0.086 C 
ATOM     15  C   UNL     1      -3.170  -1.101   1.232  0.00  0.00    -0.053 C 
ATOM     16  C   UNL     1      -1.848  -0.488   1.643  0.00  0.00    +0.095 C 
ATOM     17  N   UNL     1      -1.094  -0.368   0.380  0.00  0.00    -0.234 NA
ATOM     18  C   UNL     1      -2.070   0.887   2.276  0.00  0.00    +0.030 C 
ATOM     19  H   UNL     1      -0.843   0.592   0.200  0.00  0.00    +0.145 HD
BRANCH  13  21
ATOM     20  C   UNL     1      -1.011  -2.304  -2.346  0.00  0.00    +0.026 C 
ATOM     21  C   UNL     1      -1.562  -0.915  -2.020  0.00  0.00    +0.120 C 
ENDBRANCH  13  21
ENDBRANCH  12  15
ENDBRANCH   5  12
ENDBRANCH   1   8
BRANCH   3  22
ATOM     22  C   UNL     1     -10.207   3.648   3.591  0.00  0.00    +0.034 A 
ATOM     23  C   UNL     1     -10.454   4.464   2.493  0.00  0.00    +0.023 A 
ATOM     24  C   UNL     1     -11.211   5.611   2.635  0.00  0.00    +0.002 A 
ATOM     25  C   UNL     1     -11.727   5.955   3.869  0.00  0.00    +0.010 A 
ATOM     26  C   UNL     1     -11.484   5.143   4.977  0.00  0.00    +0.000 A 
ATOM     27  C   UNL     1     -10.725   3.982   4.832  0.00  0.00    +0.033 A 
BRANCH  26  28
ATOM     28  C   UNL     1     -12.034   5.509   6.300  0.00  0.00    +0.048 A 
ATOM     29  H   UNL     1     -11.367   3.956   7.530  0.00  0.00    +0.166 HD
ATOM     30  C   UNL     1     -12.787   6.607   6.557  0.00  0.00    +0.036 A 
ATOM     31  C   UNL     1     -13.113   6.577   7.982  0.00  0.00    +0.000 A 
ATOM     32  C   UNL     1     -13.846   7.416   8.825  0.00  0.00    +0.010 A 
ATOM     33  C   UNL     1     -13.972   7.105  10.150  0.00  0.00    +0.001 A 
ATOM     34  C   UNL     1     -13.378   5.961  10.665  0.00  0.00    +0.002 A 
ATOM     35  C   UNL     1     -12.650   5.119   9.852  0.00  0.00    +0.026 A 
ATOM     36  C   UNL     1     -12.508   5.415   8.500  0.00  0.00    +0.047 A 
ATOM     37  N   UNL     1     -11.866   4.785   7.458  0.00  0.00    -0.354 N 
ENDBRANCH  26  28
ENDBRANCH   3  22
TORSDOF 6
