REMARK  Name = ZINC34831293
REMARK  12 active torsions:
REMARK  status: ('A' for Active; 'I' for Inactive)
REMARK    1  A    between atoms: C_1  and  C_2
REMARK    2  A    between atoms: C_2  and  N_3
REMARK    3  A    between atoms: N_6  and  C_9
REMARK    4  A    between atoms: C_10  and  C_22
REMARK    5  A    between atoms: C_11  and  C_21
REMARK    6  A    between atoms: N_13  and  C_14
REMARK    7  A    between atoms: C_22  and  N_23
REMARK    8  A    between atoms: N_23  and  C_24
REMARK    9  A    between atoms: C_24  and  C_25
REMARK   10  A    between atoms: C_24  and  C_26
REMARK   11  A    between atoms: C_27  and  C_29
REMARK   12  A    between atoms: C_33  and  N_35
REMARK                            x       y       z     vdW  Elec       q    Type
REMARK                         _______ _______ _______ _____ _____    ______ ____
ROOT
ATOM      1  C   UNL     1       2.390  -2.223  -4.217  0.00  0.00    +0.130 A 
ATOM      2  C   UNL     1       2.159  -3.327  -3.454  0.00  0.00    +0.032 A 
ATOM      3  C   UNL     1       3.373  -3.714  -2.879  0.00  0.00    +0.067 A 
ATOM      4  N   UNL     1       4.303  -2.881  -3.274  0.00  0.00    -0.170 NA
ATOM      5  N   UNL     1       3.717  -1.933  -4.123  0.00  0.00    -0.218 N 
ATOM      6  C   UNL     1       3.577  -4.890  -1.959  0.00  0.00    +0.068 C 
ENDROOT
BRANCH   1  10
ATOM      7  N   UNL     1       0.317   0.456  -6.579  0.00  0.00    +0.382 N 
ATOM      8  C   UNL     1       1.298  -0.472  -7.154  0.00  0.00    -0.060 C 
ATOM      9  C   UNL     1       1.252  -1.800  -6.392  0.00  0.00    +0.088 C 
ATOM     10  N   UNL     1       1.445  -1.522  -4.960  0.00  0.00    -0.318 N 
ATOM     11  C   UNL     1       0.611  -0.484  -4.336  0.00  0.00    +0.088 C 
ATOM     12  C   UNL     1       0.687   0.782  -5.196  0.00  0.00    -0.060 C 
ATOM     13  H   UNL     1      -0.596   0.026  -6.589  0.00  0.00    -0.082 HD
BRANCH   7  15
ATOM     14  C   UNL     1      -0.223   1.369  -8.787  0.00  0.00    -0.017 C 
ATOM     15  C   UNL     1       0.284   1.688  -7.379  0.00  0.00    -0.082 C 
ENDBRANCH   7  15
ENDBRANCH   1  10
BRANCH   5  16
ATOM     16  C   UNL     1       4.378  -0.874  -4.760  0.00  0.00    +0.070 A 
ATOM     17  C   UNL     1       4.153  -0.623  -6.107  0.00  0.00    +0.028 A 
ATOM     18  C   UNL     1       4.805   0.421  -6.733  0.00  0.00    +0.005 A 
ATOM     19  C   UNL     1       5.682   1.217  -6.020  0.00  0.00    +0.038 A 
ATOM     20  C   UNL     1       5.910   0.970  -4.676  0.00  0.00    +0.125 A 
ATOM     21  C   UNL     1       5.255  -0.071  -4.043  0.00  0.00    +0.066 A 
ATOM     22  F   UNL     1       6.768   1.749  -3.982  0.00  0.00    -0.205 F 
ENDBRANCH   5  16
BRANCH   2  23
ATOM     23  C   UNL     1       0.830  -4.011  -3.263  0.00  0.00    +0.148 C 
BRANCH  23  24
ATOM     24  N   UNL     1       0.709  -5.118  -4.215  0.00  0.00    -0.291 N 
ATOM     25  C   UNL     1       0.038  -4.943  -5.371  0.00  0.00    +0.247 C 
ATOM     26  O   UNL     1      -0.548  -3.900  -5.581  0.00  0.00    -0.270 OA
BRANCH  25  27
ATOM     27  C   UNL     1       0.017  -6.021  -6.383  0.00  0.00    +0.039 A 
ATOM     28  C   UNL     1       0.878  -7.113  -6.263  0.00  0.00    +0.013 A 
ATOM     29  C   UNL     1       0.852  -8.115  -7.211  0.00  0.00    +0.003 A 
ATOM     30  C   UNL     1      -0.025  -8.039  -8.278  0.00  0.00    +0.033 A 
ATOM     31  C   UNL     1      -0.881  -6.960  -8.403  0.00  0.00    +0.127 A 
ATOM     32  C   UNL     1      -0.870  -5.954  -7.459  0.00  0.00    +0.045 A 
BRANCH  31  33
ATOM     33  N   UNL     1      -1.815  -6.887  -9.549  0.00  0.00    +0.056 N 
ATOM     34  O   UNL     1      -1.830  -7.770 -10.374  0.00  0.00    -0.126 OA
ATOM     35  O   UNL     1      -2.564  -5.944  -9.659  0.00  0.00    -0.126 OA
ENDBRANCH  31  33
ENDBRANCH  25  27
BRANCH  24  36
ATOM     36  C   UNL     1       1.317  -6.416  -3.910  0.00  0.00    +0.071 C 
ATOM     37  C   UNL     1       0.400  -7.537  -4.403  0.00  0.00    +0.028 C 
ATOM     38  C   UNL     1       2.673  -6.521  -4.610  0.00  0.00    +0.028 C 
ENDBRANCH  24  36
ENDBRANCH  23  24
ENDBRANCH   2  23
TORSDOF 8
