REMARK  Name = ZINC22283762
REMARK  7 active torsions:
REMARK  status: ('A' for Active; 'I' for Inactive)
REMARK    1  A    between atoms: C_6  and  O_7
REMARK    2  A    between atoms: O_7  and  C_8
REMARK    3  A    between atoms: C_8  and  C_9
REMARK    4  A    between atoms: C_12  and  S_15
REMARK    5  A    between atoms: N_13  and  N_14
REMARK    6  A    between atoms: S_15  and  C_16
REMARK    7  A    between atoms: C_16  and  C_17
REMARK                            x       y       z     vdW  Elec       q    Type
REMARK                         _______ _______ _______ _____ _____    ______ ____
ROOT
ATOM      1  S   UNL     1       4.733   4.626  -2.159  0.00  0.00    -0.077 S 
ENDROOT
BRANCH   1   5
ATOM      2  C   UNL     1       6.915   7.823  -2.646  0.00  0.00    +0.189 A 
ATOM      3  N   UNL     1       6.931   7.664  -1.352  0.00  0.00    -0.128 NA
ATOM      4  N   UNL     1       6.242   6.630  -1.026  0.00  0.00    -0.121 NA
ATOM      5  C   UNL     1       5.744   6.068  -2.102  0.00  0.00    +0.209 A 
ATOM      6  N   UNL     1       6.162   6.808  -3.170  0.00  0.00    -0.225 N 
BRANCH   6   7
ATOM      7  N   UNL     1       5.885   6.584  -4.489  0.00  0.00    -0.295 N 
ATOM      8  H   UNL     1       5.263   5.725  -4.782  0.00  0.00    +0.163 HD
ATOM      9  H   UNL     1       6.284   7.262  -5.258  0.00  0.00    +0.163 HD
ENDBRANCH   6   7
BRANCH   2  10
ATOM     10  C   UNL     1       7.602   8.918  -3.420  0.00  0.00    +0.306 C 
BRANCH  10  11
ATOM     11  O   UNL     1       8.920   8.495  -3.774  0.00  0.00    -0.484 OA
BRANCH  11  17
ATOM     12  C   UNL     1       9.165  10.612  -4.832  0.00  0.00    +0.048 A 
ATOM     13  C   UNL     1       9.941  11.505  -5.546  0.00  0.00    +0.042 A 
ATOM     14  C   UNL     1      11.228  11.159  -5.921  0.00  0.00    +0.124 A 
ATOM     15  C   UNL     1      11.742   9.920  -5.577  0.00  0.00    +0.042 A 
ATOM     16  C   UNL     1      10.970   9.027  -4.857  0.00  0.00    +0.048 A 
ATOM     17  C   UNL     1       9.681   9.373  -4.481  0.00  0.00    +0.121 A 
ATOM     18  F   UNL     1      11.984  12.031  -6.623  0.00  0.00    -0.205 F 
ENDBRANCH  11  17
ENDBRANCH  10  11
ENDBRANCH   2  10
ENDBRANCH   1   5
BRANCH   1  19
ATOM     19  C   UNL     1       4.636   4.240  -0.393  0.00  0.00    +0.153 C 
BRANCH  19  20
ATOM     20  C   UNL     1       3.795   3.006  -0.194  0.00  0.00    +0.143 A 
ATOM     21  N   UNL     1       4.377   1.819  -0.201  0.00  0.00    -0.216 NA
ATOM     22  C   UNL     1       3.694   0.699  -0.031  0.00  0.00    +0.128 A 
ATOM     23  C   UNL     1       2.287   0.770   0.166  0.00  0.00    +0.051 A 
ATOM     24  C   UNL     1       1.337  -0.329   0.375  0.00  0.00    -0.025 A 
ATOM     25  C   UNL     1       0.042   0.011   0.534  0.00  0.00    -0.004 A 
ATOM     26  S   UNL     1       0.009   1.782   0.424  0.00  0.00    -0.073 S 
ATOM     27  C   UNL     1       1.739   2.066   0.160  0.00  0.00    +0.114 A 
ATOM     28  N   UNL     1       2.494   3.134  -0.017  0.00  0.00    -0.224 NA
ATOM     29  C   UNL     1      -1.127  -0.900   0.743  0.00  0.00    +0.043 C 
ATOM     30  C   UNL     1      -0.796  -1.905   1.855  0.00  0.00    +0.005 C 
ATOM     31  C   UNL     1      -0.147  -3.129   1.217  0.00  0.00    +0.001 C 
ATOM     32  C   UNL     1       0.675  -2.710  -0.001  0.00  0.00    +0.005 C 
ATOM     33  C   UNL     1       1.808  -1.780   0.416  0.00  0.00    +0.037 C 
ATOM     34  N   UNL     1       4.340  -0.525  -0.044  0.00  0.00    -0.343 N 
ATOM     35  H   UNL     1       3.764  -1.452   0.098  0.00  0.00    +0.144 HD
ATOM     36  H   UNL     1       5.428  -0.571  -0.197  0.00  0.00    +0.144 HD
ENDBRANCH  19  20
ENDBRANCH   1  19
TORSDOF 7
