REMARK  Name = ZINC33076915
REMARK  12 active torsions:
REMARK  status: ('A' for Active; 'I' for Inactive)
REMARK    1  A    between atoms: C_1  and  C_2
REMARK    2  A    between atoms: C_2  and  C_3
REMARK    3  A    between atoms: C_2  and  C_4
REMARK    4  A    between atoms: C_4  and  N_5
REMARK    5  A    between atoms: C_6  and  C_8
REMARK    6  A    between atoms: C_15  and  S_27
REMARK    7  A    between atoms: N_16  and  C_19
REMARK    8  A    between atoms: C_19  and  C_20
REMARK    9  A    between atoms: C_20  and  C_21
REMARK   10  A    between atoms: S_27  and  C_28
REMARK   11  A    between atoms: C_28  and  C_29
REMARK   12  A    between atoms: C_32  and  N_35
REMARK                            x       y       z     vdW  Elec       q    Type
REMARK                         _______ _______ _______ _____ _____    ______ ____
ROOT
ATOM      1  C   UNL     1      -1.307   1.934   0.019  0.00  0.00    +0.039 A 
ATOM      2  C   UNL     1      -1.319   3.334   0.032  0.00  0.00    +0.014 A 
ATOM      3  C   UNL     1      -2.501   4.019   0.036  0.00  0.00    +0.016 A 
ATOM      4  C   UNL     1      -3.708   3.320   0.039  0.00  0.00    +0.065 A 
ATOM      5  C   UNL     1      -3.713   1.907   0.030  0.00  0.00    +0.080 A 
ATOM      6  C   UNL     1      -2.497   1.218   0.021  0.00  0.00    +0.041 A 
ATOM      7  N   UNL     1      -4.897   1.251   0.033  0.00  0.00    -0.223 NA
ATOM      8  C   UNL     1      -6.038   1.895   0.043  0.00  0.00    +0.172 A 
ATOM      9  N   UNL     1      -6.124   3.258   0.051  0.00  0.00    -0.287 N 
ATOM     10  C   UNL     1      -5.004   4.017   0.050  0.00  0.00    +0.262 A 
ATOM     11  O   UNL     1      -5.066   5.233   0.057  0.00  0.00    -0.267 OA
ENDROOT
BRANCH   1  13
ATOM     12  N   UNL     1       1.143   1.901   0.001  0.00  0.00    -0.311 N 
ATOM     13  C   UNL     1      -0.014   1.211   0.009  0.00  0.00    +0.244 C 
ATOM     14  O   UNL     1       0.002  -0.004   0.002  0.00  0.00    -0.270 OA
ATOM     15  H   UNL     1       1.129   3.001   0.007  0.00  0.00    +0.149 HD
BRANCH  12  16
ATOM     16  C   UNL     1       2.422   1.186  -0.015  0.00  0.00    +0.107 C 
BRANCH  16  18
ATOM     17  C   UNL     1       3.564   2.983   1.292  0.00  0.00    +0.009 C 
ATOM     18  C   UNL     1       3.571   2.196  -0.020  0.00  0.00    -0.000 C 
ATOM     19  C   UNL     1       4.902   1.454  -0.163  0.00  0.00    +0.009 C 
ENDBRANCH  16  18
ENDBRANCH  12  16
ENDBRANCH   1  13
BRANCH   9  20
ATOM     20  C   UNL     1      -7.439   3.903   0.061  0.00  0.00    +0.132 C 
BRANCH  20  21
ATOM     21  C   UNL     1      -7.890   4.120   1.507  0.00  0.00    +0.057 C 
BRANCH  21  22
ATOM     22  C   UNL     1      -9.243   4.783   1.517  0.00  0.00    -0.046 A 
ATOM     23  C   UNL     1      -9.336   6.162   1.531  0.00  0.00    +0.004 A 
ATOM     24  C   UNL     1     -10.578   6.771   1.535  0.00  0.00    +0.000 A 
ATOM     25  C   UNL     1     -11.725   6.000   1.537  0.00  0.00    +0.000 A 
ATOM     26  C   UNL     1     -11.632   4.621   1.529  0.00  0.00    +0.000 A 
ATOM     27  C   UNL     1     -10.390   4.012   1.519  0.00  0.00    +0.004 A 
ENDBRANCH  21  22
ENDBRANCH  20  21
ENDBRANCH   9  20
BRANCH   8  28
ATOM     28  S   UNL     1      -7.531   0.959   0.045  0.00  0.00    -0.083 S 
BRANCH  28  29
ATOM     29  C   UNL     1      -6.850  -0.718   0.032  0.00  0.00    +0.112 C 
BRANCH  29  30
ATOM     30  C   UNL     1      -7.978  -1.718   0.032  0.00  0.00    -0.037 A 
ATOM     31  C   UNL     1      -8.485  -2.187   1.230  0.00  0.00    +0.007 A 
ATOM     32  C   UNL     1      -9.522  -3.101   1.230  0.00  0.00    +0.033 A 
ATOM     33  C   UNL     1     -10.046  -3.552   0.033  0.00  0.00    +0.126 A 
ATOM     34  C   UNL     1      -9.536  -3.086  -1.164  0.00  0.00    +0.033 A 
ATOM     35  C   UNL     1      -8.501  -2.169  -1.165  0.00  0.00    +0.007 A 
BRANCH  33  36
ATOM     36  N   UNL     1     -11.154  -4.534   0.033  0.00  0.00    +0.056 N 
ATOM     37  O   UNL     1     -11.616  -4.931  -1.022  0.00  0.00    -0.126 OA
ATOM     38  O   UNL     1     -11.603  -4.945   1.088  0.00  0.00    -0.126 OA
ENDBRANCH  33  36
ENDBRANCH  29  30
ENDBRANCH  28  29
ENDBRANCH   8  28
TORSDOF 10
