REMARK  Name = ZINC16944725
REMARK  6 active torsions:
REMARK  status: ('A' for Active; 'I' for Inactive)
REMARK    1  A    between atoms: C_4  and  N_7
REMARK    2  A    between atoms: N_7  and  C_8
REMARK    3  A    between atoms: C_14  and  C_16
REMARK    4  A    between atoms: C_17  and  N_28
REMARK    5  A    between atoms: C_20  and  C_26
REMARK    6  A    between atoms: C_21  and  O_25
REMARK                            x       y       z     vdW  Elec       q    Type
REMARK                         _______ _______ _______ _____ _____    ______ ____
ROOT
ATOM      1  C   UNL     1      -0.484   7.613   0.715  0.00  0.00    +0.098 A 
ATOM      2  C   UNL     1      -0.716   6.281   0.977  0.00  0.00    +0.053 A 
ATOM      3  C   UNL     1       0.429   5.417   1.229  0.00  0.00    +0.030 A 
ATOM      4  C   UNL     1       0.439   4.032   1.512  0.00  0.00    +0.033 A 
ATOM      5  C   UNL     1       1.656   3.397   1.727  0.00  0.00    +0.125 A 
ATOM      6  C   UNL     1       2.856   4.132   1.651  0.00  0.00    +0.228 A 
ATOM      7  N   UNL     1       2.825   5.424   1.380  0.00  0.00    -0.205 NA
ATOM      8  C   UNL     1       1.689   6.060   1.176  0.00  0.00    +0.115 A 
ATOM      9  S   UNL     1       1.290   7.750   0.800  0.00  0.00    -0.062 S 
ENDROOT
BRANCH   1  11
ATOM     10  N   UNL     1      -1.013   9.881   0.165  0.00  0.00    -0.236 N 
ATOM     11  C   UNL     1      -1.430   8.631   0.444  0.00  0.00    +0.264 C 
ATOM     12  O   UNL     1      -2.621   8.376   0.464  0.00  0.00    -0.269 OA
BRANCH  10  16
ATOM     13  C   UNL     1       3.063  10.713  -0.075  0.00  0.00    +0.000 A 
ATOM     14  C   UNL     1       2.368  10.995   1.087  0.00  0.00    +0.002 A 
ATOM     15  C   UNL     1       1.017  10.720   1.170  0.00  0.00    +0.024 A 
ATOM     16  C   UNL     1       0.356  10.161   0.084  0.00  0.00    +0.042 A 
ATOM     17  C   UNL     1       1.058   9.874  -1.080  0.00  0.00    +0.024 A 
ATOM     18  C   UNL     1       2.407  10.156  -1.158  0.00  0.00    +0.002 A 
ENDBRANCH  10  16
BRANCH  10  19
ATOM     19  C   UNL     1      -1.948  10.900  -0.045  0.00  0.00    +0.042 A 
ATOM     20  C   UNL     1      -1.525  12.217  -0.180  0.00  0.00    +0.024 A 
ATOM     21  C   UNL     1      -2.451  13.219  -0.393  0.00  0.00    +0.002 A 
ATOM     22  C   UNL     1      -3.798  12.916  -0.460  0.00  0.00    +0.000 A 
ATOM     23  C   UNL     1      -4.223  11.607  -0.320  0.00  0.00    +0.002 A 
ATOM     24  C   UNL     1      -3.303  10.599  -0.113  0.00  0.00    +0.024 A 
ENDBRANCH  10  19
ENDBRANCH   1  11
BRANCH   5  25
ATOM     25  C   UNL     1       1.692   1.957   2.028  0.00  0.00    +0.392 C 
ATOM     26  O   UNL     1       2.757   1.401   2.211  0.00  0.00    -0.240 OA
ATOM     27  O   UNL     1       0.544   1.254   2.100  0.00  0.00    -0.240 OA
ENDBRANCH   5  25
BRANCH   2  28
ATOM     28  N   UNL     1      -2.007   5.774   1.000  0.00  0.00    -0.356 N 
ATOM     29  H   UNL     1      -2.761   6.361   0.830  0.00  0.00    +0.142 HD
ATOM     30  H   UNL     1      -2.156   4.834   1.186  0.00  0.00    +0.142 HD
ENDBRANCH   2  28
BRANCH   6  31
ATOM     31  O   UNL     1       4.042   3.512   1.855  0.00  0.00    -0.492 OA
ATOM     32  H   UNL     1       4.442   3.153   1.052  0.00  0.00    +0.294 HD
ENDBRANCH   6  31
TORSDOF 6
