REMARK  Name = ZINC19314046
REMARK  12 active torsions:
REMARK  status: ('A' for Active; 'I' for Inactive)
REMARK    1  A    between atoms: C_1  and  C_2
REMARK    2  A    between atoms: C_2  and  C_3
REMARK    3  A    between atoms: C_3  and  C_4
REMARK    4  A    between atoms: C_4  and  N_5
REMARK    5  A    between atoms: C_9  and  C_34
REMARK    6  A    between atoms: C_10  and  C_33
REMARK    7  A    between atoms: C_14  and  S_15
REMARK    8  A    between atoms: S_15  and  C_16
REMARK    9  A    between atoms: C_16  and  C_17
REMARK   10  A    between atoms: N_19  and  C_20
REMARK   11  A    between atoms: N_24  and  C_26
REMARK   12  A    between atoms: C_26  and  C_27
REMARK                            x       y       z     vdW  Elec       q    Type
REMARK                         _______ _______ _______ _____ _____    ______ ____
ROOT
ATOM      1  C   UNL     1       3.742   1.492   0.632  0.00  0.00    +0.173 C 
ENDROOT
BRANCH   1   2
ATOM      2  C   UNL     1       2.336   0.951   0.643  0.00  0.00    +0.223 C 
ATOM      3  O   UNL     1       2.087  -0.080   1.231  0.00  0.00    -0.275 OA
ATOM      4  N   UNL     1       1.355   1.612  -0.002  0.00  0.00    -0.314 N 
ATOM      5  H   UNL     1       1.580   2.547  -0.536  0.00  0.00    +0.149 HD
BRANCH   4   6
ATOM      6  C   UNL     1      -0.013   1.086   0.008  0.00  0.00    +0.055 C 
ATOM      7  C   UNL     1      -0.778   1.605   1.246  0.00  0.00    +0.002 C 
ATOM      8  C   UNL     1      -1.565   2.817   0.682  0.00  0.00    -0.077 C 
ATOM      9  N   UNL     1      -1.960   2.365  -0.676  0.00  0.00    +0.384 N 
ATOM     10  C   UNL     1      -0.799   1.616  -1.205  0.00  0.00    -0.056 C 
ATOM     11  H   UNL     1      -2.865   1.740  -0.653  0.00  0.00    -0.081 HD
BRANCH   9  12
ATOM     12  C   UNL     1      -2.285   3.509  -1.538  0.00  0.00    -0.043 C 
BRANCH  12  13
ATOM     13  C   UNL     1      -3.302   4.383  -0.850  0.00  0.00    -0.064 A 
ATOM     14  C   UNL     1      -4.652   4.156  -1.043  0.00  0.00    +0.002 A 
ATOM     15  C   UNL     1      -5.585   4.955  -0.408  0.00  0.00    +0.000 A 
ATOM     16  C   UNL     1      -5.168   5.986   0.412  0.00  0.00    +0.000 A 
ATOM     17  C   UNL     1      -3.818   6.216   0.601  0.00  0.00    +0.000 A 
ATOM     18  C   UNL     1      -2.885   5.415  -0.030  0.00  0.00    +0.002 A 
ENDBRANCH  12  13
ENDBRANCH   9  12
ENDBRANCH   4   6
ENDBRANCH   1   2
BRANCH   1  19
ATOM     19  S   UNL     1       4.821   0.388   1.578  0.00  0.00    -0.078 S 
BRANCH  19  29
ATOM     20  N   UNL     1       7.476   0.728   1.993  0.00  0.00    -0.287 N 
ATOM     21  C   UNL     1       8.667   1.345   1.878  0.00  0.00    +0.263 A 
ATOM     22  O   UNL     1       9.660   0.875   2.406  0.00  0.00    -0.267 OA
ATOM     23  C   UNL     1       8.750   2.564   1.133  0.00  0.00    +0.075 A 
ATOM     24  C   UNL     1       9.905   3.406   0.875  0.00  0.00    -0.026 A 
ATOM     25  C   UNL     1       9.754   4.519   0.141  0.00  0.00    -0.008 A 
ATOM     26  S   UNL     1       8.018   4.515  -0.263  0.00  0.00    -0.073 S 
ATOM     27  C   UNL     1       7.545   3.018   0.565  0.00  0.00    +0.117 A 
ATOM     28  N   UNL     1       6.404   2.357   0.712  0.00  0.00    -0.216 NA
ATOM     29  C   UNL     1       6.355   1.237   1.404  0.00  0.00    +0.173 A 
ATOM     30  C   UNL     1      10.801   5.530  -0.248  0.00  0.00    +0.052 C 
ATOM     31  C   UNL     1      11.258   3.035   1.426  0.00  0.00    +0.045 C 
BRANCH  20  32
ATOM     32  C   UNL     1       7.384  -0.517   2.759  0.00  0.00    +0.127 C 
BRANCH  32  33
ATOM     33  C   UNL     1       7.636  -1.707   1.831  0.00  0.00    +0.021 C 
BRANCH  33  35
ATOM     34  C   UNL     1       7.790  -4.197   1.704  0.00  0.00    +0.004 C 
ATOM     35  C   UNL     1       7.539  -3.007   2.632  0.00  0.00    -0.002 C 
ENDBRANCH  33  35
ENDBRANCH  32  33
ENDBRANCH  20  32
ENDBRANCH  19  29
ENDBRANCH   1  19
TORSDOF 9
