REMARK  Name = ZINC59367719
REMARK  4 active torsions:
REMARK  status: ('A' for Active; 'I' for Inactive)
REMARK    1  A    between atoms: C_8  and  C_12
REMARK    2  A    between atoms: N_13  and  N_14
REMARK    3  A    between atoms: N_14  and  C_15
REMARK    4  A    between atoms: C_15  and  N_17
REMARK                            x       y       z     vdW  Elec       q    Type
REMARK                         _______ _______ _______ _____ _____    ______ ____
ROOT
ATOM      1  C   UNL     1      -0.017   1.384   0.010  0.00  0.00    +0.017 A 
ATOM      2  C   UNL     1       1.159   2.102   0.002  0.00  0.00    +0.027 A 
ATOM      3  C   UNL     1       2.380   1.435  -0.013  0.00  0.00    +0.047 A 
ATOM      4  C   UNL     1       2.398   0.030  -0.021  0.00  0.00    +0.009 A 
ATOM      5  C   UNL     1       1.201  -0.683  -0.013  0.00  0.00    +0.026 A 
ATOM      6  C   UNL     1       0.002  -0.004   0.002  0.00  0.00    +0.019 A 
ATOM      7 BR   UNL     1      -1.625  -0.968   0.013  0.00  0.00    -0.050 Br
ATOM      8  C   UNL     1       3.819  -0.358  -0.036  0.00  0.00    +0.020 A 
ATOM      9  C   UNL     1       4.537   0.797  -0.037  0.00  0.00    +0.093 A 
ATOM     10  N   UNL     1       3.690   1.865  -0.023  0.00  0.00    -0.360 N 
ATOM     11  H   UNL     1       3.969   2.795  -0.021  0.00  0.00    +0.165 HD
ENDROOT
BRANCH   8  12
ATOM     12  C   UNL     1       4.357  -1.728  -0.049  0.00  0.00    +0.140 C 
ATOM     13  N   UNL     1       3.547  -2.744  -0.047  0.00  0.00    -0.188 NA
BRANCH  13  14
ATOM     14  N   UNL     1       4.059  -4.048  -0.059  0.00  0.00    -0.219 N 
ATOM     15  H   UNL     1       5.019  -4.192  -0.069  0.00  0.00    +0.176 HD
BRANCH  14  16
ATOM     16  C   UNL     1       3.219  -5.101  -0.056  0.00  0.00    +0.147 C 
ATOM     17  S   UNL     1       3.845  -6.695  -0.071  0.00  0.00    -0.017 S 
BRANCH  16  18
ATOM     18  N   UNL     1       1.887  -4.901  -0.042  0.00  0.00    -0.339 N 
ATOM     19  H   UNL     1       1.532  -3.998  -0.034  0.00  0.00    +0.144 HD
ATOM     20  H   UNL     1       1.282  -5.659  -0.041  0.00  0.00    +0.144 HD
ENDBRANCH  16  18
ENDBRANCH  14  16
ENDBRANCH  13  14
ENDBRANCH   8  12
TORSDOF 4
