REMARK  Name = ZINC01418992
REMARK  11 active torsions:
REMARK  status: ('A' for Active; 'I' for Inactive)
REMARK    1  A    between atoms: C_1  and  N_2
REMARK    2  A    between atoms: N_2  and  C_3
REMARK    3  A    between atoms: N_2  and  C_4
REMARK    4  A    between atoms: C_7  and  N_10
REMARK    5  A    between atoms: C_11  and  C_13
REMARK    6  A    between atoms: C_13  and  C_15
REMARK    7  A    between atoms: C_13  and  N_22
REMARK    8  A    between atoms: N_22  and  C_23
REMARK    9  A    between atoms: C_23  and  C_24
REMARK   10  A    between atoms: C_31  and  C_33
REMARK   11  A    between atoms: C_33  and  N_34
REMARK                            x       y       z     vdW  Elec       q    Type
REMARK                         _______ _______ _______ _____ _____    ______ ____
ROOT
ATOM      1  C   UNL     1      -4.781   2.883  -2.346  0.00  0.00    +0.193 C 
ENDROOT
BRANCH   1   2
ATOM      2  C   UNL     1      -5.358   1.589  -1.834  0.00  0.00    -0.018 A 
ATOM      3  C   UNL     1      -6.533   1.597  -1.105  0.00  0.00    +0.009 A 
ATOM      4  C   UNL     1      -7.066   0.410  -0.640  0.00  0.00    +0.038 A 
ATOM      5  C   UNL     1      -6.417  -0.787  -0.894  0.00  0.00    +0.123 A 
ATOM      6  C   UNL     1      -5.238  -0.793  -1.619  0.00  0.00    +0.038 A 
ATOM      7  C   UNL     1      -4.710   0.394  -2.088  0.00  0.00    +0.009 A 
ATOM      8  F   UNL     1      -6.935  -1.947  -0.434  0.00  0.00    -0.205 F 
ENDBRANCH   1   2
BRANCH   1  10
ATOM      9  N   UNL     1      -5.997   2.517  -4.468  0.00  0.00    -0.284 N 
ATOM     10  C   UNL     1      -5.605   3.376  -3.507  0.00  0.00    +0.242 C 
ATOM     11  O   UNL     1      -5.916   4.547  -3.576  0.00  0.00    -0.273 OA
ATOM     12  H   UNL     1      -5.733   1.585  -4.422  0.00  0.00    +0.155 HD
BRANCH   9  16
ATOM     13  C   UNL     1      -8.342   3.867  -7.642  0.00  0.00    +0.029 A 
ATOM     14  C   UNL     1      -7.183   3.145  -7.893  0.00  0.00    +0.025 A 
ATOM     15  C   UNL     1      -6.407   2.698  -6.843  0.00  0.00    +0.025 A 
ATOM     16  C   UNL     1      -6.785   2.971  -5.535  0.00  0.00    +0.034 A 
ATOM     17  C   UNL     1      -7.947   3.688  -5.283  0.00  0.00    +0.025 A 
ATOM     18  C   UNL     1      -8.720   4.140  -6.334  0.00  0.00    +0.025 A 
BRANCH  13  20
ATOM     19  C   UNL     1      -8.729   4.034 -10.086  0.00  0.00    +0.129 C 
ATOM     20  N   UNL     1      -9.128   4.321  -8.707  0.00  0.00    -0.336 N 
ATOM     21  C   UNL     1     -10.351   5.083  -8.441  0.00  0.00    +0.129 C 
ENDBRANCH  13  20
ENDBRANCH   9  16
ENDBRANCH   1  10
BRANCH   1  22
ATOM     22  N   UNL     1      -4.798   3.883  -1.275  0.00  0.00    -0.280 N 
ATOM     23  C   UNL     1      -4.046   3.701  -0.171  0.00  0.00    +0.238 C 
ATOM     24  O   UNL     1      -3.169   2.863  -0.166  0.00  0.00    -0.274 OA
BRANCH  22  25
ATOM     25  C   UNL     1      -5.632   5.080  -1.404  0.00  0.00    +0.144 C 
BRANCH  25  26
ATOM     26  C   UNL     1      -4.834   6.180  -2.055  0.00  0.00    -0.030 A 
ATOM     27  C   UNL     1      -3.542   6.437  -1.636  0.00  0.00    +0.008 A 
ATOM     28  C   UNL     1      -2.807   7.442  -2.235  0.00  0.00    +0.038 A 
ATOM     29  C   UNL     1      -3.370   8.200  -3.249  0.00  0.00    +0.123 A 
ATOM     30  C   UNL     1      -4.666   7.945  -3.664  0.00  0.00    +0.038 A 
ATOM     31  C   UNL     1      -5.396   6.936  -3.067  0.00  0.00    +0.008 A 
ATOM     32  F   UNL     1      -2.654   9.186  -3.832  0.00  0.00    -0.205 F 
ENDBRANCH  25  26
ENDBRANCH  22  25
BRANCH  23  33
ATOM     33  C   UNL     1      -4.296   4.538   1.057  0.00  0.00    +0.241 C 
BRANCH  33  34
ATOM     34  N   UNL     1      -3.475   4.039   2.163  0.00  0.00    -0.235 N 
ATOM     35  C   UNL     1      -3.829   3.080   3.082  0.00  0.00    +0.090 A 
ATOM     36  C   UNL     1      -4.966   2.305   3.282  0.00  0.00    +0.029 A 
ATOM     37  C   UNL     1      -5.010   1.417   4.319  0.00  0.00    +0.002 A 
ATOM     38  C   UNL     1      -3.923   1.272   5.172  0.00  0.00    +0.002 A 
ATOM     39  C   UNL     1      -2.793   2.016   4.994  0.00  0.00    +0.032 A 
ATOM     40  C   UNL     1      -2.725   2.938   3.941  0.00  0.00    +0.113 A 
ATOM     41  N   UNL     1      -1.769   3.792   3.524  0.00  0.00    -0.129 NA
ATOM     42  N   UNL     1      -2.174   4.446   2.493  0.00  0.00    -0.064 NA
ENDBRANCH  33  34
ENDBRANCH  23  33
ENDBRANCH   1  22
TORSDOF 9
