REMARK  Name = ZINC34835129
REMARK  14 active torsions:
REMARK  status: ('A' for Active; 'I' for Inactive)
REMARK    1  A    between atoms: C_1  and  C_2
REMARK    2  A    between atoms: C_2  and  N_3
REMARK    3  A    between atoms: N_6  and  C_9
REMARK    4  A    between atoms: C_10  and  C_21
REMARK    5  A    between atoms: C_11  and  C_20
REMARK    6  A    between atoms: N_13  and  C_14
REMARK    7  A    between atoms: C_21  and  N_22
REMARK    8  A    between atoms: N_22  and  C_23
REMARK    9  A    between atoms: C_23  and  C_24
REMARK   10  A    between atoms: C_24  and  C_25
REMARK   11  A    between atoms: C_25  and  O_26
REMARK   12  A    between atoms: O_26  and  C_27
REMARK   13  A    between atoms: C_28  and  C_30
REMARK   14  A    between atoms: C_34  and  N_36
REMARK                            x       y       z     vdW  Elec       q    Type
REMARK                         _______ _______ _______ _____ _____    ______ ____
ROOT
ATOM      1  C   UNL     1       4.333  -3.519  -1.154  0.00  0.00    +0.130 A 
ATOM      2  C   UNL     1       4.111  -4.544  -2.022  0.00  0.00    +0.032 A 
ATOM      3  C   UNL     1       5.330  -4.869  -2.624  0.00  0.00    +0.067 A 
ATOM      4  N   UNL     1       6.254  -4.076  -2.143  0.00  0.00    -0.170 NA
ATOM      5  N   UNL     1       5.657  -3.210  -1.219  0.00  0.00    -0.218 N 
ATOM      6  C   UNL     1       5.544  -5.949  -3.652  0.00  0.00    +0.068 C 
ENDROOT
BRANCH   1  10
ATOM      7  N   UNL     1       2.272  -1.228   1.596  0.00  0.00    +0.382 N 
ATOM      8  C   UNL     1       2.841  -0.636   0.378  0.00  0.00    -0.060 C 
ATOM      9  C   UNL     1       2.740  -1.642  -0.773  0.00  0.00    +0.088 C 
ATOM     10  N   UNL     1       3.380  -2.898  -0.352  0.00  0.00    -0.318 N 
ATOM     11  C   UNL     1       2.985  -3.478   0.941  0.00  0.00    +0.088 C 
ATOM     12  C   UNL     1       3.074  -2.385   2.011  0.00  0.00    -0.060 C 
ATOM     13  H   UNL     1       1.325  -1.525   1.411  0.00  0.00    -0.082 HD
BRANCH   7  15
ATOM     14  C   UNL     1       1.333   0.925   2.291  0.00  0.00    -0.017 C 
ATOM     15  C   UNL     1       2.268  -0.226   2.670  0.00  0.00    -0.082 C 
ENDBRANCH   7  15
ENDBRANCH   1  10
BRANCH   5  16
ATOM     16  C   UNL     1       6.307  -2.206  -0.488  0.00  0.00    +0.067 A 
ATOM     17  C   UNL     1       5.824  -0.905  -0.512  0.00  0.00    +0.028 A 
ATOM     18  C   UNL     1       6.466   0.082   0.210  0.00  0.00    +0.002 A 
ATOM     19  C   UNL     1       7.590  -0.224   0.955  0.00  0.00    +0.000 A 
ATOM     20  C   UNL     1       8.074  -1.520   0.980  0.00  0.00    +0.002 A 
ATOM     21  C   UNL     1       7.433  -2.512   0.265  0.00  0.00    +0.028 A 
ENDBRANCH   5  16
BRANCH   2  22
ATOM     22  C   UNL     1       2.785  -5.211  -2.287  0.00  0.00    +0.148 C 
BRANCH  22  23
ATOM     23  N   UNL     1       2.186  -4.643  -3.496  0.00  0.00    -0.293 N 
ATOM     24  C   UNL     1       1.262  -3.667  -3.396  0.00  0.00    +0.247 C 
ATOM     25  O   UNL     1       0.967  -3.220  -2.305  0.00  0.00    -0.270 OA
BRANCH  24  26
ATOM     26  C   UNL     1       0.607  -3.140  -4.612  0.00  0.00    +0.039 A 
ATOM     27  C   UNL     1       0.447  -3.958  -5.732  0.00  0.00    +0.013 A 
ATOM     28  C   UNL     1      -0.165  -3.461  -6.864  0.00  0.00    +0.003 A 
ATOM     29  C   UNL     1      -0.621  -2.155  -6.890  0.00  0.00    +0.033 A 
ATOM     30  C   UNL     1      -0.466  -1.339  -5.784  0.00  0.00    +0.127 A 
ATOM     31  C   UNL     1       0.140  -1.826  -4.643  0.00  0.00    +0.045 A 
BRANCH  30  32
ATOM     32  N   UNL     1      -0.956   0.057  -5.821  0.00  0.00    +0.056 N 
ATOM     33  O   UNL     1      -1.491   0.484  -6.818  0.00  0.00    -0.126 OA
ATOM     34  O   UNL     1      -0.821   0.771  -4.855  0.00  0.00    -0.126 OA
ENDBRANCH  30  32
ENDBRANCH  24  26
BRANCH  23  35
ATOM     35  C   UNL     1       2.590  -5.135  -4.816  0.00  0.00    +0.110 C 
BRANCH  35  36
ATOM     36  C   UNL     1       2.046  -6.551  -5.021  0.00  0.00    +0.047 C 
BRANCH  36  37
ATOM     37  C   UNL     1       2.468  -7.065  -6.398  0.00  0.00    +0.161 C 
BRANCH  37  38
ATOM     38  O   UNL     1       1.960  -8.386  -6.590  0.00  0.00    -0.383 OA
ATOM     39  C   UNL     1       2.300  -8.963  -7.853  0.00  0.00    +0.193 C 
ENDBRANCH  37  38
ENDBRANCH  36  37
ENDBRANCH  35  36
ENDBRANCH  23  35
ENDBRANCH  22  23
ENDBRANCH   2  22
TORSDOF 11
