REMARK  Name = ZINC36490993
REMARK  12 active torsions:
REMARK  status: ('A' for Active; 'I' for Inactive)
REMARK    1  A    between atoms: C_1  and  C_2
REMARK    2  A    between atoms: C_2  and  C_3
REMARK    3  A    between atoms: C_2  and  C_4
REMARK    4  A    between atoms: C_2  and  N_5
REMARK    5  A    between atoms: C_6  and  C_8
REMARK    6  A    between atoms: C_8  and  C_10
REMARK    7  A    between atoms: C_8  and  N_23
REMARK    8  A    between atoms: C_10  and  C_11
REMARK    9  A    between atoms: C_10  and  C_17
REMARK   10  A    between atoms: N_23  and  C_24
REMARK   11  A    between atoms: C_30  and  C_32
REMARK   12  A    between atoms: C_36  and  N_38
REMARK                            x       y       z     vdW  Elec       q    Type
REMARK                         _______ _______ _______ _____ _____    ______ ____
ROOT
ATOM      1  C   UNL     1       2.893  -0.927  -3.317  0.00  0.00    +0.174 C 
ENDROOT
BRANCH   1   3
ATOM      2  N   UNL     1       0.776  -1.952  -2.551  0.00  0.00    -0.309 N 
ATOM      3  C   UNL     1       1.484  -0.830  -2.791  0.00  0.00    +0.235 C 
ATOM      4  O   UNL     1       0.987   0.257  -2.584  0.00  0.00    -0.274 OA
ATOM      5  H   UNL     1       1.207  -2.819  -2.608  0.00  0.00    +0.149 HD
BRANCH   2   7
ATOM      6  C   UNL     1      -1.414  -1.236  -3.371  0.00  0.00    +0.031 C 
ATOM      7  C   UNL     1      -0.645  -1.861  -2.205  0.00  0.00    +0.026 C 
ATOM      8  C   UNL     1      -0.812  -0.990  -0.959  0.00  0.00    +0.031 C 
ATOM      9  C   UNL     1      -1.192  -3.262  -1.926  0.00  0.00    +0.031 C 
ENDBRANCH   2   7
ENDBRANCH   1   3
BRANCH   1  10
ATOM     10  N   UNL     1       3.764  -0.037  -2.545  0.00  0.00    -0.282 N 
ATOM     11  C   UNL     1       4.303   1.052  -3.128  0.00  0.00    +0.248 C 
ATOM     12  O   UNL     1       4.005   1.338  -4.272  0.00  0.00    -0.270 OA
BRANCH  10  13
ATOM     13  C   UNL     1       4.051  -0.332  -1.139  0.00  0.00    +0.077 C 
ATOM     14  C   UNL     1       5.096  -1.447  -1.054  0.00  0.00    +0.022 C 
ATOM     15  C   UNL     1       5.395  -1.755   0.414  0.00  0.00    +0.002 C 
ATOM     16  C   UNL     1       4.111  -2.206   1.113  0.00  0.00    +0.000 C 
ATOM     17  C   UNL     1       3.066  -1.091   1.028  0.00  0.00    +0.002 C 
ATOM     18  C   UNL     1       2.767  -0.783  -0.440  0.00  0.00    +0.022 C 
ENDBRANCH  10  13
BRANCH  11  19
ATOM     19  C   UNL     1       5.254   1.898  -2.378  0.00  0.00    +0.039 A 
ATOM     20  C   UNL     1       6.040   1.343  -1.366  0.00  0.00    +0.013 A 
ATOM     21  C   UNL     1       6.926   2.138  -0.670  0.00  0.00    +0.003 A 
ATOM     22  C   UNL     1       7.037   3.484  -0.972  0.00  0.00    +0.033 A 
ATOM     23  C   UNL     1       6.261   4.041  -1.972  0.00  0.00    +0.127 A 
ATOM     24  C   UNL     1       5.375   3.255  -2.681  0.00  0.00    +0.045 A 
BRANCH  23  25
ATOM     25  N   UNL     1       6.386   5.481  -2.288  0.00  0.00    +0.056 N 
ATOM     26  O   UNL     1       7.166   6.170  -1.672  0.00  0.00    -0.126 OA
ATOM     27  O   UNL     1       5.709   5.970  -3.163  0.00  0.00    -0.126 OA
ENDBRANCH  23  25
ENDBRANCH  11  19
ENDBRANCH   1  10
BRANCH   1  28
ATOM     28  C   UNL     1       3.389  -2.368  -3.185  0.00  0.00    +0.078 C 
BRANCH  28  29
ATOM     29  C   UNL     1       2.438  -3.294  -3.898  0.00  0.00    -0.038 A 
ATOM     30  C   UNL     1       2.106  -3.059  -5.219  0.00  0.00    +0.004 A 
ATOM     31  C   UNL     1       1.233  -3.909  -5.874  0.00  0.00    +0.000 A 
ATOM     32  C   UNL     1       0.694  -4.993  -5.208  0.00  0.00    +0.000 A 
ATOM     33  C   UNL     1       1.028  -5.229  -3.887  0.00  0.00    +0.000 A 
ATOM     34  C   UNL     1       1.903  -4.382  -3.234  0.00  0.00    +0.004 A 
ENDBRANCH  28  29
BRANCH  28  35
ATOM     35  C   UNL     1       4.761  -2.486  -3.799  0.00  0.00    -0.038 A 
ATOM     36  C   UNL     1       5.623  -3.480  -3.377  0.00  0.00    +0.004 A 
ATOM     37  C   UNL     1       6.881  -3.588  -3.940  0.00  0.00    +0.000 A 
ATOM     38  C   UNL     1       7.276  -2.701  -4.925  0.00  0.00    +0.000 A 
ATOM     39  C   UNL     1       6.413  -1.708  -5.347  0.00  0.00    +0.000 A 
ATOM     40  C   UNL     1       5.153  -1.602  -4.787  0.00  0.00    +0.004 A 
ENDBRANCH  28  35
ENDBRANCH   1  28
TORSDOF 9
