REMARK  Name = ZINC01740248
REMARK  7 active torsions:
REMARK  status: ('A' for Active; 'I' for Inactive)
REMARK    1  A    between atoms: C_1  and  C_2
REMARK    2  A    between atoms: C_2  and  N_3
REMARK    3  A    between atoms: N_3  and  C_4
REMARK    4  A    between atoms: N_3  and  C_6
REMARK    5  A    between atoms: C_4  and  C_5
REMARK    6  A    between atoms: C_9  and  C_13
REMARK    7  A    between atoms: C_10  and  O_12
REMARK                            x       y       z     vdW  Elec       q    Type
REMARK                         _______ _______ _______ _____ _____    ______ ____
ROOT
ATOM      1  C   UNL     1       1.635  -6.132   0.636  0.00  0.00    +0.191 C 
ATOM      2  N   UNL     1       2.863  -6.349  -0.149  0.00  0.00    -0.322 N 
ATOM      3  C   UNL     1       2.811  -6.121  -1.525  0.00  0.00    +0.038 A 
ATOM      4  C   UNL     1       3.934  -5.803  -2.252  0.00  0.00    +0.023 A 
ATOM      5  C   UNL     1       3.846  -5.585  -3.625  0.00  0.00    +0.002 A 
ATOM      6  C   UNL     1       2.657  -5.679  -4.283  0.00  0.00    +0.009 A 
ATOM      7  C   UNL     1       1.486  -6.000  -3.575  0.00  0.00    -0.014 A 
ATOM      8  C   UNL     1       1.567  -6.223  -2.182  0.00  0.00    +0.024 A 
ATOM      9  C   UNL     1       0.403  -6.544  -1.453  0.00  0.00    +0.038 A 
ATOM     10  C   UNL     1      -0.802  -6.635  -2.110  0.00  0.00    +0.023 A 
ATOM     11  C   UNL     1      -0.873  -6.414  -3.484  0.00  0.00    +0.002 A 
ATOM     12  C   UNL     1       0.237  -6.104  -4.211  0.00  0.00    +0.009 A 
ATOM     13  N   UNL     1       0.511  -6.763  -0.079  0.00  0.00    -0.322 N 
ATOM     14  H   UNL     1       3.683  -6.642   0.278  0.00  0.00    +0.148 HD
ATOM     15  H   UNL     1      -0.133  -7.315   0.392  0.00  0.00    +0.148 HD
ENDROOT
BRANCH   1  19
ATOM     16  C   UNL     1       0.908  -1.939   1.045  0.00  0.00    +0.017 A 
ATOM     17  C   UNL     1      -0.151  -2.816   0.897  0.00  0.00    +0.022 A 
ATOM     18  C   UNL     1       0.084  -4.172   0.765  0.00  0.00    +0.012 A 
ATOM     19  C   UNL     1       1.379  -4.654   0.779  0.00  0.00    +0.032 A 
ATOM     20  C   UNL     1       2.443  -3.776   0.927  0.00  0.00    +0.125 A 
ATOM     21  C   UNL     1       2.204  -2.415   1.054  0.00  0.00    +0.067 A 
BRANCH  16  22
ATOM     22  N   UNL     1       0.667  -0.568   1.179  0.00  0.00    -0.394 NA
ATOM     23  H   UNL     1       1.544  -0.080   1.271  0.00  0.00    +0.126 HD
BRANCH  22  25
ATOM     24  C   UNL     1       0.868  -0.191  -1.233  0.00  0.00    +0.022 C 
ATOM     25  C   UNL     1      -0.044  -0.078  -0.010  0.00  0.00    +0.081 C 
ENDBRANCH  22  25
BRANCH  22  26
ATOM     26  C   UNL     1      -0.154  -0.330   2.373  0.00  0.00    +0.081 C 
ATOM     27  C   UNL     1       0.637  -0.723   3.623  0.00  0.00    +0.022 C 
ENDBRANCH  22  26
ENDBRANCH  16  22
BRANCH  20  28
ATOM     28  O   UNL     1       3.717  -4.248   0.942  0.00  0.00    -0.506 OA
ATOM     29  H   UNL     1       4.131  -4.291   0.069  0.00  0.00    +0.292 HD
ENDBRANCH  20  28
ENDBRANCH   1  19
TORSDOF 5
