REMARK  Name = ZINC12953534
REMARK  10 active torsions:
REMARK  status: ('A' for Active; 'I' for Inactive)
REMARK    1  A    between atoms: C_1  and  C_2
REMARK    2  A    between atoms: C_3  and  C_24
REMARK    3  A    between atoms: C_5  and  C_14
REMARK    4  A    between atoms: N_6  and  C_7
REMARK    5  A    between atoms: C_17  and  S_20
REMARK    6  A    between atoms: S_20  and  C_23
REMARK    7  A    between atoms: C_24  and  C_37
REMARK    8  A    between atoms: N_25  and  O_26
REMARK    9  A    between atoms: O_26  and  C_27
REMARK   10  A    between atoms: C_27  and  C_29
REMARK                            x       y       z     vdW  Elec       q    Type
REMARK                         _______ _______ _______ _____ _____    ______ ____
ROOT
ATOM      1  C   UNL     1       6.535  -0.630  -0.145  0.00  0.00    +0.064 C 
ATOM      2  C   UNL     1       6.268  -2.113  -0.107  0.00  0.00    +0.031 A 
ATOM      3  C   UNL     1       5.062  -2.709   0.192  0.00  0.00    +0.030 A 
ATOM      4  C   UNL     1       5.259  -4.111   0.105  0.00  0.00    +0.038 A 
ATOM      5  C   UNL     1       6.558  -4.316  -0.232  0.00  0.00    +0.055 A 
ATOM      6  N   UNL     1       7.174  -3.094  -0.358  0.00  0.00    -0.313 N 
ENDROOT
BRANCH   6   7
ATOM      7  C   UNL     1       8.519  -2.891  -0.697  0.00  0.00    +0.047 A 
ATOM      8  C   UNL     1       9.522  -3.256   0.191  0.00  0.00    +0.029 A 
ATOM      9  C   UNL     1      10.847  -3.060  -0.147  0.00  0.00    +0.040 A 
ATOM     10  C   UNL     1      11.175  -2.491  -1.366  0.00  0.00    +0.124 A 
ATOM     11  C   UNL     1      10.176  -2.122  -2.251  0.00  0.00    +0.040 A 
ATOM     12  C   UNL     1       8.850  -2.320  -1.919  0.00  0.00    +0.029 A 
ATOM     13  F   UNL     1      12.471  -2.296  -1.692  0.00  0.00    -0.205 F 
ENDBRANCH   6   7
BRANCH   5  14
ATOM     14  C   UNL     1       7.202  -5.633  -0.430  0.00  0.00    -0.001 A 
ATOM     15  C   UNL     1       8.373  -5.734  -1.183  0.00  0.00    +0.012 A 
ATOM     16  C   UNL     1       8.972  -6.964  -1.359  0.00  0.00    +0.027 A 
ATOM     17  C   UNL     1       8.408  -8.098  -0.801  0.00  0.00    +0.088 A 
ATOM     18  C   UNL     1       7.244  -8.005  -0.059  0.00  0.00    +0.027 A 
ATOM     19  C   UNL     1       6.638  -6.780   0.130  0.00  0.00    +0.012 A 
BRANCH  17  20
ATOM     20  S   UNL     1       9.175  -9.666  -1.038  0.00  0.00    -0.006 S 
ATOM     21  O   UNL     1      10.547  -9.370  -1.255  0.00  0.00    -0.170 OA
ATOM     22  O   UNL     1       8.769 -10.441   0.083  0.00  0.00    -0.170 OA
ATOM     23  C   UNL     1       8.430 -10.325  -2.555  0.00  0.00    +0.200 C 
ENDBRANCH  17  20
ENDBRANCH   5  14
BRANCH   3  24
ATOM     24  C   UNL     1       3.805  -2.020   0.530  0.00  0.00    +0.192 C 
ATOM     25  N   UNL     1       3.766  -0.726   0.573  0.00  0.00    -0.069 NA
BRANCH  24  26
ATOM     26  C   UNL     1       2.563  -2.821   0.827  0.00  0.00    +0.438 C 
ATOM     27  F   UNL     1       1.506  -1.952   1.119  0.00  0.00    -0.164 F 
ATOM     28  F   UNL     1       2.233  -3.599  -0.288  0.00  0.00    -0.164 F 
ATOM     29  F   UNL     1       2.797  -3.655   1.925  0.00  0.00    -0.164 F 
ENDBRANCH  24  26
BRANCH  25  30
ATOM     30  O   UNL     1       2.727  -0.157   0.853  0.00  0.00    -0.311 OA
BRANCH  30  31
ATOM     31  C   UNL     1       2.755   1.190   0.880  0.00  0.00    +0.368 C 
ATOM     32  O   UNL     1       3.787   1.781   0.631  0.00  0.00    -0.243 OA
BRANCH  31  33
ATOM     33  C   UNL     1       1.532   1.947   1.211  0.00  0.00    +0.080 A 
ATOM     34  C   UNL     1       0.344   1.270   1.498  0.00  0.00    +0.018 A 
ATOM     35  C   UNL     1      -0.796   1.983   1.801  0.00  0.00    +0.021 A 
ATOM     36  C   UNL     1      -0.763   3.368   1.833  0.00  0.00    +0.042 A 
ATOM     37  C   UNL     1       0.410   4.046   1.550  0.00  0.00    +0.040 A 
ATOM     38  C   UNL     1       1.558   3.344   1.240  0.00  0.00    +0.056 A 
ATOM     39 CL   UNL     1       3.029   4.195   0.885  0.00  0.00    -0.083 Cl
ATOM     40 CL   UNL     1      -2.203   4.258   2.222  0.00  0.00    -0.083 Cl
ENDBRANCH  31  33
ENDBRANCH  30  31
ENDBRANCH  25  30
ENDBRANCH   3  24
TORSDOF 8
