REMARK  Name = ZINC40309197
REMARK  6 active torsions:
REMARK  status: ('A' for Active; 'I' for Inactive)
REMARK    1  A    between atoms: C_3  and  O_26
REMARK    2  A    between atoms: C_6  and  N_7
REMARK    3  A    between atoms: C_8  and  C_10
REMARK    4  A    between atoms: N_12  and  C_13
REMARK    5  A    between atoms: C_13  and  C_14
REMARK    6  A    between atoms: C_14  and  C_15
REMARK                            x       y       z     vdW  Elec       q    Type
REMARK                         _______ _______ _______ _____ _____    ______ ____
ROOT
ATOM      1  C   UNL     1      -2.468  -2.819  -0.203  0.00  0.00    +0.299 C 
ATOM      2  O   UNL     1      -3.525  -2.224  -0.189  0.00  0.00    -0.265 OA
ATOM      3  N   UNL     1      -2.452  -4.162  -0.312  0.00  0.00    -0.307 N 
ATOM      4  H   UNL     1      -1.607  -4.638  -0.323  0.00  0.00    +0.149 HD
ENDROOT
BRANCH   1   6
ATOM      5  N   UNL     1      -1.199  -0.720   0.010  0.00  0.00    -0.278 N 
ATOM      6  C   UNL     1      -1.184  -2.063  -0.099  0.00  0.00    +0.303 C 
ATOM      7  O   UNL     1      -0.126  -2.659  -0.113  0.00  0.00    -0.265 OA
ATOM      8  H   UNL     1      -2.043  -0.251   0.098  0.00  0.00    +0.155 HD
BRANCH   5  14
ATOM      9  C   UNL     1       1.071  -0.454  -0.768  0.00  0.00    +0.027 A 
ATOM     10  C   UNL     1       2.256   0.254  -0.781  0.00  0.00    +0.047 A 
ATOM     11  C   UNL     1       2.379   1.416  -0.032  0.00  0.00    +0.117 A 
ATOM     12  C   UNL     1       1.312   1.866   0.732  0.00  0.00    +0.047 A 
ATOM     13  C   UNL     1       0.126   1.159   0.746  0.00  0.00    +0.027 A 
ATOM     14  C   UNL     1       0.002  -0.004  -0.004  0.00  0.00    +0.034 A 
BRANCH  11  15
ATOM     15  O   UNL     1       3.546   2.112  -0.046  0.00  0.00    -0.507 OA
ATOM     16  H   UNL     1       3.593   2.788  -0.736  0.00  0.00    +0.292 HD
ENDBRANCH  11  15
ENDBRANCH   5  14
ENDBRANCH   1   6
BRANCH   3  17
ATOM     17  C   UNL     1      -3.712  -4.904  -0.414  0.00  0.00    +0.109 C 
BRANCH  17  18
ATOM     18  C   UNL     1      -3.415  -6.400  -0.526  0.00  0.00    +0.056 C 
BRANCH  18  19
ATOM     19  C   UNL     1      -4.711  -7.163  -0.631  0.00  0.00    -0.021 A 
ATOM     20  C   UNL     1      -5.388  -7.730   0.380  0.00  0.00    +0.087 A 
ATOM     21  N   UNL     1      -6.519  -8.334  -0.096  0.00  0.00    -0.360 N 
ATOM     22  H   UNL     1      -7.167  -8.810   0.446  0.00  0.00    +0.165 HD
ATOM     23  C   UNL     1      -6.599  -8.167  -1.461  0.00  0.00    +0.047 A 
ATOM     24  C   UNL     1      -5.474  -7.420  -1.855  0.00  0.00    +0.004 A 
ATOM     25  C   UNL     1      -5.292  -7.089  -3.199  0.00  0.00    +0.030 A 
ATOM     26  C   UNL     1      -6.221  -7.494  -4.132  0.00  0.00    +0.042 A 
ATOM     27  C   UNL     1      -7.333  -8.228  -3.742  0.00  0.00    +0.022 A 
ATOM     28  C   UNL     1      -7.522  -8.569  -2.421  0.00  0.00    +0.027 A 
ATOM     29 CL   UNL     1      -5.999  -7.084  -5.804  0.00  0.00    -0.084 Cl
ENDBRANCH  18  19
ENDBRANCH  17  18
ENDBRANCH   3  17
TORSDOF 6
