REMARK  Name = ZINC00632601
REMARK  12 active torsions:
REMARK  status: ('A' for Active; 'I' for Inactive)
REMARK    1  A    between atoms: C_1  and  C_2
REMARK    2  A    between atoms: C_2  and  C_3
REMARK    3  A    between atoms: C_3  and  C_4
REMARK    4  A    between atoms: C_11  and  C_13
REMARK    5  A    between atoms: C_15  and  S_22
REMARK    6  A    between atoms: C_18  and  O_19
REMARK    7  A    between atoms: O_19  and  C_20
REMARK    8  A    between atoms: C_20  and  C_21
REMARK    9  A    between atoms: S_22  and  N_25
REMARK   10  A    between atoms: N_25  and  C_26
REMARK   11  A    between atoms: C_29  and  C_32
REMARK   12  A    between atoms: N_33  and  C_35
REMARK                            x       y       z     vdW  Elec       q    Type
REMARK                         _______ _______ _______ _____ _____    ______ ____
ROOT
ATOM      1  C   UNL     1      -3.561  -1.719  -5.857  0.00  0.00    +0.061 A 
ATOM      2  C   UNL     1      -2.864  -2.835  -6.324  0.00  0.00    +0.044 A 
ATOM      3  C   UNL     1      -2.768  -3.068  -7.679  0.00  0.00    +0.109 A 
ATOM      4  C   UNL     1      -3.359  -2.200  -8.581  0.00  0.00    +0.032 A 
ATOM      5  C   UNL     1      -4.052  -1.092  -8.132  0.00  0.00    +0.048 A 
ATOM      6  C   UNL     1      -4.164  -0.846  -6.773  0.00  0.00    +0.131 A 
ENDROOT
BRANCH   1  14
ATOM      7  C   UNL     1      -5.094   0.891  -1.957  0.00  0.00    +0.089 A 
ATOM      8  C   UNL     1      -4.457  -0.137  -2.680  0.00  0.00    +0.119 A 
ATOM      9  C   UNL     1      -3.866  -0.991  -1.740  0.00  0.00    +0.151 A 
ATOM     10  C   UNL     1      -3.152  -2.122  -2.201  0.00  0.00    +0.278 A 
ATOM     11  O   UNL     1      -2.624  -2.889  -1.415  0.00  0.00    -0.265 OA
ATOM     12  N   UNL     1      -3.071  -2.331  -3.534  0.00  0.00    -0.305 N 
ATOM     13  H   UNL     1      -2.587  -3.100  -3.873  0.00  0.00    +0.170 HD
ATOM     14  C   UNL     1      -3.668  -1.463  -4.407  0.00  0.00    +0.145 A 
ATOM     15  N   UNL     1      -4.332  -0.410  -3.994  0.00  0.00    -0.225 NA
ATOM     16  N   UNL     1      -4.148  -0.480  -0.504  0.00  0.00    -0.260 N 
ATOM     17  N   UNL     1      -4.904   0.686  -0.682  0.00  0.00    -0.174 NA
ATOM     18  C   UNL     1      -3.729  -1.048   0.780  0.00  0.00    +0.173 C 
BRANCH   7  19
ATOM     19  C   UNL     1      -5.861   2.041  -2.557  0.00  0.00    +0.059 C 
BRANCH  19  21
ATOM     20  C   UNL     1      -5.689   4.378  -3.423  0.00  0.00    +0.004 C 
ATOM     21  C   UNL     1      -4.910   3.211  -2.814  0.00  0.00    +0.003 C 
ENDBRANCH  19  21
ENDBRANCH   7  19
ENDBRANCH   1  14
BRANCH   3  22
ATOM     22  S   UNL     1      -1.887  -4.477  -8.266  0.00  0.00    +0.072 S 
ATOM     23  O   UNL     1      -1.369  -4.130  -9.542  0.00  0.00    -0.150 OA
ATOM     24  O   UNL     1      -1.055  -4.910  -7.198  0.00  0.00    -0.150 OA
BRANCH  22  25
ATOM     25  N   UNL     1      -2.998  -5.679  -8.517  0.00  0.00    -0.216 N 
ATOM     26  H   UNL     1      -3.135  -6.034  -9.409  0.00  0.00    +0.174 HD
BRANCH  25  27
ATOM     27  C   UNL     1      -3.738  -6.182  -7.444  0.00  0.00    +0.048 A 
ATOM     28  C   UNL     1      -3.140  -7.035  -6.525  0.00  0.00    +0.025 A 
ATOM     29  C   UNL     1      -3.874  -7.529  -5.465  0.00  0.00    +0.005 A 
ATOM     30  C   UNL     1      -5.204  -7.177  -5.318  0.00  0.00    -0.050 A 
ATOM     31  C   UNL     1      -5.802  -6.328  -6.231  0.00  0.00    +0.005 A 
ATOM     32  C   UNL     1      -5.072  -5.825  -7.290  0.00  0.00    +0.025 A 
ATOM     33  C   UNL     1      -6.002  -7.719  -4.161  0.00  0.00    +0.044 C 
ENDBRANCH  25  27
ENDBRANCH  22  25
ENDBRANCH   3  22
BRANCH   6  34
ATOM     34  O   UNL     1      -4.849   0.239  -6.330  0.00  0.00    -0.492 OA
BRANCH  34  35
ATOM     35  C   UNL     1      -5.436   1.084  -7.322  0.00  0.00    +0.226 C 
ATOM     36  C   UNL     1      -6.161   2.245  -6.639  0.00  0.00    +0.048 C 
ENDBRANCH  34  35
ENDBRANCH   6  34
TORSDOF 8
