REMARK  Name = ZINC21137355
REMARK  15 active torsions:
REMARK  status: ('A' for Active; 'I' for Inactive)
REMARK    1  A    between atoms: C_1  and  C_2
REMARK    2  A    between atoms: C_5  and  N_33
REMARK    3  A    between atoms: C_7  and  N_8
REMARK    4  A    between atoms: C_9  and  C_11
REMARK    5  A    between atoms: C_11  and  S_12
REMARK    6  A    between atoms: S_12  and  C_13
REMARK    7  A    between atoms: N_23  and  C_24
REMARK    8  A    between atoms: C_24  and  C_25
REMARK    9  A    between atoms: C_25  and  N_26
REMARK   10  A    between atoms: N_26  and  C_27
REMARK   11  A    between atoms: N_26  and  C_30
REMARK   12  A    between atoms: C_27  and  C_28
REMARK   13  A    between atoms: C_27  and  C_29
REMARK   14  A    between atoms: C_30  and  C_31
REMARK   15  A    between atoms: C_30  and  C_32
REMARK                            x       y       z     vdW  Elec       q    Type
REMARK                         _______ _______ _______ _____ _____    ______ ____
ROOT
ATOM      1  C   UNL     1      -0.289  -1.787  -1.115  0.00  0.00    +0.173 A 
ATOM      2  N   UNL     1      -0.024  -0.555  -1.475  0.00  0.00    -0.223 NA
ATOM      3  C   UNL     1       1.242  -0.134  -1.671  0.00  0.00    +0.079 A 
ATOM      4  C   UNL     1       1.525   1.180  -2.054  0.00  0.00    +0.028 A 
ATOM      5  C   UNL     1       2.823   1.565  -2.242  0.00  0.00    +0.002 A 
ATOM      6  C   UNL     1       3.868   0.669  -2.058  0.00  0.00    +0.001 A 
ATOM      7  C   UNL     1       3.623  -0.624  -1.683  0.00  0.00    +0.015 A 
ATOM      8  C   UNL     1       2.308  -1.043  -1.484  0.00  0.00    +0.065 A 
ATOM      9  C   UNL     1       1.985  -2.418  -1.081  0.00  0.00    +0.262 A 
ATOM     10  O   UNL     1       2.859  -3.247  -0.905  0.00  0.00    -0.267 OA
ATOM     11  N   UNL     1       0.678  -2.729  -0.913  0.00  0.00    -0.289 N 
ENDROOT
BRANCH   1  12
ATOM     12  S   UNL     1      -1.974  -2.249  -0.881  0.00  0.00    -0.078 S 
BRANCH  12  13
ATOM     13  C   UNL     1      -2.787  -0.678  -1.267  0.00  0.00    +0.173 C 
BRANCH  13  15
ATOM     14  N   UNL     1      -5.093   0.208  -1.369  0.00  0.00    -0.285 N 
ATOM     15  C   UNL     1      -4.279  -0.838  -1.129  0.00  0.00    +0.227 C 
ATOM     16  O   UNL     1      -4.746  -1.908  -0.801  0.00  0.00    -0.275 OA
ATOM     17  H   UNL     1      -4.676   1.158  -1.736  0.00  0.00    +0.155 HD
BRANCH  14  24
ATOM     18  C   UNL     1      -6.569   2.562  -0.754  0.00  0.00    +0.045 C 
ATOM     19  C   UNL     1      -7.228   1.211  -0.849  0.00  0.00    -0.029 A 
ATOM     20  C   UNL     1      -8.588   1.088  -0.636  0.00  0.00    +0.007 A 
ATOM     21  C   UNL     1      -9.193  -0.152  -0.723  0.00  0.00    +0.033 A 
ATOM     22  C   UNL     1      -8.441  -1.273  -1.023  0.00  0.00    +0.128 A 
ATOM     23  C   UNL     1      -7.083  -1.156  -1.243  0.00  0.00    +0.056 A 
ATOM     24  C   UNL     1      -6.470   0.087  -1.151  0.00  0.00    +0.038 A 
BRANCH  22  25
ATOM     25  N   UNL     1      -9.094  -2.598  -1.116  0.00  0.00    +0.056 N 
ATOM     26  O   UNL     1     -10.293  -2.701  -0.927  0.00  0.00    -0.126 OA
ATOM     27  O   UNL     1      -8.432  -3.586  -1.381  0.00  0.00    -0.126 OA
ENDBRANCH  22  25
ENDBRANCH  14  24
ENDBRANCH  13  15
ENDBRANCH  12  13
ENDBRANCH   1  12
BRANCH  11  28
ATOM     28  C   UNL     1       0.299  -4.087  -0.512  0.00  0.00    +0.109 C 
BRANCH  28  29
ATOM     29  C   UNL     1       0.254  -4.173   1.015  0.00  0.00    -0.056 C 
BRANCH  29  30
ATOM     30  N   UNL     1      -0.126  -5.533   1.418  0.00  0.00    +0.384 N 
ATOM     31  H   UNL     1       0.543  -6.238   0.902  0.00  0.00    -0.081 HD
BRANCH  30  32
ATOM     32  C   UNL     1       0.049  -5.722   2.864  0.00  0.00    -0.074 C 
ATOM     33  C   UNL     1       1.499  -6.110   3.156  0.00  0.00    -0.014 C 
ATOM     34  C   UNL     1      -0.288  -4.420   3.593  0.00  0.00    -0.014 C 
ENDBRANCH  30  32
BRANCH  30  35
ATOM     35  C   UNL     1      -1.504  -5.838   1.010  0.00  0.00    -0.074 C 
ATOM     36  C   UNL     1      -1.762  -7.338   1.164  0.00  0.00    -0.014 C 
ATOM     37  C   UNL     1      -2.481  -5.059   1.892  0.00  0.00    -0.014 C 
ENDBRANCH  30  35
ENDBRANCH  29  30
ENDBRANCH  28  29
ENDBRANCH  11  28
TORSDOF 10
