REMARK  Name = ZINC04406677
REMARK  10 active torsions:
REMARK  status: ('A' for Active; 'I' for Inactive)
REMARK    1  A    between atoms: C_1  and  C_2
REMARK    2  A    between atoms: C_5  and  C_8
REMARK    3  A    between atoms: C_14  and  C_16
REMARK    4  A    between atoms: C_16  and  C_17
REMARK    5  A    between atoms: C_17  and  N_18
REMARK    6  A    between atoms: N_18  and  C_19
REMARK    7  A    between atoms: C_25  and  C_27
REMARK    8  A    between atoms: C_27  and  C_28
REMARK    9  A    between atoms: C_28  and  C_29
REMARK   10  A    between atoms: C_28  and  C_30
REMARK                            x       y       z     vdW  Elec       q    Type
REMARK                         _______ _______ _______ _____ _____    ______ ____
ROOT
ATOM      1  C   UNL     1      -2.123   1.452   5.847  0.00  0.00    +0.134 A 
ATOM      2  N   UNL     1      -2.693   1.924   4.746  0.00  0.00    -0.140 NA
ATOM      3  N   UNL     1      -2.169   1.717   3.616  0.00  0.00    -0.125 NA
ATOM      4  C   UNL     1      -1.052   1.021   3.479  0.00  0.00    +0.188 A 
ATOM      5  S   UNL     1      -0.701   0.629   5.137  0.00  0.00    -0.030 S 
ATOM      6  N   UNL     1      -0.348   0.696   2.326  0.00  0.00    -0.263 N 
ATOM      7  C   UNL     1      -0.799   1.104   1.124  0.00  0.00    +0.220 C 
ATOM      8  O   UNL     1      -1.820   1.755   1.048  0.00  0.00    -0.275 OA
ATOM      9  H   UNL     1       0.468   0.175   2.387  0.00  0.00    +0.157 HD
ENDROOT
BRANCH   1  14
ATOM     10  C   UNL     1      -3.757   1.918  11.345  0.00  0.00    +0.044 C 
ATOM     11  C   UNL     1      -3.329   1.795   9.905  0.00  0.00    -0.050 A 
ATOM     12  C   UNL     1      -4.092   2.378   8.908  0.00  0.00    +0.004 A 
ATOM     13  C   UNL     1      -3.706   2.270   7.588  0.00  0.00    +0.011 A 
ATOM     14  C   UNL     1      -2.543   1.571   7.259  0.00  0.00    +0.009 A 
ATOM     15  C   UNL     1      -1.782   0.981   8.269  0.00  0.00    +0.011 A 
ATOM     16  C   UNL     1      -2.176   1.101   9.586  0.00  0.00    +0.004 A 
ENDBRANCH   1  14
BRANCH   7  17
ATOM     17  C   UNL     1      -0.036   0.751  -0.127  0.00  0.00    +0.115 C 
BRANCH  17  18
ATOM     18  C   UNL     1      -0.757   1.331  -1.345  0.00  0.00    +0.117 C 
BRANCH  18  19
ATOM     19  N   UNL     1      -0.015   0.989  -2.561  0.00  0.00    -0.298 N 
ATOM     20  C   UNL     1      -0.293  -0.153  -3.221  0.00  0.00    +0.216 C 
ATOM     21  O   UNL     1       0.249  -0.389  -4.280  0.00  0.00    -0.276 OA
BRANCH  19  22
ATOM     22  C   UNL     1       1.030   1.887  -3.059  0.00  0.00    +0.076 C 
ATOM     23  C   UNL     1       0.620   2.438  -4.426  0.00  0.00    +0.022 C 
ATOM     24  C   UNL     1       1.711   3.376  -4.946  0.00  0.00    +0.002 C 
ATOM     25  C   UNL     1       3.025   2.604  -5.080  0.00  0.00    +0.000 C 
ATOM     26  C   UNL     1       3.435   2.053  -3.713  0.00  0.00    +0.002 C 
ATOM     27  C   UNL     1       2.344   1.115  -3.193  0.00  0.00    +0.022 C 
ENDBRANCH  19  22
BRANCH  20  28
ATOM     28  C   UNL     1      -1.279  -1.136  -2.644  0.00  0.00    +0.099 C 
BRANCH  28  29
ATOM     29  C   UNL     1      -1.307  -2.397  -3.509  0.00  0.00    -0.008 C 
ATOM     30  C   UNL     1       0.052  -3.096  -3.435  0.00  0.00    +0.008 C 
ATOM     31  C   UNL     1      -2.395  -3.343  -2.997  0.00  0.00    +0.008 C 
ENDBRANCH  28  29
ENDBRANCH  20  28
ENDBRANCH  18  19
ENDBRANCH  17  18
ENDBRANCH   7  17
TORSDOF 7
