REMARK  Name = ZINC16020885
REMARK  6 active torsions:
REMARK  status: ('A' for Active; 'I' for Inactive)
REMARK    1  A    between atoms: C_1  and  C_2
REMARK    2  A    between atoms: C_16  and  C_19
REMARK    3  A    between atoms: C_19  and  C_20
REMARK    4  A    between atoms: C_20  and  S_21
REMARK    5  A    between atoms: S_21  and  C_22
REMARK    6  A    between atoms: N_25  and  C_28
REMARK                            x       y       z     vdW  Elec       q    Type
REMARK                         _______ _______ _______ _____ _____    ______ ____
ROOT
ATOM      1  C   UNL     1      -0.018   1.503   0.010  0.00  0.00    +0.047 C 
ATOM      2  C   UNL     1       0.002  -0.004   0.002  0.00  0.00    -0.011 A 
ATOM      3  C   UNL     1       0.006  -0.686  -1.199  0.00  0.00    +0.046 A 
ATOM      4  C   UNL     1       0.024  -2.070  -1.215  0.00  0.00    +0.021 A 
ATOM      5  C   UNL     1       0.038  -2.773  -0.024  0.00  0.00    +0.009 A 
ATOM      6  C   UNL     1       0.034  -2.097   1.175  0.00  0.00    +0.004 A 
ATOM      7  C   UNL     1       0.023  -0.705   1.205  0.00  0.00    +0.043 A 
ATOM      8  N   UNL     1       0.030  -0.250   2.525  0.00  0.00    -0.283 N 
ATOM      9  C   UNL     1       0.051  -1.264   3.411  0.00  0.00    +0.243 C 
ATOM     10  O   UNL     1       0.062  -1.169   4.620  0.00  0.00    -0.273 OA
ATOM     11  C   UNL     1       0.045  -2.538   2.611  0.00  0.00    +0.136 C 
ATOM     12  C   UNL     1       1.279  -3.391   2.932  0.00  0.00    +0.122 C 
ATOM     13  C   UNL     1       0.772  -4.439   3.961  0.00  0.00    +0.107 C 
ATOM     14  C   UNL     1      -0.718  -4.097   4.175  0.00  0.00    +0.068 C 
ATOM     15  N   UNL     1      -1.122  -3.382   2.927  0.00  0.00    -0.295 NA
ATOM     16  C   UNL     1       0.896  -5.749   3.216  0.00  0.00    +0.227 C 
ATOM     17  O   UNL     1       0.596  -6.837   3.658  0.00  0.00    -0.275 OA
ATOM     18  N   UNL     1       1.388  -5.520   1.993  0.00  0.00    -0.238 N 
ATOM     19  C   UNL     1       1.651  -4.220   1.723  0.00  0.00    +0.228 C 
ATOM     20  O   UNL     1       2.106  -3.784   0.688  0.00  0.00    -0.275 OA
ATOM     21 CL   UNL     1      -0.014   0.196  -2.694  0.00  0.00    -0.083 Cl
ATOM     22  H   UNL     1       0.021   0.688   2.775  0.00  0.00    +0.155 HD
ATOM     23  H   UNL     1      -1.943  -2.818   3.089  0.00  0.00    +0.123 HD
ENDROOT
BRANCH  18  24
ATOM     24  C   UNL     1       1.631  -6.590   1.023  0.00  0.00    +0.084 C 
ATOM     25  C   UNL     1       0.287  -7.260   0.672  0.00  0.00    +0.023 C 
ATOM     26  C   UNL     1       0.437  -7.972  -0.645  0.00  0.00    +0.002 C 
ATOM     27  C   UNL     1       0.806  -9.458  -0.474  0.00  0.00    +0.000 C 
ATOM     28  C   UNL     1       1.857  -9.689   0.628  0.00  0.00    +0.000 C 
ATOM     29  C   UNL     1       2.954  -8.659   0.603  0.00  0.00    +0.002 C 
ATOM     30  C   UNL     1       2.589  -7.530   1.588  0.00  0.00    +0.023 C 
ENDBRANCH  18  24
BRANCH  14  31
ATOM     31  C   UNL     1      -1.541  -5.378   4.329  0.00  0.00    +0.030 C 
BRANCH  31  32
ATOM     32  C   UNL     1      -2.989  -5.015   4.663  0.00  0.00    +0.070 C 
BRANCH  32  33
ATOM     33  S   UNL     1      -3.965  -6.533   4.847  0.00  0.00    -0.164 S 
ATOM     34  C   UNL     1      -5.634  -5.938   5.236  0.00  0.00    +0.084 C 
ENDBRANCH  32  33
ENDBRANCH  31  32
ENDBRANCH  14  31
TORSDOF 4
