REMARK  Name = ZINC38845257
REMARK  15 active torsions:
REMARK  status: ('A' for Active; 'I' for Inactive)
REMARK    1  A    between atoms: C_1  and  C_2
REMARK    2  A    between atoms: C_2  and  N_3
REMARK    3  A    between atoms: N_3  and  C_4
REMARK    4  A    between atoms: N_3  and  C_6
REMARK    5  A    between atoms: C_4  and  C_5
REMARK    6  A    between atoms: C_6  and  C_7
REMARK    7  A    between atoms: C_7  and  N_8
REMARK    8  A    between atoms: C_17  and  S_18
REMARK    9  A    between atoms: S_18  and  C_19
REMARK   10  A    between atoms: C_20  and  C_22
REMARK   11  A    between atoms: C_22  and  C_23
REMARK   12  A    between atoms: C_23  and  S_24
REMARK   13  A    between atoms: S_24  and  C_27
REMARK   14  A    between atoms: C_30  and  O_33
REMARK   15  A    between atoms: O_33  and  C_34
REMARK                            x       y       z     vdW  Elec       q    Type
REMARK                         _______ _______ _______ _____ _____    ______ ____
ROOT
ATOM      1  N   UNL     1      -1.382  -3.580  -1.830  0.00  0.00    -0.252 N 
ATOM      2  C   UNL     1      -1.543  -4.436  -0.751  0.00  0.00    +0.168 A 
ATOM      3  N   UNL     1      -1.747  -5.732  -0.752  0.00  0.00    -0.223 NA
ATOM      4  C   UNL     1      -1.886  -6.446   0.387  0.00  0.00    +0.094 A 
ATOM      5  C   UNL     1      -1.797  -5.707   1.587  0.00  0.00    +0.042 A 
ATOM      6  S   UNL     1      -1.516  -4.056   0.995  0.00  0.00    -0.052 S 
ATOM      7  C   UNL     1      -1.917  -6.288   2.827  0.00  0.00    +0.017 A 
ATOM      8  C   UNL     1      -2.134  -7.650   2.929  0.00  0.00    +0.002 A 
ATOM      9  C   UNL     1      -2.228  -8.412   1.774  0.00  0.00    +0.017 A 
ATOM     10  C   UNL     1      -2.110  -7.841   0.525  0.00  0.00    +0.034 A 
ATOM     11  C   UNL     1      -1.435  -4.063  -3.087  0.00  0.00    +0.223 C 
ATOM     12  O   UNL     1      -1.623  -5.247  -3.274  0.00  0.00    -0.275 OA
ENDROOT
BRANCH  10  13
ATOM     13  S   UNL     1      -2.236  -8.852  -0.912  0.00  0.00    -0.126 S 
ATOM     14  C   UNL     1      -2.514 -10.519  -0.254  0.00  0.00    +0.090 C 
ENDBRANCH  10  13
BRANCH   1  15
ATOM     15  C   UNL     1      -1.155  -2.151  -1.603  0.00  0.00    +0.097 C 
BRANCH  15  16
ATOM     16  C   UNL     1       0.348  -1.884  -1.496  0.00  0.00    -0.059 C 
BRANCH  16  17
ATOM     17  N   UNL     1       0.576  -0.451  -1.269  0.00  0.00    +0.380 N 
ATOM     18  H   UNL     1       0.124   0.081  -1.998  0.00  0.00    -0.082 HD
BRANCH  17  20
ATOM     19  C   UNL     1       0.129   1.449   0.210  0.00  0.00    -0.017 C 
ATOM     20  C   UNL     1       0.019  -0.067   0.035  0.00  0.00    -0.082 C 
ENDBRANCH  17  20
BRANCH  17  21
ATOM     21  C   UNL     1       2.019  -0.176  -1.285  0.00  0.00    -0.082 C 
ATOM     22  C   UNL     1       2.573  -0.440  -2.687  0.00  0.00    -0.017 C 
ENDBRANCH  17  21
ENDBRANCH  16  17
ENDBRANCH  15  16
ENDBRANCH   1  15
BRANCH  11  23
ATOM     23  C   UNL     1      -1.260  -3.133  -4.260  0.00  0.00    +0.119 C 
BRANCH  23  24
ATOM     24  C   UNL     1      -1.363  -3.930  -5.562  0.00  0.00    +0.181 C 
BRANCH  24  25
ATOM     25  S   UNL     1      -1.153  -2.810  -6.974  0.00  0.00    -0.003 S 
ATOM     26  O   UNL     1      -2.258  -1.921  -7.062  0.00  0.00    -0.169 OA
ATOM     27  O   UNL     1       0.179  -2.316  -7.013  0.00  0.00    -0.169 OA
BRANCH  25  28
ATOM     28  C   UNL     1      -1.291  -3.842  -8.395  0.00  0.00    +0.088 A 
ATOM     29  C   UNL     1      -0.164  -4.443  -8.924  0.00  0.00    +0.030 A 
ATOM     30  C   UNL     1      -0.270  -5.252 -10.039  0.00  0.00    +0.047 A 
ATOM     31  C   UNL     1      -1.509  -5.463 -10.627  0.00  0.00    +0.120 A 
ATOM     32  C   UNL     1      -2.639  -4.859 -10.093  0.00  0.00    +0.047 A 
ATOM     33  C   UNL     1      -2.528  -4.055  -8.976  0.00  0.00    +0.030 A 
BRANCH  31  34
ATOM     34  O   UNL     1      -1.616  -6.258 -11.723  0.00  0.00    -0.495 OA
ATOM     35  C   UNL     1      -2.923  -6.429 -12.275  0.00  0.00    +0.277 C 
ENDBRANCH  31  34
ENDBRANCH  25  28
ENDBRANCH  24  25
ENDBRANCH  23  24
ENDBRANCH  11  23
TORSDOF 11
