REMARK  Name = ZINC58490350
REMARK  6 active torsions:
REMARK  status: ('A' for Active; 'I' for Inactive)
REMARK    1  A    between atoms: C_5  and  N_7
REMARK    2  A    between atoms: N_10  and  C_13
REMARK    3  A    between atoms: C_13  and  C_14
REMARK    4  A    between atoms: C_14  and  C_15
REMARK    5  A    between atoms: N_17  and  C_18
REMARK    6  A    between atoms: C_19  and  C_27
REMARK                            x       y       z     vdW  Elec       q    Type
REMARK                         _______ _______ _______ _____ _____    ______ ____
ROOT
ATOM      1  C   UNL     1       4.066  -7.755  -1.257  0.00  0.00    +0.216 C 
ATOM      2  O   UNL     1       4.923  -7.778  -0.399  0.00  0.00    -0.276 OA
ATOM      3  N   UNL     1       4.053  -8.697  -2.222  0.00  0.00    -0.279 N 
ATOM      4  H   UNL     1       3.367  -8.679  -2.908  0.00  0.00    +0.155 HD
ENDROOT
BRANCH   3   5
ATOM      5  C   UNL     1       5.019  -9.691  -2.233  0.00  0.00    +0.084 A 
ATOM      6  C   UNL     1       5.165 -10.728  -3.141  0.00  0.00    +0.068 A 
ATOM      7  C   UNL     1       6.270 -11.646  -2.930  0.00  0.00    -0.023 A 
ATOM      8  C   UNL     1       7.028 -11.359  -1.849  0.00  0.00    -0.004 A 
ATOM      9  S   UNL     1       6.287  -9.911  -1.154  0.00  0.00    -0.077 S 
ATOM     10  C   UNL     1       8.229 -12.112  -1.367  0.00  0.00    +0.043 C 
ATOM     11  C   UNL     1       8.253 -13.479  -2.065  0.00  0.00    +0.005 C 
ATOM     12  C   UNL     1       8.029 -13.274  -3.566  0.00  0.00    +0.005 C 
ATOM     13  C   UNL     1       6.585 -12.837  -3.822  0.00  0.00    +0.037 C 
BRANCH   6  14
ATOM     14  C   UNL     1       4.240 -10.891  -4.268  0.00  0.00    +0.244 C 
ATOM     15  O   UNL     1       4.477 -10.350  -5.332  0.00  0.00    -0.270 OA
ATOM     16  N   UNL     1       3.130 -11.641  -4.125  0.00  0.00    -0.325 N 
ATOM     17  H   UNL     1       2.942 -12.072  -3.276  0.00  0.00    +0.145 HD
ATOM     18  H   UNL     1       2.518 -11.749  -4.870  0.00  0.00    +0.145 HD
ENDBRANCH   6  14
ENDBRANCH   3   5
BRANCH   1  19
ATOM     19  C   UNL     1       3.015  -6.675  -1.245  0.00  0.00    +0.077 C 
BRANCH  19  20
ATOM     20  C   UNL     1       3.256  -5.743  -0.056  0.00  0.00    -0.069 C 
BRANCH  20  24
ATOM     21  N   UNL     1       1.237  -2.078  -0.022  0.00  0.00    -0.332 N 
ATOM     22  C   UNL     1       1.256  -2.842   1.235  0.00  0.00    +0.086 C 
ATOM     23  C   UNL     1       2.392  -3.868   1.163  0.00  0.00    -0.060 C 
ATOM     24  N   UNL     1       2.232  -4.690  -0.043  0.00  0.00    +0.382 N 
ATOM     25  C   UNL     1       2.378  -3.853  -1.242  0.00  0.00    -0.060 C 
ATOM     26  C   UNL     1       1.236  -2.827  -1.288  0.00  0.00    +0.086 C 
ATOM     27  H   UNL     1       1.317  -5.114  -0.041  0.00  0.00    -0.082 HD
BRANCH  21  32
ATOM     28  C   UNL     1      -0.017   1.377   0.010  0.00  0.00    +0.002 A 
ATOM     29  C   UNL     1       1.170   2.087   0.002  0.00  0.00    +0.002 A 
ATOM     30  C   UNL     1       2.380   1.417  -0.013  0.00  0.00    +0.022 A 
ATOM     31  C   UNL     1       2.406   0.035  -0.022  0.00  0.00    +0.062 A 
ATOM     32  C   UNL     1       1.215  -0.681  -0.014  0.00  0.00    +0.048 A 
ATOM     33  C   UNL     1       0.002  -0.004   0.002  0.00  0.00    +0.024 A 
ATOM     34 CL   UNL     1       3.925  -0.805  -0.042  0.00  0.00    -0.082 Cl
ENDBRANCH  21  32
ENDBRANCH  20  24
ENDBRANCH  19  20
ENDBRANCH   1  19
TORSDOF 6
