REMARK  Name = ZINC39344530
REMARK  15 active torsions:
REMARK  status: ('A' for Active; 'I' for Inactive)
REMARK    1  A    between atoms: C_1  and  C_2
REMARK    2  A    between atoms: C_2  and  C_3
REMARK    3  A    between atoms: C_2  and  C_4
REMARK    4  A    between atoms: C_4  and  N_5
REMARK    5  A    between atoms: N_5  and  C_6
REMARK    6  A    between atoms: N_12  and  C_27
REMARK    7  A    between atoms: C_13  and  C_23
REMARK    8  A    between atoms: C_15  and  N_17
REMARK    9  A    between atoms: C_18  and  C_20
REMARK   10  A    between atoms: C_20  and  O_21
REMARK   11  A    between atoms: O_21  and  C_22
REMARK   12  A    between atoms: C_23  and  O_25
REMARK   13  A    between atoms: O_25  and  C_26
REMARK   14  A    between atoms: C_27  and  C_28
REMARK   15  A    between atoms: C_28  and  C_29
REMARK                            x       y       z     vdW  Elec       q    Type
REMARK                         _______ _______ _______ _____ _____    ______ ____
ROOT
ATOM      1  C   UNL     1       2.988  -0.431  -2.259  0.00  0.00    +0.044 A 
ATOM      2  C   UNL     1       4.330  -0.056  -2.224  0.00  0.00    +0.033 A 
ATOM      3  C   UNL     1       5.141  -0.414  -3.284  0.00  0.00    +0.015 A 
ATOM      4  C   UNL     1       4.616  -1.131  -4.350  0.00  0.00    +0.105 A 
ATOM      5  N   UNL     1       3.327  -1.469  -4.343  0.00  0.00    -0.348 N 
ATOM      6  C   UNL     1       2.524  -1.151  -3.349  0.00  0.00    +0.107 A 
ATOM      7  N   UNL     1       5.586  -1.396  -5.314  0.00  0.00    -0.301 N 
ATOM      8  C   UNL     1       6.875  -0.831  -4.904  0.00  0.00    +0.208 C 
ATOM      9  C   UNL     1       6.609  -0.165  -3.544  0.00  0.00    +0.138 C 
ATOM     10  H   UNL     1       2.970  -1.970  -5.093  0.00  0.00    +0.167 HD
ENDROOT
BRANCH   9  11
ATOM     11  N   UNL     1       7.426  -0.788  -2.500  0.00  0.00    -0.304 N 
ATOM     12  C   UNL     1       7.688  -0.119  -1.360  0.00  0.00    +0.239 C 
ATOM     13  O   UNL     1       7.246   0.998  -1.198  0.00  0.00    -0.273 OA
ATOM     14  H   UNL     1       7.779  -1.683  -2.630  0.00  0.00    +0.149 HD
BRANCH  12  15
ATOM     15  C   UNL     1       8.529  -0.760  -0.286  0.00  0.00    +0.255 C 
BRANCH  15  16
ATOM     16  O   UNL     1       8.662   0.140   0.815  0.00  0.00    -0.374 OA
ATOM     17  C   UNL     1       9.447  -0.374   1.894  0.00  0.00    +0.194 C 
ENDBRANCH  15  16
ENDBRANCH  12  15
ENDBRANCH   9  11
BRANCH   1  18
ATOM     18  N   UNL     1       2.125  -0.091  -1.209  0.00  0.00    -0.342 N 
ATOM     19  H   UNL     1       2.459   0.413  -0.451  0.00  0.00    +0.146 HD
BRANCH  18  20
ATOM     20  C   UNL     1       0.718  -0.497  -1.257  0.00  0.00    +0.104 C 
BRANCH  20  22
ATOM     21  C   UNL     1      -0.019   1.526   0.010  0.00  0.00    +0.009 C 
ATOM     22  C   UNL     1       0.002  -0.004   0.002  0.00  0.00    -0.000 C 
ATOM     23  C   UNL     1      -1.433  -0.534   0.013  0.00  0.00    +0.009 C 
ENDBRANCH  20  22
ENDBRANCH  18  20
ENDBRANCH   1  18
BRANCH   8  24
ATOM     24  C   UNL     1       7.902  -1.924  -4.761  0.00  0.00    +0.330 C 
ATOM     25  O   UNL     1       7.550  -3.074  -4.646  0.00  0.00    -0.249 OA
BRANCH  24  26
ATOM     26  O   UNL     1       9.210  -1.621  -4.762  0.00  0.00    -0.467 OA
ATOM     27  C   UNL     1      10.128  -2.707  -4.623  0.00  0.00    +0.280 C 
ENDBRANCH  24  26
ENDBRANCH   8  24
BRANCH   7  28
ATOM     28  C   UNL     1       5.352  -2.133  -6.559  0.00  0.00    +0.112 C 
BRANCH  28  29
ATOM     29  C   UNL     1       4.943  -1.155  -7.661  0.00  0.00    +0.056 C 
BRANCH  29  30
ATOM     30  C   UNL     1       4.702  -1.913  -8.941  0.00  0.00    -0.021 A 
ATOM     31  C   UNL     1       3.459  -2.579  -9.339  0.00  0.00    +0.003 A 
ATOM     32  C   UNL     1       2.205  -2.729  -8.744  0.00  0.00    +0.010 A 
ATOM     33  C   UNL     1       1.226  -3.428  -9.392  0.00  0.00    +0.001 A 
ATOM     34  C   UNL     1       1.468  -3.991 -10.637  0.00  0.00    +0.002 A 
ATOM     35  C   UNL     1       2.698  -3.855 -11.242  0.00  0.00    +0.026 A 
ATOM     36  C   UNL     1       3.709  -3.147 -10.601  0.00  0.00    +0.047 A 
ATOM     37  N   UNL     1       5.010  -2.842 -10.934  0.00  0.00    -0.360 N 
ATOM     38  C   UNL     1       5.583  -2.102  -9.936  0.00  0.00    +0.087 A 
ATOM     39  H   UNL     1       5.453  -3.108 -11.755  0.00  0.00    +0.165 HD
ENDBRANCH  29  30
ENDBRANCH  28  29
ENDBRANCH   7  28
TORSDOF 11
