REMARK  Name = ZINC63638579
REMARK  8 active torsions:
REMARK  status: ('A' for Active; 'I' for Inactive)
REMARK    1  A    between atoms: C_1  and  C_2
REMARK    2  A    between atoms: C_2  and  C_3
REMARK    3  A    between atoms: C_3  and  C_4
REMARK    4  A    between atoms: C_4  and  C_5
REMARK    5  A    between atoms: C_4  and  N_22
REMARK    6  A    between atoms: N_7  and  N_8
REMARK    7  A    between atoms: C_9  and  C_11
REMARK    8  A    between atoms: C_11  and  C_12
REMARK                            x       y       z     vdW  Elec       q    Type
REMARK                         _______ _______ _______ _____ _____    ______ ____
ROOT
ATOM      1  C   UNL     1       1.334  -2.514  -2.561  0.00  0.00    +0.249 C 
ATOM      2  O   UNL     1       2.492  -2.873  -2.600  0.00  0.00    -0.272 OA
ATOM      3  N   UNL     1       0.579  -2.552  -3.677  0.00  0.00    -0.233 N 
ATOM      4  H   UNL     1      -0.347  -2.266  -3.646  0.00  0.00    +0.173 HD
ENDROOT
BRANCH   3   5
ATOM      5  N   UNL     1       1.132  -3.005  -4.882  0.00  0.00    -0.234 N 
ATOM      6  C   UNL     1       0.377  -3.043  -5.998  0.00  0.00    +0.230 C 
ATOM      7  O   UNL     1      -0.781  -2.684  -5.959  0.00  0.00    -0.274 OA
ATOM      8  H   UNL     1       2.058  -3.292  -4.913  0.00  0.00    +0.173 HD
BRANCH   6   9
ATOM      9  C   UNL     1       0.972  -3.530  -7.294  0.00  0.00    +0.104 C 
BRANCH   9  10
ATOM     10  C   UNL     1      -0.088  -3.472  -8.396  0.00  0.00    -0.020 C 
ATOM     11  C   UNL     1      -1.272  -4.362  -8.011  0.00  0.00    +0.011 C 
ATOM     12  C   UNL     1      -2.332  -4.304  -9.113  0.00  0.00    -0.010 C 
ATOM     13  C   UNL     1      -1.728  -4.799 -10.428  0.00  0.00    +0.007 C 
ATOM     14  C   UNL     1      -0.545  -3.909 -10.813  0.00  0.00    -0.010 C 
ATOM     15  C   UNL     1       0.516  -3.967  -9.711  0.00  0.00    +0.011 C 
ATOM     16  C   UNL     1      -1.025  -2.466 -10.983  0.00  0.00    +0.007 C 
ATOM     17  C   UNL     1      -1.629  -1.972  -9.667  0.00  0.00    -0.010 C 
ATOM     18  C   UNL     1      -2.813  -2.862  -9.283  0.00  0.00    +0.007 C 
ATOM     19  C   UNL     1      -0.569  -2.030  -8.565  0.00  0.00    +0.011 C 
ENDBRANCH   9  10
ENDBRANCH   6   9
ENDBRANCH   3   5
BRANCH   1  20
ATOM     20  C   UNL     1       0.739  -2.027  -1.265  0.00  0.00    +0.162 C 
BRANCH  20  21
ATOM     21  N   UNL     1       1.548  -2.511  -0.144  0.00  0.00    -0.288 N 
ATOM     22  C   UNL     1       2.849  -2.168  -0.055  0.00  0.00    +0.298 C 
ATOM     23  O   UNL     1       3.350  -1.458  -0.904  0.00  0.00    -0.253 OA
ATOM     24  N   UNL     1       3.594  -2.613   0.977  0.00  0.00    -0.313 N 
ATOM     25  H   UNL     1       1.149  -3.078   0.534  0.00  0.00    +0.151 HD
ATOM     26  H   UNL     1       3.194  -3.180   1.655  0.00  0.00    +0.146 HD
ATOM     27  H   UNL     1       4.529  -2.366   1.041  0.00  0.00    +0.146 HD
ENDBRANCH  20  21
BRANCH  20  28
ATOM     28  C   UNL     1       0.718  -0.497  -1.257  0.00  0.00    +0.031 C 
BRANCH  28  30
ATOM     29  C   UNL     1      -0.019   1.526   0.010  0.00  0.00    +0.004 C 
ATOM     30  C   UNL     1       0.002  -0.004   0.002  0.00  0.00    -0.001 C 
ENDBRANCH  28  30
ENDBRANCH  20  28
ENDBRANCH   1  20
TORSDOF 7
