REMARK  Name = ZINC39755622
REMARK  9 active torsions:
REMARK  status: ('A' for Active; 'I' for Inactive)
REMARK    1  A    between atoms: C_1  and  C_2
REMARK    2  A    between atoms: C_2  and  C_3
REMARK    3  A    between atoms: C_3  and  C_5
REMARK    4  A    between atoms: C_3  and  S_17
REMARK    5  A    between atoms: N_7  and  C_8
REMARK    6  A    between atoms: C_11  and  N_14
REMARK    7  A    between atoms: S_17  and  C_18
REMARK    8  A    between atoms: C_21  and  C_24
REMARK    9  A    between atoms: N_22  and  C_23
REMARK                            x       y       z     vdW  Elec       q    Type
REMARK                         _______ _______ _______ _____ _____    ______ ____
ROOT
ATOM      1  C   UNL     1       0.981  -0.722   1.276  0.00  0.00    +0.140 C 
ENDROOT
BRANCH   1   2
ATOM      2  C   UNL     1       0.913  -2.224   1.186  0.00  0.00    +0.231 C 
ATOM      3  O   UNL     1       1.880  -2.854   0.810  0.00  0.00    -0.274 OA
ATOM      4  N   UNL     1      -0.221  -2.869   1.524  0.00  0.00    -0.285 N 
ATOM      5  H   UNL     1      -0.971  -2.374   1.889  0.00  0.00    +0.155 HD
BRANCH   4   6
ATOM      6  C   UNL     1      -0.317  -4.254   1.348  0.00  0.00    +0.034 A 
ATOM      7  C   UNL     1      -1.073  -5.017   2.229  0.00  0.00    +0.025 A 
ATOM      8  C   UNL     1      -1.166  -6.383   2.052  0.00  0.00    +0.034 A 
ATOM      9  C   UNL     1      -0.507  -6.993   1.000  0.00  0.00    +0.126 A 
ATOM     10  C   UNL     1       0.247  -6.236   0.122  0.00  0.00    +0.034 A 
ATOM     11  C   UNL     1       0.339  -4.869   0.289  0.00  0.00    +0.025 A 
BRANCH   9  12
ATOM     12  N   UNL     1      -0.609  -8.458   0.814  0.00  0.00    +0.056 N 
ATOM     13  O   UNL     1      -1.267  -9.120   1.582  0.00  0.00    -0.126 OA
ATOM     14  O   UNL     1      -0.033  -8.992  -0.105  0.00  0.00    -0.126 OA
ENDBRANCH   9  12
ENDBRANCH   4   6
ENDBRANCH   1   2
BRANCH   1  16
ATOM     15  C   UNL     1       0.255   1.414   0.203  0.00  0.00    +0.005 C 
ATOM     16  C   UNL     1       0.310  -0.107   0.046  0.00  0.00    +0.020 C 
ENDBRANCH   1  16
BRANCH   1  17
ATOM     17  S   UNL     1       2.716  -0.197   1.345  0.00  0.00    -0.073 S 
BRANCH  17  18
ATOM     18  C   UNL     1       3.298  -0.848   2.875  0.00  0.00    +0.192 A 
ATOM     19  N   UNL     1       2.626  -1.620   3.700  0.00  0.00    -0.122 NA
ATOM     20  N   UNL     1       3.350  -1.911   4.721  0.00  0.00    -0.128 NA
ATOM     21  C   UNL     1       4.529  -1.343   4.611  0.00  0.00    +0.166 A 
ATOM     22  N   UNL     1       4.534  -0.650   3.422  0.00  0.00    -0.305 N 
ATOM     23  C   UNL     1       5.633   0.140   2.862  0.00  0.00    +0.153 C 
BRANCH  21  24
ATOM     24  C   UNL     1       5.642  -1.435   5.579  0.00  0.00    +0.033 A 
ATOM     25  C   UNL     1       6.313  -0.281   5.988  0.00  0.00    +0.013 A 
ATOM     26  C   UNL     1       7.351  -0.374   6.892  0.00  0.00    +0.001 A 
ATOM     27  C   UNL     1       7.729  -1.608   7.393  0.00  0.00    +0.001 A 
ATOM     28  C   UNL     1       7.069  -2.756   6.991  0.00  0.00    +0.016 A 
ATOM     29  C   UNL     1       6.025  -2.676   6.091  0.00  0.00    +0.029 A 
ATOM     30 BR   UNL     1       5.119  -4.246   5.550  0.00  0.00    -0.050 Br
ENDBRANCH  21  24
ENDBRANCH  17  18
ENDBRANCH   1  17
TORSDOF 7
