REMARK  Name = ZINC01470316
REMARK  8 active torsions:
REMARK  status: ('A' for Active; 'I' for Inactive)
REMARK    1  A    between atoms: C_1  and  C_2
REMARK    2  A    between atoms: C_4  and  C_12
REMARK    3  A    between atoms: C_7  and  O_8
REMARK    4  A    between atoms: O_8  and  C_9
REMARK    5  A    between atoms: C_9  and  C_10
REMARK    6  A    between atoms: C_9  and  C_11
REMARK    7  A    between atoms: C_13  and  C_23
REMARK    8  A    between atoms: N_15  and  C_17
REMARK                            x       y       z     vdW  Elec       q    Type
REMARK                         _______ _______ _______ _____ _____    ______ ____
ROOT
ATOM      1  C   UNL     1       0.816  -4.109  -0.961  0.00  0.00    +0.100 A 
ATOM      2  C   UNL     1       1.741  -4.690  -1.941  0.00  0.00    +0.022 A 
ATOM      3  C   UNL     1       1.613  -6.062  -1.831  0.00  0.00    +0.123 A 
ATOM      4  N   UNL     1       0.698  -6.315  -0.875  0.00  0.00    -0.239 N 
ATOM      5  N   UNL     1       0.223  -5.110  -0.349  0.00  0.00    -0.166 NA
ENDROOT
BRANCH   2   6
ATOM      6  C   UNL     1       2.624  -3.960  -2.857  0.00  0.00    +0.032 C 
ATOM      7  C   UNL     1       3.429  -4.643  -3.712  0.00  0.00    +0.078 C 
ATOM      8  C   UNL     1       4.385  -4.127  -4.707  0.00  0.00    +0.256 C 
ATOM      9  O   UNL     1       4.554  -2.932  -4.866  0.00  0.00    -0.269 OA
ATOM     10  N   UNL     1       5.051  -5.020  -5.420  0.00  0.00    -0.261 N 
ATOM     11  C   UNL     1       4.844  -6.370  -5.224  0.00  0.00    +0.158 C 
ATOM     12  N   UNL     1       5.411  -7.375  -5.834  0.00  0.00    -0.279 NA
ATOM     13  S   UNL     1       3.618  -6.406  -3.927  0.00  0.00    -0.049 S 
ATOM     14  H   UNL     1       5.690  -4.723  -6.086  0.00  0.00    +0.157 HD
ATOM     15  H   UNL     1       5.171  -8.284  -5.596  0.00  0.00    +0.189 HD
ENDBRANCH   2   6
BRANCH   1  19
ATOM     16  C   UNL     1      -2.247  -0.357   0.247  0.00  0.00    +0.047 C 
ATOM     17  C   UNL     1      -0.875  -0.859  -0.124  0.00  0.00    -0.008 A 
ATOM     18  C   UNL     1      -0.675  -2.202  -0.367  0.00  0.00    +0.017 A 
ATOM     19  C   UNL     1       0.596  -2.666  -0.705  0.00  0.00    +0.003 A 
ATOM     20  C   UNL     1       1.660  -1.769  -0.802  0.00  0.00    +0.014 A 
ATOM     21  C   UNL     1       1.452  -0.427  -0.562  0.00  0.00    +0.046 A 
ATOM     22  C   UNL     1       0.185   0.032  -0.226  0.00  0.00    +0.124 A 
BRANCH  22  23
ATOM     23  O   UNL     1      -0.016   1.355   0.009  0.00  0.00    -0.489 OA
BRANCH  23  24
ATOM     24  C   UNL     1       1.138   2.196   0.011  0.00  0.00    +0.167 C 
ATOM     25  C   UNL     1       1.462   2.619  -1.424  0.00  0.00    +0.051 C 
ATOM     26  C   UNL     1       0.862   3.439   0.859  0.00  0.00    +0.051 C 
ENDBRANCH  23  24
ENDBRANCH  22  23
ENDBRANCH   1  19
BRANCH   4  27
ATOM     27  C   UNL     1       0.289  -7.590  -0.467  0.00  0.00    +0.065 A 
ATOM     28  C   UNL     1       0.833  -8.720  -1.064  0.00  0.00    +0.028 A 
ATOM     29  C   UNL     1       0.432  -9.977  -0.655  0.00  0.00    +0.002 A 
ATOM     30  C   UNL     1      -0.519 -10.111   0.340  0.00  0.00    +0.000 A 
ATOM     31  C   UNL     1      -1.067  -8.988   0.932  0.00  0.00    +0.002 A 
ATOM     32  C   UNL     1      -0.666  -7.729   0.532  0.00  0.00    +0.028 A 
ENDBRANCH   4  27
TORSDOF 5
