REMARK  Name = ZINC09193517
REMARK  13 active torsions:
REMARK  status: ('A' for Active; 'I' for Inactive)
REMARK    1  A    between atoms: C_1  and  C_2
REMARK    2  A    between atoms: C_5  and  C_8
REMARK    3  A    between atoms: N_11  and  C_13
REMARK    4  A    between atoms: C_13  and  C_14
REMARK    5  A    between atoms: N_16  and  C_17
REMARK    6  A    between atoms: N_16  and  C_24
REMARK    7  A    between atoms: C_24  and  C_26
REMARK    8  A    between atoms: C_24  and  C_33
REMARK    9  A    between atoms: C_29  and  O_32
REMARK   10  A    between atoms: N_35  and  C_36
REMARK   11  A    between atoms: C_36  and  C_37
REMARK   12  A    between atoms: C_36  and  C_38
REMARK   13  A    between atoms: C_36  and  C_39
REMARK                            x       y       z     vdW  Elec       q    Type
REMARK                         _______ _______ _______ _____ _____    ______ ____
ROOT
ATOM      1  C   UNL     1      -4.910   1.080   0.908  0.00  0.00    +0.244 C 
ATOM      2  O   UNL     1      -4.587   0.425   1.877  0.00  0.00    -0.273 OA
ATOM      3  N   UNL     1      -3.970   1.518   0.047  0.00  0.00    -0.254 N 
ENDROOT
BRANCH   3   4
ATOM      4  C   UNL     1      -4.330   2.357  -1.015  0.00  0.00    +0.038 A 
ATOM      5  C   UNL     1      -4.772   3.649  -0.761  0.00  0.00    +0.026 A 
ATOM      6  C   UNL     1      -5.122   4.476  -1.810  0.00  0.00    +0.040 A 
ATOM      7  C   UNL     1      -5.043   4.015  -3.113  0.00  0.00    +0.124 A 
ATOM      8  C   UNL     1      -4.607   2.726  -3.368  0.00  0.00    +0.040 A 
ATOM      9  C   UNL     1      -4.251   1.897  -2.322  0.00  0.00    +0.026 A 
ATOM     10  F   UNL     1      -5.390   4.825  -4.137  0.00  0.00    -0.205 F 
ENDBRANCH   3   4
BRANCH   1  11
ATOM     11  C   UNL     1      -6.362   1.402   0.667  0.00  0.00    +0.264 C 
BRANCH  11  15
ATOM     12  C   UNL     1      -8.340  -0.350   3.006  0.00  0.00    +0.205 A 
ATOM     13  N   UNL     1      -8.174   0.828   3.623  0.00  0.00    -0.108 NA
ATOM     14  N   UNL     1      -7.453   1.568   2.850  0.00  0.00    -0.045 NA
ATOM     15  N   UNL     1      -7.166   0.904   1.786  0.00  0.00    -0.154 N 
ATOM     16  N   UNL     1      -7.700  -0.267   1.856  0.00  0.00    -0.130 NA
BRANCH  12  21
ATOM     17  C   UNL     1     -11.296  -4.882   4.979  0.00  0.00    +0.044 C 
ATOM     18  C   UNL     1     -10.523  -3.697   4.463  0.00  0.00    -0.050 A 
ATOM     19  C   UNL     1     -10.441  -2.543   5.222  0.00  0.00    +0.004 A 
ATOM     20  C   UNL     1      -9.734  -1.454   4.754  0.00  0.00    +0.012 A 
ATOM     21  C   UNL     1      -9.102  -1.518   3.514  0.00  0.00    +0.023 A 
ATOM     22  C   UNL     1      -9.191  -2.680   2.751  0.00  0.00    +0.012 A 
ATOM     23  C   UNL     1      -9.897  -3.765   3.231  0.00  0.00    +0.004 A 
ENDBRANCH  12  21
ENDBRANCH  11  15
ENDBRANCH   1  11
BRANCH   3  24
ATOM     24  C   UNL     1      -2.572   1.117   0.222  0.00  0.00    +0.197 C 
BRANCH  24  25
ATOM     25  C   UNL     1      -1.761   1.597  -0.954  0.00  0.00    -0.018 A 
ATOM     26  C   UNL     1      -1.736   2.942  -1.272  0.00  0.00    +0.009 A 
ATOM     27  C   UNL     1      -0.988   3.385  -2.345  0.00  0.00    +0.046 A 
ATOM     28  C   UNL     1      -0.272   2.478  -3.112  0.00  0.00    +0.117 A 
ATOM     29  C   UNL     1      -0.304   1.128  -2.795  0.00  0.00    +0.046 A 
ATOM     30  C   UNL     1      -1.048   0.690  -1.716  0.00  0.00    +0.009 A 
BRANCH  28  31
ATOM     31  O   UNL     1       0.459   2.910  -4.173  0.00  0.00    -0.507 OA
ATOM     32  H   UNL     1      -0.030   2.928  -5.007  0.00  0.00    +0.292 HD
ENDBRANCH  28  31
ENDBRANCH  24  25
BRANCH  24  33
ATOM     33  C   UNL     1      -2.030   1.726   1.489  0.00  0.00    +0.239 C 
ATOM     34  O   UNL     1      -2.741   2.427   2.178  0.00  0.00    -0.273 OA
ATOM     35  N   UNL     1      -0.754   1.493   1.857  0.00  0.00    -0.309 N 
ATOM     36  H   UNL     1      -0.185   0.933   1.306  0.00  0.00    +0.149 HD
BRANCH  35  37
ATOM     37  C   UNL     1      -0.225   2.091   3.085  0.00  0.00    +0.026 C 
ATOM     38  C   UNL     1      -1.044   1.605   4.283  0.00  0.00    +0.031 C 
ATOM     39  C   UNL     1       1.237   1.676   3.265  0.00  0.00    +0.031 C 
ATOM     40  C   UNL     1      -0.315   3.615   2.991  0.00  0.00    +0.031 C 
ENDBRANCH  35  37
ENDBRANCH  24  33
ENDBRANCH   3  24
TORSDOF 9
