REMARK  Name = ZINC36643475
REMARK  11 active torsions:
REMARK  status: ('A' for Active; 'I' for Inactive)
REMARK    1  A    between atoms: C_1  and  N_2
REMARK    2  A    between atoms: N_2  and  C_3
REMARK    3  A    between atoms: N_2  and  C_4
REMARK    4  A    between atoms: C_4  and  C_5
REMARK    5  A    between atoms: C_5  and  C_6
REMARK    6  A    between atoms: C_6  and  N_7
REMARK    7  A    between atoms: C_18  and  C_20
REMARK    8  A    between atoms: C_23  and  S_26
REMARK    9  A    between atoms: S_26  and  N_29
REMARK   10  A    between atoms: N_29  and  C_30
REMARK   11  A    between atoms: N_29  and  C_31
REMARK                            x       y       z     vdW  Elec       q    Type
REMARK                         _______ _______ _______ _____ _____    ______ ____
ROOT
ATOM      1  N   UNL     1      -2.503  -4.832  -0.673  0.00  0.00    -0.246 N 
ATOM      2  C   UNL     1      -2.461  -5.824   0.292  0.00  0.00    +0.168 A 
ATOM      3  N   UNL     1      -2.621  -5.718   1.590  0.00  0.00    -0.221 NA
ATOM      4  C   UNL     1      -2.555  -6.782   2.419  0.00  0.00    +0.115 A 
ATOM      5  C   UNL     1      -2.708  -6.805   3.827  0.00  0.00    +0.150 A 
ATOM      6  C   UNL     1      -2.609  -7.983   4.523  0.00  0.00    +0.040 A 
ATOM      7  C   UNL     1      -2.358  -9.186   3.880  0.00  0.00    +0.004 A 
ATOM      8  C   UNL     1      -2.204  -9.200   2.506  0.00  0.00    +0.017 A 
ATOM      9  C   UNL     1      -2.301  -8.027   1.800  0.00  0.00    +0.044 A 
ATOM     10  S   UNL     1      -2.184  -7.578   0.085  0.00  0.00    -0.052 S 
ATOM     11  F   UNL     1      -2.952  -5.654   4.491  0.00  0.00    -0.203 F 
ATOM     12  C   UNL     1      -2.318  -5.145  -1.971  0.00  0.00    +0.252 C 
ATOM     13  O   UNL     1      -2.176  -6.306  -2.301  0.00  0.00    -0.270 OA
ENDROOT
BRANCH  12  14
ATOM     14  C   UNL     1      -2.290  -4.077  -2.992  0.00  0.00    +0.037 A 
ATOM     15  C   UNL     1      -1.723  -2.837  -2.693  0.00  0.00    +0.015 A 
ATOM     16  C   UNL     1      -1.699  -1.844  -3.651  0.00  0.00    +0.029 A 
ATOM     17  C   UNL     1      -2.236  -2.076  -4.905  0.00  0.00    +0.109 A 
ATOM     18  C   UNL     1      -2.799  -3.303  -5.208  0.00  0.00    +0.029 A 
ATOM     19  C   UNL     1      -2.824  -4.306  -4.261  0.00  0.00    +0.015 A 
BRANCH  17  20
ATOM     20  S   UNL     1      -2.203  -0.802  -6.122  0.00  0.00    +0.074 S 
ATOM     21  O   UNL     1      -3.255  -1.085  -7.035  0.00  0.00    -0.150 OA
ATOM     22  O   UNL     1      -2.114   0.429  -5.419  0.00  0.00    -0.150 OA
BRANCH  20  23
ATOM     23  N   UNL     1      -0.787  -0.968  -6.966  0.00  0.00    -0.206 N 
ATOM     24  C   UNL     1      -0.766  -1.729  -8.218  0.00  0.00    +0.157 C 
BRANCH  23  25
ATOM     25  C   UNL     1       0.385  -0.382  -6.484  0.00  0.00    +0.051 A 
ATOM     26  C   UNL     1       1.506  -1.166  -6.241  0.00  0.00    +0.025 A 
ATOM     27  C   UNL     1       2.664  -0.584  -5.765  0.00  0.00    +0.002 A 
ATOM     28  C   UNL     1       2.709   0.778  -5.531  0.00  0.00    +0.000 A 
ATOM     29  C   UNL     1       1.596   1.562  -5.772  0.00  0.00    +0.002 A 
ATOM     30  C   UNL     1       0.436   0.987  -6.253  0.00  0.00    +0.025 A 
ENDBRANCH  23  25
ENDBRANCH  20  23
ENDBRANCH  17  20
ENDBRANCH  12  14
BRANCH   1  31
ATOM     31  C   UNL     1      -2.747  -3.441  -0.283  0.00  0.00    +0.114 C 
BRANCH  31  32
ATOM     32  C   UNL     1      -1.490  -2.868   0.376  0.00  0.00    +0.001 C 
BRANCH  32  33
ATOM     33  C   UNL     1      -1.691  -1.376   0.646  0.00  0.00    -0.078 C 
BRANCH  33  35
ATOM     34  C   UNL     1      -0.630   0.628   1.429  0.00  0.00    -0.097 C 
ATOM     35  N   UNL     1      -0.485  -0.826   1.278  0.00  0.00    +0.376 N 
ATOM     36  C   UNL     1      -0.302  -1.439   2.601  0.00  0.00    -0.097 C 
ATOM     37  H   UNL     1       0.318  -1.025   0.701  0.00  0.00    -0.083 HD
ENDBRANCH  33  35
ENDBRANCH  32  33
ENDBRANCH  31  32
ENDBRANCH   1  31
TORSDOF 8
