REMARK  Name = ZINC00512823
REMARK  8 active torsions:
REMARK  status: ('A' for Active; 'I' for Inactive)
REMARK    1  A    between atoms: C_1  and  C_2
REMARK    2  A    between atoms: C_7  and  C_8
REMARK    3  A    between atoms: N_10  and  C_11
REMARK    4  A    between atoms: C_11  and  N_13
REMARK    5  A    between atoms: N_13  and  C_14
REMARK    6  A    between atoms: C_15  and  C_21
REMARK    7  A    between atoms: C_16  and  C_20
REMARK    8  A    between atoms: C_17  and  C_19
REMARK                            x       y       z     vdW  Elec       q    Type
REMARK                         _______ _______ _______ _____ _____    ______ ____
ROOT
ATOM      1  N   UNL     1       2.190   1.093  -1.167  0.00  0.00    -0.291 N 
ATOM      2  H   UNL     1       2.220   0.123  -1.159  0.00  0.00    +0.154 HD
ENDROOT
BRANCH   1   3
ATOM      3  C   UNL     1       3.343   1.820  -1.413  0.00  0.00    +0.084 A 
ATOM      4  C   UNL     1       4.625   1.347  -1.667  0.00  0.00    +0.068 A 
ATOM      5  C   UNL     1       5.650   2.339  -1.891  0.00  0.00    -0.027 A 
ATOM      6  C   UNL     1       5.278   3.630  -1.835  0.00  0.00    -0.008 A 
ATOM      7  S   UNL     1       3.535   3.540  -1.485  0.00  0.00    -0.078 S 
ATOM      8  C   UNL     1       6.131   4.858  -2.028  0.00  0.00    +0.052 C 
ATOM      9  C   UNL     1       7.076   1.944  -2.175  0.00  0.00    +0.045 C 
BRANCH   4  10
ATOM     10  C   UNL     1       4.922  -0.088  -1.705  0.00  0.00    +0.244 C 
ATOM     11  O   UNL     1       4.834  -0.700  -2.754  0.00  0.00    -0.270 OA
ATOM     12  N   UNL     1       5.291  -0.730  -0.579  0.00  0.00    -0.325 N 
ATOM     13  H   UNL     1       5.360  -0.242   0.257  0.00  0.00    +0.145 HD
ATOM     14  H   UNL     1       5.487  -1.679  -0.604  0.00  0.00    +0.145 HD
ENDBRANCH   4  10
ENDBRANCH   1   3
BRANCH   1  15
ATOM     15  C   UNL     1       1.025   1.732  -0.939  0.00  0.00    +0.141 C 
ATOM     16  S   UNL     1       0.971   3.443  -0.953  0.00  0.00    -0.018 S 
BRANCH  15  19
ATOM     17  C   UNL     1      -1.262   1.663  -0.477  0.00  0.00    +0.250 C 
ATOM     18  O   UNL     1      -1.301   2.877  -0.487  0.00  0.00    -0.270 OA
ATOM     19  N   UNL     1      -0.097   1.024  -0.700  0.00  0.00    -0.264 N 
ATOM     20  H   UNL     1      -0.066   0.054  -0.692  0.00  0.00    +0.157 HD
BRANCH  17  27
ATOM     21  C   UNL     1      -3.697   3.043   0.255  0.00  0.00    +0.044 C 
ATOM     22  C   UNL     1      -3.674   1.541   0.133  0.00  0.00    -0.038 A 
ATOM     23  C   UNL     1      -4.820   0.811   0.370  0.00  0.00    +0.004 A 
ATOM     24  C   UNL     1      -4.801  -0.568   0.258  0.00  0.00    +0.000 A 
ATOM     25  C   UNL     1      -3.633  -1.224  -0.093  0.00  0.00    +0.001 A 
ATOM     26  C   UNL     1      -2.482  -0.505  -0.338  0.00  0.00    +0.013 A 
ATOM     27  C   UNL     1      -2.493   0.886  -0.221  0.00  0.00    +0.040 A 
ENDBRANCH  17  27
ENDBRANCH  15  19
ENDBRANCH   1  15
TORSDOF 5
