REMARK  Name = ZINC35867119
REMARK  5 active torsions:
REMARK  status: ('A' for Active; 'I' for Inactive)
REMARK    1  A    between atoms: C_1  and  C_2
REMARK    2  A    between atoms: C_2  and  C_3
REMARK    3  A    between atoms: C_3  and  C_4
REMARK    4  A    between atoms: C_4  and  C_5
REMARK    5  A    between atoms: N_26  and  C_27
REMARK                            x       y       z     vdW  Elec       q    Type
REMARK                         _______ _______ _______ _____ _____    ______ ____
ROOT
ATOM      1  C   UNL     1      -2.747  -2.243   0.085  0.00  0.00    +0.132 A 
ATOM      2  N   UNL     1      -3.293  -2.498   1.261  0.00  0.00    -0.217 NA
ATOM      3  C   UNL     1      -4.245  -3.404   1.415  0.00  0.00    +0.133 A 
ATOM      4  C   UNL     1      -4.698  -4.132   0.279  0.00  0.00    +0.051 A 
ATOM      5  C   UNL     1      -5.726  -5.171   0.207  0.00  0.00    -0.025 A 
ATOM      6  C   UNL     1      -5.969  -5.708  -1.006  0.00  0.00    -0.004 A 
ATOM      7  S   UNL     1      -4.861  -4.875  -2.111  0.00  0.00    -0.073 S 
ATOM      8  C   UNL     1      -4.069  -3.805  -0.939  0.00  0.00    +0.114 A 
ATOM      9  N   UNL     1      -3.129  -2.881  -1.004  0.00  0.00    -0.225 NA
ATOM     10  C   UNL     1      -6.962  -6.779  -1.342  0.00  0.00    +0.043 C 
ATOM     11  C   UNL     1      -7.412  -7.449  -0.037  0.00  0.00    +0.005 C 
ATOM     12  C   UNL     1      -7.769  -6.358   0.977  0.00  0.00    +0.005 C 
ATOM     13  C   UNL     1      -6.499  -5.641   1.436  0.00  0.00    +0.037 C 
ATOM     14  N   UNL     1      -4.792  -3.641   2.663  0.00  0.00    -0.312 N 
ATOM     15  C   UNL     1      -4.303  -4.750   3.495  0.00  0.00    +0.125 C 
ATOM     16  C   UNL     1      -3.874  -4.188   4.856  0.00  0.00    +0.128 C 
ATOM     17  N   UNL     1      -4.953  -3.336   5.374  0.00  0.00    -0.282 N 
ATOM     18  C   UNL     1      -5.442  -2.228   4.542  0.00  0.00    +0.128 C 
ATOM     19  C   UNL     1      -5.867  -2.786   3.183  0.00  0.00    +0.125 C 
ATOM     20  C   UNL     1      -5.486  -3.567   6.591  0.00  0.00    +0.307 C 
ATOM     21  O   UNL     1      -5.013  -4.427   7.308  0.00  0.00    -0.252 OA
ATOM     22  N   UNL     1      -6.544  -2.845   7.011  0.00  0.00    -0.268 N 
ATOM     23  H   UNL     1      -6.953  -2.194   6.420  0.00  0.00    +0.156 HD
ENDROOT
BRANCH  22  24
ATOM     24  C   UNL     1      -7.052  -3.035   8.302  0.00  0.00    +0.049 A 
ATOM     25  C   UNL     1      -6.924  -4.269   8.925  0.00  0.00    +0.024 A 
ATOM     26  C   UNL     1      -7.426  -4.453  10.199  0.00  0.00    +0.002 A 
ATOM     27  C   UNL     1      -8.055  -3.410  10.854  0.00  0.00    +0.001 A 
ATOM     28  C   UNL     1      -8.184  -2.179  10.236  0.00  0.00    +0.017 A 
ATOM     29  C   UNL     1      -7.679  -1.987   8.964  0.00  0.00    +0.039 A 
ATOM     30 BR   UNL     1      -7.849  -0.302   8.123  0.00  0.00    -0.048 Br
ENDBRANCH  22  24
BRANCH   1  31
ATOM     31  C   UNL     1      -1.667  -1.197  -0.015  0.00  0.00    +0.076 C 
BRANCH  31  32
ATOM     32  C   UNL     1      -2.302   0.167  -0.288  0.00  0.00    +0.007 C 
BRANCH  32  34
ATOM     33  C   UNL     1      -1.841   2.594  -0.663  0.00  0.00    +0.004 C 
ATOM     34  C   UNL     1      -1.205   1.229  -0.390  0.00  0.00    -0.003 C 
ENDBRANCH  32  34
ENDBRANCH  31  32
ENDBRANCH   1  31
TORSDOF 4
