REMARK  Name = ZINC41037909
REMARK  5 active torsions:
REMARK  status: ('A' for Active; 'I' for Inactive)
REMARK    1  A    between atoms: C_1  and  C_2
REMARK    2  A    between atoms: C_8  and  C_9
REMARK    3  A    between atoms: C_8  and  N_12
REMARK    4  A    between atoms: C_13  and  C_15
REMARK    5  A    between atoms: C_16  and  C_17
REMARK                            x       y       z     vdW  Elec       q    Type
REMARK                         _______ _______ _______ _____ _____    ______ ____
ROOT
ATOM      1  N   UNL     1       2.116  -0.004   1.231  0.00  0.00    -0.296 N 
ATOM      2  C   UNL     1       2.960  -0.324   2.232  0.00  0.00    +0.238 C 
ATOM      3  O   UNL     1       2.580  -1.034   3.146  0.00  0.00    -0.271 OA
ATOM      4  H   UNL     1       2.419   0.562   0.504  0.00  0.00    +0.150 HD
ENDROOT
BRANCH   1  11
ATOM      5  C   UNL     1      -0.019   1.526   0.010  0.00  0.00    +0.010 C 
ATOM      6  C   UNL     1       0.002  -0.004   0.002  0.00  0.00    +0.020 C 
ATOM      7  C   UNL     1       0.718  -0.497  -1.257  0.00  0.00    +0.006 C 
ATOM      8  C   UNL     1       0.739  -2.027  -1.265  0.00  0.00    +0.000 C 
ATOM      9  C   UNL     1       1.479  -2.534  -0.026  0.00  0.00    +0.003 C 
ATOM     10  C   UNL     1       0.763  -2.041   1.233  0.00  0.00    +0.038 C 
ATOM     11  C   UNL     1       0.742  -0.511   1.242  0.00  0.00    +0.139 C 
BRANCH  11  12
ATOM     12  C   UNL     1       0.037  -0.025   2.481  0.00  0.00    +0.379 C 
ATOM     13  O   UNL     1      -1.125  -0.336   2.684  0.00  0.00    -0.244 OA
ATOM     14  O   UNL     1       0.627   0.680   3.282  0.00  0.00    -0.244 OA
ENDBRANCH  11  12
ENDBRANCH   1  11
BRANCH   2  15
ATOM     15  C   UNL     1       4.287   0.166   2.222  0.00  0.00    +0.068 C 
ATOM     16  C   UNL     1       5.137  -0.156   3.230  0.00  0.00    +0.020 C 
BRANCH  16  17
ATOM     17  C   UNL     1       6.464   0.334   3.220  0.00  0.00    +0.013 A 
ATOM     18  C   UNL     1       7.484   0.121   4.142  0.00  0.00    +0.016 A 
ATOM     19  C   UNL     1       8.679   0.736   3.859  0.00  0.00    +0.023 A 
ATOM     20  C   UNL     1       8.784   1.488   2.733  0.00  0.00    +0.055 A 
ATOM     21  S   UNL     1       7.267   1.378   2.019  0.00  0.00    -0.082 S 
ATOM     22 BR   UNL     1      10.296   2.435   2.107  0.00  0.00    -0.043 Br
ENDBRANCH  16  17
ENDBRANCH   2  15
TORSDOF 4
