REMARK  Name = ZINC40960068
REMARK  8 active torsions:
REMARK  status: ('A' for Active; 'I' for Inactive)
REMARK    1  A    between atoms: C_1  and  C_2
REMARK    2  A    between atoms: C_6  and  C_8
REMARK    3  A    between atoms: C_10  and  C_13
REMARK    4  A    between atoms: C_13  and  N_14
REMARK    5  A    between atoms: C_17  and  N_20
REMARK    6  A    between atoms: C_21  and  C_23
REMARK    7  A    between atoms: C_23  and  C_24
REMARK    8  A    between atoms: C_24  and  C_25
REMARK                            x       y       z     vdW  Elec       q    Type
REMARK                         _______ _______ _______ _____ _____    ______ ____
ROOT
ATOM      1  N   UNL     1       1.501  -6.360   4.554  0.00  0.00    +0.386 N 
ATOM      2  C   UNL     1       2.147  -5.532   5.579  0.00  0.00    -0.076 C 
ATOM      3  C   UNL     1       3.620  -5.927   5.704  0.00  0.00    +0.003 C 
ATOM      4  C   UNL     1       3.716  -7.402   6.103  0.00  0.00    +0.069 C 
ATOM      5  C   UNL     1       2.974  -8.250   5.065  0.00  0.00    +0.003 C 
ATOM      6  C   UNL     1       1.525  -7.770   4.964  0.00  0.00    -0.076 C 
ATOM      7  H   UNL     1       1.994  -6.256   3.680  0.00  0.00    -0.081 HD
ENDROOT
BRANCH   4   8
ATOM      8  N   UNL     1       5.123  -7.806   6.150  0.00  0.00    -0.313 N 
ATOM      9  C   UNL     1       5.501  -8.841   6.927  0.00  0.00    +0.214 C 
ATOM     10  O   UNL     1       4.677  -9.437   7.587  0.00  0.00    -0.276 OA
ATOM     11  H   UNL     1       5.783  -7.330   5.622  0.00  0.00    +0.149 HD
BRANCH   9  12
ATOM     12  C   UNL     1       6.949  -9.257   6.976  0.00  0.00    +0.100 C 
BRANCH  12  13
ATOM     13  C   UNL     1       7.106 -10.446   7.926  0.00  0.00    +0.046 C 
BRANCH  13  14
ATOM     14  C   UNL     1       8.554 -10.862   7.975  0.00  0.00    -0.022 A 
ATOM     15  C   UNL     1       9.134 -11.822   7.239  0.00  0.00    +0.087 A 
ATOM     16  N   UNL     1      10.461 -11.917   7.557  0.00  0.00    -0.360 N 
ATOM     17  H   UNL     1      11.088 -12.540   7.156  0.00  0.00    +0.165 HD
ATOM     18  C   UNL     1      10.776 -10.995   8.530  0.00  0.00    +0.047 A 
ATOM     19  C   UNL     1       9.596 -10.290   8.831  0.00  0.00    +0.003 A 
ATOM     20  C   UNL     1       9.616  -9.277   9.791  0.00  0.00    +0.010 A 
ATOM     21  C   UNL     1      10.784  -8.973  10.432  0.00  0.00    +0.001 A 
ATOM     22  C   UNL     1      11.951  -9.663  10.137  0.00  0.00    +0.002 A 
ATOM     23  C   UNL     1      11.952 -10.673   9.200  0.00  0.00    +0.026 A 
ENDBRANCH  13  14
ENDBRANCH  12  13
ENDBRANCH   9  12
ENDBRANCH   4   8
BRANCH   1  24
ATOM     24  C   UNL     1       0.108  -5.926   4.382  0.00  0.00    +0.022 C 
BRANCH  24  27
ATOM     25  C   UNL     1       0.051  -2.846   2.464  0.00  0.00    +0.202 A 
ATOM     26  N   UNL     1       0.075  -4.185   2.585  0.00  0.00    -0.193 NA
ATOM     27  C   UNL     1       0.083  -4.518   3.844  0.00  0.00    +0.211 A 
ATOM     28  O   UNL     1       0.066  -3.400   4.580  0.00  0.00    -0.340 OA
ATOM     29  N   UNL     1       0.051  -2.316   3.662  0.00  0.00    -0.056 NA
BRANCH  25  35
ATOM     30  C   UNL     1      -0.018   1.503   0.010  0.00  0.00    +0.044 C 
ATOM     31  C   UNL     1       0.002  -0.004   0.002  0.00  0.00    -0.050 A 
ATOM     32  C   UNL     1       0.006  -0.688  -1.201  0.00  0.00    +0.003 A 
ATOM     33  C   UNL     1       0.024  -2.071  -1.216  0.00  0.00    +0.001 A 
ATOM     34  C   UNL     1       0.039  -2.776  -0.029  0.00  0.00    +0.012 A 
ATOM     35  C   UNL     1       0.036  -2.092   1.185  0.00  0.00    +0.023 A 
ATOM     36  C   UNL     1       0.023  -0.699   1.194  0.00  0.00    +0.015 A 
ENDBRANCH  25  35
ENDBRANCH  24  27
ENDBRANCH   1  24
TORSDOF 7
