REMARK  Name = ZINC40311873
REMARK  5 active torsions:
REMARK  status: ('A' for Active; 'I' for Inactive)
REMARK    1  A    between atoms: C_1  and  C_2
REMARK    2  A    between atoms: C_2  and  C_4
REMARK    3  A    between atoms: C_2  and  N_11
REMARK    4  A    between atoms: C_12  and  C_14
REMARK    5  A    between atoms: C_16  and  N_21
REMARK                            x       y       z     vdW  Elec       q    Type
REMARK                         _______ _______ _______ _____ _____    ______ ____
ROOT
ATOM      1  N   UNL     1      -1.372  -0.511   0.012  0.00  0.00    -0.305 N 
ATOM      2  C   UNL     1      -2.051  -0.643  -1.145  0.00  0.00    +0.246 C 
ATOM      3  O   UNL     1      -1.522  -0.341  -2.197  0.00  0.00    -0.270 OA
ATOM      4  H   UNL     1      -1.794  -0.752   0.852  0.00  0.00    +0.150 HD
ENDROOT
BRANCH   2   5
ATOM      5  C   UNL     1      -3.437  -1.154  -1.134  0.00  0.00    +0.057 A 
ATOM      6  C   UNL     1      -4.048  -1.496   0.073  0.00  0.00    +0.037 A 
ATOM      7  C   UNL     1      -5.349  -1.975   0.075  0.00  0.00    +0.025 A 
ATOM      8  C   UNL     1      -6.041  -2.113  -1.123  0.00  0.00    +0.024 A 
ATOM      9  C   UNL     1      -5.437  -1.775  -2.319  0.00  0.00    +0.022 A 
ATOM     10  C   UNL     1      -4.143  -1.292  -2.332  0.00  0.00    +0.053 A 
ATOM     11 CL   UNL     1      -3.392  -0.862  -3.837  0.00  0.00    -0.083 Cl
BRANCH   7  12
ATOM     12  N   UNL     1      -5.965  -2.319   1.281  0.00  0.00    -0.358 N 
ATOM     13  H   UNL     1      -5.482  -2.223   2.117  0.00  0.00    +0.142 HD
ATOM     14  H   UNL     1      -6.875  -2.654   1.283  0.00  0.00    +0.142 HD
ENDBRANCH   7  12
ENDBRANCH   2   5
BRANCH   1  16
ATOM     15  C   UNL     1      -0.019   1.526   0.010  0.00  0.00    +0.033 C 
ATOM     16  C   UNL     1       0.002  -0.004   0.002  0.00  0.00    +0.100 C 
BRANCH  16  17
ATOM     17  C   UNL     1       0.731  -0.503   1.223  0.00  0.00    -0.027 A 
ATOM     18  C   UNL     1       0.081  -0.558   2.442  0.00  0.00    +0.006 A 
ATOM     19  C   UNL     1       0.749  -1.017   3.562  0.00  0.00    +0.015 A 
ATOM     20  C   UNL     1       2.068  -1.420   3.463  0.00  0.00    +0.018 A 
ATOM     21  C   UNL     1       2.718  -1.365   2.243  0.00  0.00    +0.015 A 
ATOM     22  C   UNL     1       2.048  -0.911   1.123  0.00  0.00    +0.006 A 
ATOM     23 BR   UNL     1       2.983  -2.046   4.995  0.00  0.00    -0.050 Br
ENDBRANCH  16  17
ENDBRANCH   1  16
TORSDOF 4
