REMARK  Name = ZINC48735822
REMARK  5 active torsions:
REMARK  status: ('A' for Active; 'I' for Inactive)
REMARK    1  A    between atoms: C_6  and  C_7
REMARK    2  A    between atoms: C_7  and  N_8
REMARK    3  A    between atoms: C_9  and  C_13
REMARK    4  A    between atoms: C_15  and  N_20
REMARK    5  A    between atoms: C_17  and  N_19
REMARK                            x       y       z     vdW  Elec       q    Type
REMARK                         _______ _______ _______ _____ _____    ______ ____
ROOT
ATOM      1  N   UNL     1      -1.419  -0.755  -1.615  0.00  0.00    -0.221 N 
ATOM      2  C   UNL     1      -2.589  -0.274  -2.103  0.00  0.00    +0.182 A 
ATOM      3  N   UNL     1      -2.987  -1.107  -3.042  0.00  0.00    -0.108 NA
ATOM      4  N   UNL     1      -2.149  -2.071  -3.172  0.00  0.00    -0.023 NA
ATOM      5  N   UNL     1      -1.168  -1.928  -2.348  0.00  0.00    -0.043 NA
ENDROOT
BRANCH   2   6
ATOM      6  C   UNL     1      -3.288   0.955  -1.663  0.00  0.00    +0.024 A 
ATOM      7  C   UNL     1      -3.989   1.728  -2.586  0.00  0.00    +0.034 A 
ATOM      8  C   UNL     1      -4.643   2.880  -2.171  0.00  0.00    +0.027 A 
ATOM      9  C   UNL     1      -4.598   3.262  -0.837  0.00  0.00    +0.045 A 
ATOM     10  C   UNL     1      -3.900   2.493   0.085  0.00  0.00    +0.027 A 
ATOM     11  C   UNL     1      -3.250   1.338  -0.323  0.00  0.00    +0.034 A 
BRANCH  10  12
ATOM     12  N   UNL     1      -3.857   2.881   1.427  0.00  0.00    -0.358 N 
ATOM     13  H   UNL     1      -4.315   3.687   1.714  0.00  0.00    +0.142 HD
ATOM     14  H   UNL     1      -3.369   2.345   2.071  0.00  0.00    +0.142 HD
ENDBRANCH  10  12
BRANCH   8  15
ATOM     15  N   UNL     1      -5.345   3.655  -3.096  0.00  0.00    -0.358 N 
ATOM     16  H   UNL     1      -5.376   3.389  -4.028  0.00  0.00    +0.142 HD
ATOM     17  H   UNL     1      -5.802   4.460  -2.806  0.00  0.00    +0.142 HD
ENDBRANCH   8  15
ENDBRANCH   2   6
BRANCH   1  18
ATOM     18  C   UNL     1      -0.592  -0.174  -0.554  0.00  0.00    +0.182 C 
BRANCH  18  24
ATOM     19  C   UNL     1       0.271   2.012  -1.414  0.00  0.00    +0.006 A 
ATOM     20  C   UNL     1       1.267   2.787  -1.979  0.00  0.00    +0.015 A 
ATOM     21  C   UNL     1       2.486   2.219  -2.301  0.00  0.00    +0.018 A 
ATOM     22  C   UNL     1       2.708   0.875  -2.057  0.00  0.00    +0.015 A 
ATOM     23  C   UNL     1       1.712   0.102  -1.492  0.00  0.00    +0.006 A 
ATOM     24  C   UNL     1       0.494   0.670  -1.171  0.00  0.00    -0.026 A 
ATOM     25 BR   UNL     1       3.848   3.278  -3.074  0.00  0.00    -0.050 Br
ENDBRANCH  18  24
ENDBRANCH   1  18
TORSDOF 5
