REMARK  Name = ZINC02558582
REMARK  6 active torsions:
REMARK  status: ('A' for Active; 'I' for Inactive)
REMARK    1  A    between atoms: C_1  and  C_2
REMARK    2  A    between atoms: C_5  and  C_9
REMARK    3  A    between atoms: C_7  and  C_8
REMARK    4  A    between atoms: C_11  and  C_22
REMARK    5  A    between atoms: C_15  and  N_21
REMARK    6  A    between atoms: C_16  and  C_18
REMARK                            x       y       z     vdW  Elec       q    Type
REMARK                         _______ _______ _______ _____ _____    ______ ____
ROOT
ATOM      1  C   UNL     1      -2.914   6.009   1.029  0.00  0.00    -0.004 A 
ATOM      2  C   UNL     1      -2.418   7.178   1.590  0.00  0.00    +0.041 A 
ATOM      3  C   UNL     1      -1.072   7.482   1.489  0.00  0.00    +0.145 A 
ATOM      4  N   UNL     1      -0.245   6.669   0.860  0.00  0.00    -0.235 NA
ATOM      5  C   UNL     1      -0.661   5.548   0.309  0.00  0.00    +0.112 A 
ATOM      6  C   UNL     1      -2.011   5.137   0.350  0.00  0.00    +0.037 A 
ATOM      7  C   UNL     1      -2.295   3.877  -0.315  0.00  0.00    +0.054 A 
ATOM      8  C   UNL     1      -1.250   3.199  -0.905  0.00  0.00    +0.097 A 
ATOM      9  S   UNL     1       0.153   4.253  -0.593  0.00  0.00    -0.062 S 
ENDROOT
BRANCH   1  14
ATOM     10  C   UNL     1      -8.508   4.708   1.432  0.00  0.00    +0.044 C 
ATOM     11  C   UNL     1      -7.044   5.048   1.327  0.00  0.00    -0.048 A 
ATOM     12  C   UNL     1      -6.654   6.241   0.744  0.00  0.00    +0.004 A 
ATOM     13  C   UNL     1      -5.315   6.561   0.648  0.00  0.00    +0.009 A 
ATOM     14  C   UNL     1      -4.354   5.674   1.132  0.00  0.00    -0.017 A 
ATOM     15  C   UNL     1      -4.752   4.474   1.719  0.00  0.00    +0.012 A 
ATOM     16  C   UNL     1      -6.095   4.168   1.813  0.00  0.00    -0.047 A 
ATOM     17  C   UNL     1      -6.527   2.870   2.447  0.00  0.00    +0.044 C 
ENDBRANCH   1  14
BRANCH   8  18
ATOM     18  C   UNL     1      -1.284   1.964  -1.600  0.00  0.00    +0.250 C 
ATOM     19  O   UNL     1      -2.337   1.365  -1.726  0.00  0.00    -0.270 OA
ATOM     20  N   UNL     1      -0.151   1.452  -2.121  0.00  0.00    -0.325 N 
ATOM     21  H   UNL     1      -0.174   0.607  -2.596  0.00  0.00    +0.145 HD
ATOM     22  H   UNL     1       0.687   1.931  -2.024  0.00  0.00    +0.145 HD
ENDBRANCH   8  18
BRANCH   3  23
ATOM     23  C   UNL     1      -0.546   8.753   2.103  0.00  0.00    +0.434 C 
ATOM     24  F   UNL     1       0.807   8.903   1.779  0.00  0.00    -0.164 F 
ATOM     25  F   UNL     1      -1.268   9.844   1.608  0.00  0.00    -0.164 F 
ATOM     26  F   UNL     1      -0.688   8.693   3.494  0.00  0.00    -0.164 F 
ENDBRANCH   3  23
BRANCH   7  27
ATOM     27  N   UNL     1      -3.585   3.366  -0.351  0.00  0.00    -0.356 N 
ATOM     28  H   UNL     1      -3.726   2.408  -0.401  0.00  0.00    +0.142 HD
ATOM     29  H   UNL     1      -4.346   3.967  -0.326  0.00  0.00    +0.142 HD
ENDBRANCH   7  27
TORSDOF 4
