REMARK  Name = ZINC13575540
REMARK  6 active torsions:
REMARK  status: ('A' for Active; 'I' for Inactive)
REMARK    1  A    between atoms: C_4  and  C_7
REMARK    2  A    between atoms: C_8  and  N_17
REMARK    3  A    between atoms: C_10  and  S_12
REMARK    4  A    between atoms: S_12  and  C_13
REMARK    5  A    between atoms: C_13  and  C_14
REMARK    6  A    between atoms: C_18  and  C_20
REMARK                            x       y       z     vdW  Elec       q    Type
REMARK                         _______ _______ _______ _____ _____    ______ ____
ROOT
ATOM      1  C   UNL     1       3.796   7.364   0.003  0.00  0.00    +0.101 A 
ATOM      2  C   UNL     1       3.590   6.006  -0.002  0.00  0.00    +0.101 A 
ATOM      3  S   UNL     1       5.277   5.413  -0.013  0.00  0.00    -0.045 S 
ATOM      4  C   UNL     1       6.079   7.010  -0.021  0.00  0.00    +0.137 A 
ATOM      5  N   UNL     1       5.045   7.830  -0.007  0.00  0.00    -0.231 NA
ENDROOT
BRANCH   1   9
ATOM      6  C   UNL     1       0.498  10.044   0.049  0.00  0.00    +0.000 A 
ATOM      7  C   UNL     1       1.659  10.369   0.728  0.00  0.00    +0.001 A 
ATOM      8  C   UNL     1       2.733   9.503   0.717  0.00  0.00    +0.010 A 
ATOM      9  C   UNL     1       2.647   8.297   0.019  0.00  0.00    +0.003 A 
ATOM     10  C   UNL     1       1.475   7.978  -0.667  0.00  0.00    +0.010 A 
ATOM     11  C   UNL     1       0.406   8.850  -0.644  0.00  0.00    +0.001 A 
ENDBRANCH   1   9
BRANCH   2  12
ATOM     12  N   UNL     1       2.396   5.287   0.006  0.00  0.00    -0.274 N 
ATOM     13  C   UNL     1       2.420   3.940  -0.001  0.00  0.00    +0.250 C 
ATOM     14  O   UNL     1       3.484   3.351  -0.014  0.00  0.00    -0.270 OA
ATOM     15  H   UNL     1       1.547   5.757   0.017  0.00  0.00    +0.156 HD
BRANCH  13  16
ATOM     16  C   UNL     1       1.154   3.178   0.008  0.00  0.00    +0.056 A 
ATOM     17  C   UNL     1      -0.069   3.851   0.022  0.00  0.00    +0.029 A 
ATOM     18  C   UNL     1      -1.248   3.134   0.030  0.00  0.00    +0.019 A 
ATOM     19  C   UNL     1      -1.220   1.749   0.017  0.00  0.00    +0.017 A 
ATOM     20  C   UNL     1      -0.013   1.076   0.008  0.00  0.00    +0.022 A 
ATOM     21  C   UNL     1       1.175   1.781   0.000  0.00  0.00    +0.053 A 
ATOM     22 CL   UNL     1       2.690   0.934  -0.018  0.00  0.00    -0.083 Cl
ATOM     23 BR   UNL     1      -2.906   4.044   0.049  0.00  0.00    -0.050 Br
ENDBRANCH  13  16
ENDBRANCH   2  12
BRANCH   4  24
ATOM     24  S   UNL     1       7.800   7.391  -0.035  0.00  0.00    -0.089 S 
BRANCH  24  25
ATOM     25  C   UNL     1       8.491   5.718  -0.051  0.00  0.00    +0.171 C 
BRANCH  25  26
ATOM     26  C   UNL     1       9.996   5.797  -0.064  0.00  0.00    +0.221 C 
ATOM     27  O   UNL     1      10.547   6.877  -0.064  0.00  0.00    -0.275 OA
ATOM     28  N   UNL     1      10.730   4.666  -0.077  0.00  0.00    -0.329 N 
ATOM     29  H   UNL     1      10.290   3.802  -0.078  0.00  0.00    +0.145 HD
ATOM     30  H   UNL     1      11.699   4.717  -0.086  0.00  0.00    +0.145 HD
ENDBRANCH  25  26
ENDBRANCH  24  25
ENDBRANCH   4  24
TORSDOF 6
