REMARK  Name = ZINC36307285
REMARK  15 active torsions:
REMARK  status: ('A' for Active; 'I' for Inactive)
REMARK    1  A    between atoms: C_1  and  N_2
REMARK    2  A    between atoms: C_3  and  O_31
REMARK    3  A    between atoms: C_4  and  C_13
REMARK    4  A    between atoms: C_5  and  C_7
REMARK    5  A    between atoms: C_13  and  N_14
REMARK    6  A    between atoms: N_14  and  C_15
REMARK    7  A    between atoms: N_14  and  C_19
REMARK    8  A    between atoms: C_15  and  C_16
REMARK    9  A    between atoms: C_19  and  C_20
REMARK   10  A    between atoms: C_20  and  C_22
REMARK   11  A    between atoms: C_20  and  O_30
REMARK   12  A    between atoms: C_22  and  O_23
REMARK   13  A    between atoms: O_23  and  C_24
REMARK   14  A    between atoms: C_24  and  C_25
REMARK   15  A    between atoms: O_31  and  C_32
REMARK                            x       y       z     vdW  Elec       q    Type
REMARK                         _______ _______ _______ _____ _____    ______ ____
ROOT
ATOM      1  C   UNL     1      -2.484  -8.110  -0.462  0.00  0.00    +0.176 C 
ATOM      2  N   UNL     1      -1.658  -6.924  -0.222  0.00  0.00    -0.235 N 
ATOM      3  C   UNL     1      -1.232  -6.045  -1.165  0.00  0.00    +0.221 A 
ATOM      4  C   UNL     1      -0.496  -5.092  -0.538  0.00  0.00    +0.025 A 
ATOM      5  C   UNL     1      -0.472  -5.399   0.835  0.00  0.00    +0.098 A 
ATOM      6  N   UNL     1      -1.175  -6.496   1.021  0.00  0.00    -0.168 NA
ENDROOT
BRANCH   5   7
ATOM      7  C   UNL     1       0.221  -4.619   1.891  0.00  0.00    +0.002 A 
ATOM      8  C   UNL     1       1.501  -4.119   1.665  0.00  0.00    +0.010 A 
ATOM      9  C   UNL     1       2.140  -3.394   2.650  0.00  0.00    +0.001 A 
ATOM     10  C   UNL     1       1.512  -3.164   3.860  0.00  0.00    +0.000 A 
ATOM     11  C   UNL     1       0.241  -3.658   4.091  0.00  0.00    +0.001 A 
ATOM     12  C   UNL     1      -0.410  -4.380   3.110  0.00  0.00    +0.010 A 
ENDBRANCH   5   7
BRANCH   4  13
ATOM     13  C   UNL     1       0.177  -3.914  -1.196  0.00  0.00    -0.035 C 
BRANCH  13  14
ATOM     14  N   UNL     1       1.498  -4.320  -1.694  0.00  0.00    +0.384 N 
ATOM     15  H   UNL     1       2.032  -4.724  -0.939  0.00  0.00    -0.081 HD
BRANCH  14  16
ATOM     16  C   UNL     1       2.205  -3.145  -2.220  0.00  0.00    -0.075 C 
BRANCH  16  17
ATOM     17  C   UNL     1       2.477  -2.160  -1.081  0.00  0.00    -0.028 C 
ATOM     18  C   UNL     1       1.798  -0.791  -1.153  0.00  0.00    +0.002 C 
ATOM     19  C   UNL     1       3.302  -0.914  -1.406  0.00  0.00    +0.002 C 
ENDBRANCH  16  17
ENDBRANCH  14  16
BRANCH  14  20
ATOM     20  C   UNL     1       1.334  -5.313  -2.764  0.00  0.00    -0.044 C 
BRANCH  20  21
ATOM     21  C   UNL     1       2.708  -5.827  -3.197  0.00  0.00    +0.124 C 
BRANCH  21  22
ATOM     22  O   UNL     1       3.314  -6.535  -2.114  0.00  0.00    -0.391 OA
ATOM     23  H   UNL     1       2.806  -7.300  -1.810  0.00  0.00    +0.210 HD
ENDBRANCH  21  22
BRANCH  21  24
ATOM     24  C   UNL     1       2.547  -6.767  -4.394  0.00  0.00    +0.189 C 
BRANCH  24  25
ATOM     25  O   UNL     1       3.836  -7.155  -4.872  0.00  0.00    -0.370 OA
BRANCH  25  26
ATOM     26  C   UNL     1       3.798  -8.038  -5.995  0.00  0.00    +0.234 C 
BRANCH  26  27
ATOM     27  C   UNL     1       5.205  -8.381  -6.412  0.00  0.00    +0.130 A 
ATOM     28  C   UNL     1       5.929  -9.420  -5.959  0.00  0.00    +0.047 A 
ATOM     29  C   UNL     1       7.182  -9.362  -6.612  0.00  0.00    +0.041 A 
ATOM     30  C   UNL     1       7.149  -8.290  -7.424  0.00  0.00    +0.195 A 
ATOM     31  O   UNL     1       5.947  -7.703  -7.303  0.00  0.00    -0.465 OA
ENDBRANCH  26  27
ENDBRANCH  25  26
ENDBRANCH  24  25
ENDBRANCH  21  24
ENDBRANCH  20  21
ENDBRANCH  14  20
ENDBRANCH  13  14
ENDBRANCH   4  13
BRANCH   3  32
ATOM     32  O   UNL     1      -1.494  -6.108  -2.495  0.00  0.00    -0.438 OA
BRANCH  32  33
ATOM     33  C   UNL     1      -2.614  -5.492  -2.954  0.00  0.00    +0.133 A 
ATOM     34  C   UNL     1      -3.393  -4.732  -2.092  0.00  0.00    +0.046 A 
ATOM     35  C   UNL     1      -4.531  -4.106  -2.560  0.00  0.00    +0.006 A 
ATOM     36  C   UNL     1      -4.897  -4.235  -3.887  0.00  0.00    +0.038 A 
ATOM     37  C   UNL     1      -4.123  -4.992  -4.750  0.00  0.00    +0.127 A 
ATOM     38  C   UNL     1      -2.978  -5.616  -4.287  0.00  0.00    +0.084 A 
ATOM     39  F   UNL     1      -4.483  -5.117  -6.047  0.00  0.00    -0.205 F 
ENDBRANCH  32  33
ENDBRANCH   3  32
TORSDOF 14
