REMARK  Name = ZINC36919574
REMARK  8 active torsions:
REMARK  status: ('A' for Active; 'I' for Inactive)
REMARK    1  A    between atoms: C_1  and  C_2
REMARK    2  A    between atoms: C_2  and  C_4
REMARK    3  A    between atoms: C_2  and  N_12
REMARK    4  A    between atoms: C_7  and  O_11
REMARK    5  A    between atoms: C_9  and  O_10
REMARK    6  A    between atoms: N_12  and  C_13
REMARK    7  A    between atoms: C_16  and  S_19
REMARK    8  A    between atoms: S_19  and  C_20
REMARK                            x       y       z     vdW  Elec       q    Type
REMARK                         _______ _______ _______ _____ _____    ______ ____
ROOT
ATOM      1  C   UNL     1      -0.084   1.523   0.018  0.00  0.00    +0.033 C 
ATOM      2  C   UNL     1       0.002  -0.004   0.002  0.00  0.00    +0.101 C 
ENDROOT
BRANCH   2   3
ATOM      3  C   UNL     1       0.867  -0.446  -1.150  0.00  0.00    +0.014 A 
ATOM      4  C   UNL     1       2.219  -0.657  -0.958  0.00  0.00    +0.012 A 
ATOM      5  C   UNL     1       3.014  -1.062  -2.012  0.00  0.00    +0.046 A 
ATOM      6  C   UNL     1       2.457  -1.259  -3.268  0.00  0.00    +0.120 A 
ATOM      7  C   UNL     1       1.101  -1.048  -3.463  0.00  0.00    +0.091 A 
ATOM      8  C   UNL     1       0.304  -0.647  -2.402  0.00  0.00    +0.125 A 
BRANCH   8   9
ATOM      9  O   UNL     1      -1.027  -0.446  -2.590  0.00  0.00    -0.506 OA
ATOM     10  H   UNL     1      -1.256   0.457  -2.850  0.00  0.00    +0.292 HD
ENDBRANCH   8   9
BRANCH   6  11
ATOM     11  O   UNL     1       3.240  -1.657  -4.305  0.00  0.00    -0.507 OA
ATOM     12  H   UNL     1       3.307  -2.617  -4.401  0.00  0.00    +0.292 HD
ENDBRANCH   6  11
ENDBRANCH   2   3
BRANCH   2  13
ATOM     13  N   UNL     1       0.587  -0.474   1.260  0.00  0.00    -0.337 N 
ATOM     14  H   UNL     1       1.540  -0.645   1.317  0.00  0.00    +0.147 HD
BRANCH  13  15
ATOM     15  C   UNL     1      -0.229  -0.675   2.380  0.00  0.00    +0.028 A 
ATOM     16  C   UNL     1      -1.594  -0.435   2.296  0.00  0.00    +0.024 A 
ATOM     17  C   UNL     1      -2.399  -0.634   3.400  0.00  0.00    +0.017 A 
ATOM     18  C   UNL     1      -1.843  -1.074   4.594  0.00  0.00    +0.013 A 
ATOM     19  C   UNL     1      -0.478  -1.315   4.678  0.00  0.00    +0.017 A 
ATOM     20  C   UNL     1       0.326  -1.121   3.572  0.00  0.00    +0.024 A 
BRANCH  18  21
ATOM     21  S   UNL     1      -2.871  -1.328   6.003  0.00  0.00    -0.056 S 
BRANCH  21  22
ATOM     22  C   UNL     1      -1.721  -1.889   7.289  0.00  0.00    +0.404 C 
ATOM     23  F   UNL     1      -1.096  -3.070   6.873  0.00  0.00    -0.197 F 
ATOM     24  F   UNL     1      -0.754  -0.903   7.513  0.00  0.00    -0.197 F 
ENDBRANCH  21  22
ENDBRANCH  18  21
ENDBRANCH  13  15
ENDBRANCH   2  13
TORSDOF 7
