REMARK  Name = ZINC04268246
REMARK  6 active torsions:
REMARK  status: ('A' for Active; 'I' for Inactive)
REMARK    1  A    between atoms: C_1  and  C_2
REMARK    2  A    between atoms: C_2  and  C_34
REMARK    3  A    between atoms: C_5  and  O_33
REMARK    4  A    between atoms: C_16  and  O_28
REMARK    5  A    between atoms: C_21  and  O_23
REMARK    6  A    between atoms: C_30  and  O_32
REMARK                            x       y       z     vdW  Elec       q    Type
REMARK                         _______ _______ _______ _____ _____    ______ ____
ROOT
ATOM      1  C   UNL     1       1.318   1.492   4.827  0.00  0.00    +0.011 C 
ATOM      2  C   UNL     1       1.960   0.795   3.630  0.00  0.00    -0.031 C 
ATOM      3  C   UNL     1       3.450   1.126   3.634  0.00  0.00    +0.009 C 
ATOM      4  C   UNL     1       3.698   2.492   2.996  0.00  0.00    +0.032 C 
ATOM      5  C   UNL     1       3.258   2.378   1.530  0.00  0.00    +0.126 C 
ATOM      6  C   UNL     1       1.761   2.188   1.444  0.00  0.00    +0.057 C 
ATOM      7  C   UNL     1       1.262   1.038   2.312  0.00  0.00    +0.011 C 
ATOM      8  C   UNL     1      -0.255   1.208   2.500  0.00  0.00    +0.037 C 
ATOM      9  C   UNL     1      -0.799   1.953   1.254  0.00  0.00    +0.138 C 
ATOM     10  C   UNL     1      -0.104   1.381   0.036  0.00  0.00    +0.092 C 
ATOM     11  C   UNL     1       1.313   1.986  -0.010  0.00  0.00    +0.050 C 
ATOM     12  C   UNL     1       2.164   1.183  -0.961  0.00  0.00    +0.120 C 
ATOM     13  C   UNL     1       1.457   1.095  -2.329  0.00  0.00    +0.042 C 
ATOM     14  C   UNL     1      -0.010   0.678  -2.205  0.00  0.00    +0.054 C 
ATOM     15  C   UNL     1      -0.754   1.716  -1.315  0.00  0.00    +0.139 C 
ATOM     16  C   UNL     1      -0.058  -0.583  -1.351  0.00  0.00    -0.006 C 
ATOM     17  C   UNL     1      -0.113  -1.847  -1.778  0.00  0.00    +0.016 C 
ATOM     18  C   UNL     1      -0.037  -0.126   0.052  0.00  0.00    +0.170 C 
ATOM     19  O   UNL     1      -0.013  -0.882   1.003  0.00  0.00    -0.292 OA
ATOM     20  O   UNL     1      -0.367   3.325   1.404  0.00  0.00    -0.347 OA
ATOM     21  C   UNL     1       0.996   3.471   1.841  0.00  0.00    +0.257 C 
ATOM     22  C   UNL     1       1.863  -0.727   3.918  0.00  0.00    +0.011 C 
ENDROOT
BRANCH  15  23
ATOM     23  O   UNL     1      -0.503   3.058  -1.719  0.00  0.00    -0.390 OA
ATOM     24  H   UNL     1      -0.902   3.294  -2.568  0.00  0.00    +0.210 HD
ENDBRANCH  15  23
BRANCH  12  25
ATOM     25  O   UNL     1       3.403   1.876  -1.208  0.00  0.00    -0.391 OA
ATOM     26  H   UNL     1       3.984   1.431  -1.839  0.00  0.00    +0.210 HD
ENDBRANCH  12  25
BRANCH  21  27
ATOM     27  O   UNL     1       1.053   3.760   3.226  0.00  0.00    -0.366 OA
ATOM     28  H   UNL     1       0.575   4.562   3.481  0.00  0.00    +0.212 HD
ENDBRANCH  21  27
BRANCH   5  29
ATOM     29  O   UNL     1       3.915   1.214   1.012  0.00  0.00    -0.391 OA
ATOM     30  H   UNL     1       4.880   1.264   1.036  0.00  0.00    +0.210 HD
ENDBRANCH   5  29
TORSDOF 4
