REMARK  Name = ZINC12447246
REMARK  11 active torsions:
REMARK  status: ('A' for Active; 'I' for Inactive)
REMARK    1  A    between atoms: C_1  and  C_2
REMARK    2  A    between atoms: C_5  and  C_27
REMARK    3  A    between atoms: C_6  and  N_8
REMARK    4  A    between atoms: C_9  and  C_11
REMARK    5  A    between atoms: C_11  and  C_12
REMARK    6  A    between atoms: C_12  and  C_13
REMARK    7  A    between atoms: N_15  and  N_16
REMARK    8  A    between atoms: C_17  and  C_18
REMARK    9  A    between atoms: C_17  and  C_19
REMARK   10  A    between atoms: C_22  and  O_26
REMARK   11  A    between atoms: C_24  and  O_25
REMARK                            x       y       z     vdW  Elec       q    Type
REMARK                         _______ _______ _______ _____ _____    ______ ____
ROOT
ATOM      1  C   UNL     1       0.504  -2.683   7.314  0.00  0.00    +0.233 C 
ATOM      2  O   UNL     1       0.520  -3.896   7.301  0.00  0.00    -0.274 OA
ATOM      3  N   UNL     1       0.602  -2.020   8.483  0.00  0.00    -0.207 N 
ATOM      4  H   UNL     1       0.589  -1.050   8.493  0.00  0.00    +0.177 HD
ENDROOT
BRANCH   3   5
ATOM      5  N   UNL     1       0.723  -2.732   9.684  0.00  0.00    -0.184 NA
ATOM      6  C   UNL     1       0.817  -2.093  10.810  0.00  0.00    +0.067 C 
ATOM      7  C   UNL     1       0.797  -0.586  10.826  0.00  0.00    +0.068 C 
BRANCH   6   8
ATOM      8  C   UNL     1       0.944  -2.841  12.072  0.00  0.00    +0.039 A 
ATOM      9  C   UNL     1       1.040  -2.157  13.287  0.00  0.00    +0.017 A 
ATOM     10  C   UNL     1       1.159  -2.861  14.465  0.00  0.00    +0.046 A 
ATOM     11  C   UNL     1       1.183  -4.250  14.451  0.00  0.00    +0.120 A 
ATOM     12  C   UNL     1       1.089  -4.939  13.251  0.00  0.00    +0.091 A 
ATOM     13  C   UNL     1       0.963  -4.243  12.061  0.00  0.00    +0.129 A 
BRANCH  13  14
ATOM     14  O   UNL     1       0.865  -4.916  10.885  0.00  0.00    -0.506 OA
ATOM     15  H   UNL     1       1.716  -5.098  10.464  0.00  0.00    +0.292 HD
ENDBRANCH  13  14
BRANCH  11  16
ATOM     16  O   UNL     1       1.300  -4.937  15.617  0.00  0.00    -0.507 OA
ATOM     17  H   UNL     1       0.455  -5.152  16.034  0.00  0.00    +0.292 HD
ENDBRANCH  11  16
ENDBRANCH   6   8
ENDBRANCH   3   5
BRANCH   1  18
ATOM     18  C   UNL     1       0.374  -1.917   6.022  0.00  0.00    +0.107 C 
BRANCH  18  19
ATOM     19  C   UNL     1       0.280  -2.900   4.854  0.00  0.00    +0.105 C 
BRANCH  19  21
ATOM     20  N   UNL     1       0.052  -2.797   2.393  0.00  0.00    -0.285 N 
ATOM     21  C   UNL     1       0.150  -2.135   3.562  0.00  0.00    +0.218 C 
ATOM     22  O   UNL     1       0.134  -0.922   3.575  0.00  0.00    -0.275 OA
ATOM     23  H   UNL     1      -0.016  -3.765   2.388  0.00  0.00    +0.155 HD
BRANCH  20  29
ATOM     24  C   UNL     1       1.264   1.227  -0.158  0.00  0.00    +0.044 C 
ATOM     25  C   UNL     1       0.628  -0.137  -0.079  0.00  0.00    -0.049 A 
ATOM     26  C   UNL     1       0.039  -0.690  -1.201  0.00  0.00    +0.004 A 
ATOM     27  C   UNL     1      -0.546  -1.941  -1.133  0.00  0.00    +0.005 A 
ATOM     28  C   UNL     1      -0.543  -2.643   0.057  0.00  0.00    -0.029 A 
ATOM     29  C   UNL     1       0.048  -2.090   1.185  0.00  0.00    +0.037 A 
ATOM     30  C   UNL     1       0.639  -0.835   1.112  0.00  0.00    +0.027 A 
ATOM     31  C   UNL     1      -1.181  -4.006   0.131  0.00  0.00    +0.045 C 
ENDBRANCH  20  29
ENDBRANCH  19  21
ENDBRANCH  18  19
ENDBRANCH   1  18
TORSDOF 8
