REMARK  Name = ZINC63538006
REMARK  10 active torsions:
REMARK  status: ('A' for Active; 'I' for Inactive)
REMARK    1  A    between atoms: C_1  and  O_2
REMARK    2  A    between atoms: O_2  and  C_3
REMARK    3  A    between atoms: C_3  and  C_5
REMARK    4  A    between atoms: C_5  and  O_6
REMARK    5  A    between atoms: O_6  and  C_7
REMARK    6  A    between atoms: C_12  and  C_13
REMARK    7  A    between atoms: N_17  and  C_27
REMARK    8  A    between atoms: N_19  and  C_20
REMARK    9  A    between atoms: C_27  and  C_28
REMARK   10  A    between atoms: C_28  and  C_29
REMARK                            x       y       z     vdW  Elec       q    Type
REMARK                         _______ _______ _______ _____ _____    ______ ____
ROOT
ATOM      1  C   UNL     1       2.761  -3.372   4.581  0.00  0.00    +0.032 C 
ATOM      2  C   UNL     1       3.327  -3.828   5.727  0.00  0.00    +0.078 C 
ATOM      3  C   UNL     1       3.585  -5.215   6.156  0.00  0.00    +0.259 C 
ATOM      4  O   UNL     1       3.286  -6.164   5.454  0.00  0.00    -0.269 OA
ATOM      5  N   UNL     1       4.155  -5.382   7.337  0.00  0.00    -0.246 N 
ATOM      6  C   UNL     1       4.486  -4.295   8.117  0.00  0.00    +0.168 C 
ATOM      7  N   UNL     1       5.053  -4.282   9.303  0.00  0.00    -0.225 NA
ATOM      8  S   UNL     1       3.965  -2.908   7.120  0.00  0.00    -0.049 S 
ENDROOT
BRANCH   1  14
ATOM      9  C   UNL     1       2.340  -4.155   2.254  0.00  0.00    +0.128 A 
ATOM     10  C   UNL     1       1.764  -5.056   1.374  0.00  0.00    +0.046 A 
ATOM     11  C   UNL     1       1.003  -6.105   1.854  0.00  0.00    +0.004 A 
ATOM     12  C   UNL     1       0.809  -6.266   3.217  0.00  0.00    +0.001 A 
ATOM     13  C   UNL     1       1.373  -5.380   4.109  0.00  0.00    +0.011 A 
ATOM     14  C   UNL     1       2.151  -4.316   3.637  0.00  0.00    +0.018 A 
BRANCH   9  15
ATOM     15  O   UNL     1       3.087  -3.124   1.784  0.00  0.00    -0.480 OA
BRANCH  15  16
ATOM     16  C   UNL     1       3.235  -3.025   0.366  0.00  0.00    +0.349 C 
BRANCH  16  17
ATOM     17  C   UNL     1       4.090  -1.830   0.032  0.00  0.00    +0.345 C 
ATOM     18  O   UNL     1       4.528  -1.134   0.918  0.00  0.00    -0.247 OA
BRANCH  17  20
ATOM     19  C   UNL     1       5.181  -0.390  -1.492  0.00  0.00    +0.280 C 
ATOM     20  O   UNL     1       4.365  -1.537  -1.249  0.00  0.00    -0.466 OA
ENDBRANCH  17  20
ENDBRANCH  16  17
ENDBRANCH  15  16
ENDBRANCH   9  15
ENDBRANCH   1  14
BRANCH   7  21
ATOM     21  C   UNL     1       5.305  -3.091   9.928  0.00  0.00    +0.067 A 
ATOM     22  C   UNL     1       5.865  -2.030   9.214  0.00  0.00    +0.028 A 
ATOM     23  C   UNL     1       6.117  -0.832   9.850  0.00  0.00    +0.002 A 
ATOM     24  C   UNL     1       5.816  -0.681  11.192  0.00  0.00    +0.000 A 
ATOM     25  C   UNL     1       5.262  -1.729  11.905  0.00  0.00    +0.002 A 
ATOM     26  C   UNL     1       4.999  -2.930  11.281  0.00  0.00    +0.028 A 
ENDBRANCH   7  21
BRANCH   5  27
ATOM     27  C   UNL     1       4.439  -6.735   7.822  0.00  0.00    +0.120 C 
BRANCH  27  28
ATOM     28  C   UNL     1       5.838  -7.157   7.369  0.00  0.00    +0.052 C 
BRANCH  28  29
ATOM     29  C   UNL     1       6.129  -8.549   7.868  0.00  0.00    -0.040 C 
ATOM     30  C   UNL     1       5.960  -9.707   7.190  0.00  0.00    -0.001 A 
ATOM     31  C   UNL     1       5.473 -10.006   5.838  0.00  0.00    +0.010 A 
ATOM     32  C   UNL     1       5.415 -11.295   5.432  0.00  0.00    +0.001 A 
ATOM     33  C   UNL     1       5.808 -12.349   6.267  0.00  0.00    +0.002 A 
ATOM     34  C   UNL     1       6.267 -12.154   7.522  0.00  0.00    +0.026 A 
ATOM     35  C   UNL     1       6.370 -10.838   8.052  0.00  0.00    +0.043 A 
ATOM     36  N   UNL     1       6.776 -10.397   9.218  0.00  0.00    -0.380 N 
ATOM     37  C   UNL     1       6.675  -8.933   9.225  0.00  0.00    +0.144 C 
ATOM     38  H   UNL     1       7.093 -10.946   9.952  0.00  0.00    +0.160 HD
ENDBRANCH  28  29
ENDBRANCH  27  28
ENDBRANCH   5  27
TORSDOF 9
