REMARK  Name = ZINC66739067
REMARK  4 active torsions:
REMARK  status: ('A' for Active; 'I' for Inactive)
REMARK    1  A    between atoms: C_1  and  C_2
REMARK    2  A    between atoms: C_2  and  N_3
REMARK    3  A    between atoms: C_4  and  C_15
REMARK    4  A    between atoms: C_18  and  C_20
REMARK                            x       y       z     vdW  Elec       q    Type
REMARK                         _______ _______ _______ _____ _____    ______ ____
ROOT
ATOM      1  N   UNL     1       0.605  -0.486   1.241  0.00  0.00    -0.275 N 
ATOM      2  C   UNL     1       2.055  -0.665   1.320  0.00  0.00    +0.201 C 
ATOM      3  N   UNL     1       2.382  -1.760   2.242  0.00  0.00    -0.321 N 
ATOM      4  C   UNL     1       1.713  -1.827   3.459  0.00  0.00    +0.041 A 
ATOM      5  C   UNL     1       2.298  -2.371   4.589  0.00  0.00    +0.024 A 
ATOM      6  C   UNL     1       1.590  -2.409   5.774  0.00  0.00    +0.002 A 
ATOM      7  C   UNL     1       0.299  -1.907   5.841  0.00  0.00    +0.001 A 
ATOM      8  C   UNL     1      -0.299  -1.363   4.724  0.00  0.00    +0.015 A 
ATOM      9  C   UNL     1       0.403  -1.319   3.522  0.00  0.00    +0.058 A 
ATOM     10  C   UNL     1      -0.191  -0.751   2.297  0.00  0.00    +0.250 C 
ATOM     11  O   UNL     1      -1.385  -0.528   2.239  0.00  0.00    -0.270 OA
ATOM     12  H   UNL     1       3.051  -2.422   2.007  0.00  0.00    +0.148 HD
ENDROOT
BRANCH   2  13
ATOM     13  C   UNL     1       2.689   0.608   1.818  0.00  0.00    +0.048 A 
ATOM     14  C   UNL     1       3.874   0.795   2.457  0.00  0.00    +0.126 A 
ATOM     15  N   UNL     1       4.244   2.005   2.808  0.00  0.00    -0.247 NA
ATOM     16  C   UNL     1       3.481   3.059   2.553  0.00  0.00    +0.109 A 
ATOM     17  S   UNL     1       2.094   2.292   1.724  0.00  0.00    -0.069 S 
BRANCH  16  18
ATOM     18  C   UNL     1       3.717   4.485   2.864  0.00  0.00    +0.007 A 
ATOM     19  C   UNL     1       2.770   5.446   2.507  0.00  0.00    +0.010 A 
ATOM     20  C   UNL     1       2.996   6.775   2.800  0.00  0.00    +0.001 A 
ATOM     21  C   UNL     1       4.159   7.156   3.446  0.00  0.00    +0.000 A 
ATOM     22  C   UNL     1       5.102   6.208   3.802  0.00  0.00    +0.001 A 
ATOM     23  C   UNL     1       4.885   4.875   3.520  0.00  0.00    +0.010 A 
ENDBRANCH  16  18
ENDBRANCH   2  13
BRANCH   1  25
ATOM     24  C   UNL     1      -0.455  -1.197  -0.845  0.00  0.00    +0.024 C 
ATOM     25  C   UNL     1       0.008  -0.004  -0.007  0.00  0.00    +0.107 C 
ENDBRANCH   1  25
TORSDOF 3
