REMARK  Name = ZINC36378013
REMARK  8 active torsions:
REMARK  status: ('A' for Active; 'I' for Inactive)
REMARK    1  A    between atoms: C_1  and  N_2
REMARK    2  A    between atoms: C_9  and  C_21
REMARK    3  A    between atoms: C_11  and  C_17
REMARK    4  A    between atoms: C_11  and  C_19
REMARK    5  A    between atoms: C_12  and  N_16
REMARK    6  A    between atoms: C_13  and  C_14
REMARK    7  A    between atoms: C_24  and  O_28
REMARK    8  A    between atoms: C_25  and  O_27
REMARK                            x       y       z     vdW  Elec       q    Type
REMARK                         _______ _______ _______ _____ _____    ______ ____
ROOT
ATOM      1  C   UNL     1      -0.391   1.217  -0.085  0.00  0.00    +0.105 C 
ATOM      2  N   UNL     1      -0.224  -0.243  -0.074  0.00  0.00    -0.301 NA
ATOM      3  C   UNL     1      -1.529  -0.924  -0.153  0.00  0.00    +0.111 C 
ATOM      4  C   UNL     1      -1.262  -2.401  -0.313  0.00  0.00    -0.007 C 
ATOM      5  C   UNL     1      -0.205  -2.945   0.260  0.00  0.00    -0.026 C 
ATOM      6  C   UNL     1       0.745  -2.170   1.128  0.00  0.00    +0.044 C 
ATOM      7  C   UNL     1       0.502  -0.678   1.122  0.00  0.00    +0.093 C 
ATOM      8  C   UNL     1       2.172  -2.524   0.704  0.00  0.00    +0.068 C 
ATOM      9  C   UNL     1       2.410  -4.012   0.962  0.00  0.00    +0.188 C 
ATOM     10  C   UNL     1       1.321  -4.860   0.378  0.00  0.00    +0.054 C 
ATOM     11  C   UNL     1       0.091  -4.385   0.055  0.00  0.00    +0.074 C 
ENDROOT
BRANCH   8  12
ATOM     12  C   UNL     1       2.351  -2.228  -0.763  0.00  0.00    -0.037 A 
ATOM     13  C   UNL     1       2.811  -0.989  -1.165  0.00  0.00    +0.008 A 
ATOM     14  C   UNL     1       2.977  -0.713  -2.510  0.00  0.00    +0.049 A 
ATOM     15  C   UNL     1       2.682  -1.680  -3.457  0.00  0.00    +0.158 A 
ATOM     16  C   UNL     1       2.219  -2.928  -3.052  0.00  0.00    +0.158 A 
ATOM     17  C   UNL     1       2.059  -3.200  -1.702  0.00  0.00    +0.053 A 
BRANCH  16  18
ATOM     18  O   UNL     1       1.928  -3.881  -3.978  0.00  0.00    -0.503 OA
ATOM     19  H   UNL     1       2.675  -4.451  -4.203  0.00  0.00    +0.292 HD
ENDBRANCH  16  18
BRANCH  15  20
ATOM     20  O   UNL     1       2.844  -1.410  -4.780  0.00  0.00    -0.503 OA
ATOM     21  H   UNL     1       3.723  -1.627  -5.121  0.00  0.00    +0.292 HD
ENDBRANCH  15  20
ENDBRANCH   8  12
BRANCH  10  22
ATOM     22  N   UNL     1       1.581  -6.184   0.159  0.00  0.00    -0.358 N 
ATOM     23  H   UNL     1       2.451  -6.551   0.381  0.00  0.00    +0.142 HD
ATOM     24  H   UNL     1       0.895  -6.757  -0.218  0.00  0.00    +0.142 HD
ENDBRANCH  10  22
BRANCH  11  25
ATOM     25  C   UNL     1      -0.908  -5.263  -0.476  0.00  0.00    +0.101 C 
ATOM     26  N   UNL     1      -1.701  -5.958  -0.898  0.00  0.00    -0.191 NA
ENDBRANCH  11  25
BRANCH   9  27
ATOM     27  C   UNL     1       2.471  -4.243   2.415  0.00  0.00    +0.091 C 
ATOM     28  N   UNL     1       2.518  -4.421   3.536  0.00  0.00    -0.194 NA
ENDBRANCH   9  27
BRANCH   9  29
ATOM     29  C   UNL     1       3.696  -4.402   0.362  0.00  0.00    +0.091 C 
ATOM     30  N   UNL     1       4.689  -4.704  -0.100  0.00  0.00    -0.194 NA
ENDBRANCH   9  29
TORSDOF 7
