REMARK  Name = ZINC03354215
REMARK  7 active torsions:
REMARK  status: ('A' for Active; 'I' for Inactive)
REMARK    1  A    between atoms: C_1  and  C_2
REMARK    2  A    between atoms: C_2  and  C_3
REMARK    3  A    between atoms: C_3  and  C_4
REMARK    4  A    between atoms: C_7  and  C_10
REMARK    5  A    between atoms: C_11  and  C_28
REMARK    6  A    between atoms: C_16  and  C_18
REMARK    7  A    between atoms: C_23  and  N_24
REMARK                            x       y       z     vdW  Elec       q    Type
REMARK                         _______ _______ _______ _____ _____    ______ ____
ROOT
ATOM      1  C   UNL     1      -0.200  -7.158  -2.244  0.00  0.00    +0.083 A 
ATOM      2  C   UNL     1      -1.200  -7.994  -1.832  0.00  0.00    +0.016 A 
ATOM      3  S   UNL     1      -0.279  -9.501  -1.551  0.00  0.00    -0.057 S 
ATOM      4  C   UNL     1       1.329  -8.867  -2.007  0.00  0.00    +0.165 A 
ATOM      5  N   UNL     1       1.040  -7.619  -2.325  0.00  0.00    -0.224 NA
ATOM      6  N   UNL     1       2.557  -9.516  -2.026  0.00  0.00    -0.261 N 
ATOM      7  C   UNL     1       2.639 -10.812  -1.664  0.00  0.00    +0.252 C 
ATOM      8  O   UNL     1       1.639 -11.412  -1.321  0.00  0.00    -0.270 OA
ATOM      9  C   UNL     1      -2.672  -7.721  -1.661  0.00  0.00    +0.054 C 
ATOM     10  H   UNL     1       3.354  -9.037  -2.299  0.00  0.00    +0.157 HD
ENDROOT
BRANCH   7  11
ATOM     11  C   UNL     1       3.945 -11.503  -1.684  0.00  0.00    +0.069 A 
ATOM     12  C   UNL     1       4.713 -11.517  -2.850  0.00  0.00    +0.035 A 
ATOM     13  C   UNL     1       5.932 -12.165  -2.862  0.00  0.00    +0.042 A 
ATOM     14  C   UNL     1       6.393 -12.799  -1.720  0.00  0.00    +0.022 A 
ATOM     15  C   UNL     1       5.636 -12.789  -0.563  0.00  0.00    +0.035 A 
ATOM     16  C   UNL     1       4.419 -12.140  -0.536  0.00  0.00    +0.138 A 
ATOM     17 CL   UNL     1       6.888 -12.185  -4.311  0.00  0.00    -0.084 Cl
BRANCH  16  18
ATOM     18  N   UNL     1       3.614 -12.124   0.706  0.00  0.00    +0.057 N 
ATOM     19  O   UNL     1       3.964 -12.778   1.661  0.00  0.00    -0.126 OA
ATOM     20  O   UNL     1       2.607 -11.459   0.765  0.00  0.00    -0.126 OA
ENDBRANCH  16  18
ENDBRANCH   7  11
BRANCH   1  24
ATOM     21  C   UNL     1      -1.060  -3.123  -3.270  0.00  0.00    -0.047 A 
ATOM     22  C   UNL     1       0.141  -3.438  -2.660  0.00  0.00    +0.004 A 
ATOM     23  C   UNL     1       0.425  -4.746  -2.325  0.00  0.00    +0.010 A 
ATOM     24  C   UNL     1      -0.500  -5.751  -2.601  0.00  0.00    +0.001 A 
ATOM     25  C   UNL     1      -1.708  -5.428  -3.216  0.00  0.00    +0.010 A 
ATOM     26  C   UNL     1      -1.985  -4.116  -3.542  0.00  0.00    +0.004 A 
BRANCH  21  27
ATOM     27  C   UNL     1      -1.365  -1.693  -3.634  0.00  0.00    +0.035 C 
BRANCH  27  29
ATOM     28  C   UNL     1      -2.377   0.445  -2.830  0.00  0.00    +0.004 C 
ATOM     29  C   UNL     1      -2.067  -1.007  -2.461  0.00  0.00    +0.001 C 
ENDBRANCH  27  29
ENDBRANCH  21  27
ENDBRANCH   1  24
TORSDOF 5
