REMARK  Name = ZINC49721966
REMARK  6 active torsions:
REMARK  status: ('A' for Active; 'I' for Inactive)
REMARK    1  A    between atoms: C_6  and  C_7
REMARK    2  A    between atoms: C_7  and  C_8
REMARK    3  A    between atoms: N_10  and  C_11
REMARK    4  A    between atoms: C_11  and  C_12
REMARK    5  A    between atoms: C_12  and  C_13
REMARK    6  A    between atoms: C_16  and  C_21
REMARK                            x       y       z     vdW  Elec       q    Type
REMARK                         _______ _______ _______ _____ _____    ______ ____
ROOT
ATOM      1  C   UNL     1      -3.313  -1.943  -3.024  0.00  0.00    +0.111 C 
ENDROOT
BRANCH   1   4
ATOM      2  C   UNL     1      -1.738  -1.024  -1.407  0.00  0.00    +0.217 C 
ATOM      3  O   UNL     1      -1.070  -0.616  -2.333  0.00  0.00    -0.275 OA
ATOM      4  N   UNL     1      -2.880  -1.701  -1.646  0.00  0.00    -0.315 N 
ATOM      5  H   UNL     1      -3.414  -2.027  -0.905  0.00  0.00    +0.149 HD
BRANCH   2   6
ATOM      6  C   UNL     1      -1.293  -0.775   0.011  0.00  0.00    +0.130 C 
BRANCH   6  12
ATOM      7  C   UNL     1      -0.017   1.378   0.010  0.00  0.00    +0.005 A 
ATOM      8  C   UNL     1       1.171   2.086   0.002  0.00  0.00    +0.020 A 
ATOM      9  C   UNL     1       2.378   1.410  -0.013  0.00  0.00    +0.041 A 
ATOM     10  C   UNL     1       2.396   0.027  -0.021  0.00  0.00    +0.020 A 
ATOM     11  C   UNL     1       1.208  -0.679  -0.013  0.00  0.00    +0.005 A 
ATOM     12  C   UNL     1       0.002  -0.004   0.002  0.00  0.00    -0.039 A 
ATOM     13 CL   UNL     1       3.870   2.298  -0.023  0.00  0.00    -0.084 Cl
ENDBRANCH   6  12
ENDBRANCH   2   6
ENDBRANCH   1   4
BRANCH   1  14
ATOM     14  C   UNL     1      -4.627  -2.726  -3.015  0.00  0.00    +0.083 C 
BRANCH  14  15
ATOM     15  C   UNL     1      -5.073  -2.975  -4.433  0.00  0.00    +0.104 A 
ATOM     16  N   UNL     1      -4.496  -2.625  -5.544  0.00  0.00    -0.161 NA
ATOM     17  N   UNL     1      -5.049  -2.940  -6.778  0.00  0.00    -0.190 N 
ATOM     18  C   UNL     1      -4.790  -2.775  -8.123  0.00  0.00    +0.159 A 
ATOM     19  N   UNL     1      -5.757  -3.337  -8.792  0.00  0.00    -0.131 NA
ATOM     20  N   UNL     1      -6.615  -3.850  -7.980  0.00  0.00    -0.120 NA
ATOM     21  C   UNL     1      -6.233  -3.636  -6.758  0.00  0.00    +0.218 A 
ATOM     22  S   UNL     1      -6.526  -3.834  -5.018  0.00  0.00    -0.031 S 
BRANCH  18  23
ATOM     23  C   UNL     1      -3.599  -2.067  -8.715  0.00  0.00    +0.059 C 
ATOM     24  C   UNL     1      -3.602  -1.819 -10.225  0.00  0.00    +0.012 C 
ATOM     25  C   UNL     1      -2.676  -2.879  -9.626  0.00  0.00    +0.012 C 
ENDBRANCH  18  23
ENDBRANCH  14  15
ENDBRANCH   1  14
TORSDOF 6
