REMARK  Name = ZINC03372283
REMARK  12 active torsions:
REMARK  status: ('A' for Active; 'I' for Inactive)
REMARK    1  A    between atoms: C_1  and  C_2
REMARK    2  A    between atoms: C_2  and  C_3
REMARK    3  A    between atoms: C_5  and  C_30
REMARK    4  A    between atoms: C_6  and  N_8
REMARK    5  A    between atoms: C_9  and  C_11
REMARK    6  A    between atoms: C_11  and  S_12
REMARK    7  A    between atoms: S_12  and  C_13
REMARK    8  A    between atoms: N_23  and  C_24
REMARK    9  A    between atoms: C_24  and  C_25
REMARK   10  A    between atoms: C_30  and  O_32
REMARK   11  A    between atoms: O_32  and  C_33
REMARK   12  A    between atoms: C_33  and  C_34
REMARK                            x       y       z     vdW  Elec       q    Type
REMARK                         _______ _______ _______ _____ _____    ______ ____
ROOT
ATOM      1  S   UNL     1      -6.281  -2.340   4.974  0.00  0.00    -0.078 S 
ENDROOT
BRANCH   1   2
ATOM      2  C   UNL     1      -7.845  -2.919   5.543  0.00  0.00    +0.173 A 
ATOM      3  N   UNL     1      -8.747  -3.254   4.654  0.00  0.00    -0.223 NA
ATOM      4  C   UNL     1      -9.965  -3.704   5.019  0.00  0.00    +0.079 A 
ATOM      5  C   UNL     1     -10.928  -4.062   4.071  0.00  0.00    +0.028 A 
ATOM      6  C   UNL     1     -12.149  -4.514   4.485  0.00  0.00    +0.002 A 
ATOM      7  C   UNL     1     -12.450  -4.624   5.836  0.00  0.00    +0.001 A 
ATOM      8  C   UNL     1     -11.529  -4.282   6.787  0.00  0.00    +0.015 A 
ATOM      9  C   UNL     1     -10.275  -3.818   6.393  0.00  0.00    +0.065 A 
ATOM     10  C   UNL     1      -9.246  -3.436   7.370  0.00  0.00    +0.263 A 
ATOM     11  O   UNL     1      -9.453  -3.512   8.568  0.00  0.00    -0.267 OA
ATOM     12  N   UNL     1      -8.058  -3.002   6.889  0.00  0.00    -0.280 N 
BRANCH  12  13
ATOM     13  C   UNL     1      -6.994  -2.615   7.819  0.00  0.00    +0.201 C 
BRANCH  13  14
ATOM     14  C   UNL     1      -7.120  -1.148   8.143  0.00  0.00    +0.125 A 
ATOM     15  C   UNL     1      -7.831  -0.625   9.159  0.00  0.00    +0.046 A 
ATOM     16  C   UNL     1      -7.672   0.778   9.090  0.00  0.00    +0.041 A 
ATOM     17  C   UNL     1      -6.873   1.028   8.037  0.00  0.00    +0.195 A 
ATOM     18  O   UNL     1      -6.538  -0.142   7.471  0.00  0.00    -0.466 OA
ENDBRANCH  13  14
ENDBRANCH  12  13
ENDBRANCH   1   2
BRANCH   1  19
ATOM     19  C   UNL     1      -6.426  -2.387   3.167  0.00  0.00    +0.173 C 
BRANCH  19  21
ATOM     20  N   UNL     1      -5.014  -1.859   1.205  0.00  0.00    -0.279 N 
ATOM     21  C   UNL     1      -5.138  -1.910   2.546  0.00  0.00    +0.228 C 
ATOM     22  O   UNL     1      -4.213  -1.572   3.254  0.00  0.00    -0.275 OA
ATOM     23  H   UNL     1      -5.754  -2.130   0.639  0.00  0.00    +0.155 HD
BRANCH  20  27
ATOM     24  C   UNL     1      -1.412  -0.526   0.013  0.00  0.00    -0.008 A 
ATOM     25  C   UNL     1      -2.203  -0.814  -1.037  0.00  0.00    +0.028 A 
ATOM     26  C   UNL     1      -3.524  -1.303  -0.714  0.00  0.00    +0.088 A 
ATOM     27  C   UNL     1      -3.830  -1.421   0.635  0.00  0.00    +0.086 A 
ATOM     28  S   UNL     1      -2.433  -0.916   1.416  0.00  0.00    -0.078 S 
BRANCH  24  30
ATOM     29  C   UNL     1      -0.019   1.526   0.010  0.00  0.00    +0.009 C 
ATOM     30  C   UNL     1       0.002  -0.004   0.002  0.00  0.00    +0.039 C 
ENDBRANCH  24  30
BRANCH  26  31
ATOM     31  C   UNL     1      -4.491  -1.656  -1.756  0.00  0.00    +0.342 C 
ATOM     32  O   UNL     1      -5.595  -2.064  -1.449  0.00  0.00    -0.245 OA
BRANCH  31  33
ATOM     33  O   UNL     1      -4.157  -1.528  -3.057  0.00  0.00    -0.461 OA
BRANCH  33  34
ATOM     34  C   UNL     1      -5.148  -1.890  -4.020  0.00  0.00    +0.229 C 
ATOM     35  C   UNL     1      -4.591  -1.679  -5.429  0.00  0.00    +0.048 C 
ENDBRANCH  33  34
ENDBRANCH  31  33
ENDBRANCH  26  31
ENDBRANCH  20  27
ENDBRANCH  19  21
ENDBRANCH   1  19
TORSDOF 10
