REMARK  Name = ZINC44857252
REMARK  10 active torsions:
REMARK  status: ('A' for Active; 'I' for Inactive)
REMARK    1  A    between atoms: C_1  and  C_2
REMARK    2  A    between atoms: C_3  and  N_9
REMARK    3  A    between atoms: N_9  and  C_10
REMARK    4  A    between atoms: N_9  and  S_27
REMARK    5  A    between atoms: C_10  and  C_11
REMARK    6  A    between atoms: N_13  and  C_14
REMARK    7  A    between atoms: C_14  and  C_15
REMARK    8  A    between atoms: C_18  and  C_21
REMARK    9  A    between atoms: C_21  and  N_22
REMARK   10  A    between atoms: S_27  and  C_30
REMARK                            x       y       z     vdW  Elec       q    Type
REMARK                         _______ _______ _______ _____ _____    ______ ____
ROOT
ATOM      1  C   UNL     1      -1.062   0.663  -3.687  0.00  0.00    +0.227 C 
ENDROOT
BRANCH   1   2
ATOM      2  C   UNL     1      -1.349   2.104  -3.352  0.00  0.00    +0.232 C 
ATOM      3  O   UNL     1      -0.701   2.669  -2.497  0.00  0.00    -0.274 OA
ATOM      4  N   UNL     1      -2.326   2.766  -4.004  0.00  0.00    -0.310 N 
ATOM      5  H   UNL     1      -2.845   2.314  -4.688  0.00  0.00    +0.149 HD
BRANCH   4   6
ATOM      6  C   UNL     1      -2.606   4.167  -3.679  0.00  0.00    +0.139 C 
BRANCH   6   7
ATOM      7  C   UNL     1      -3.734   4.667  -4.542  0.00  0.00    -0.030 A 
ATOM      8  C   UNL     1      -3.463   5.242  -5.770  0.00  0.00    +0.005 A 
ATOM      9  C   UNL     1      -4.499   5.701  -6.562  0.00  0.00    +0.002 A 
ATOM     10  C   UNL     1      -5.806   5.585  -6.127  0.00  0.00    -0.064 A 
ATOM     11  C   UNL     1      -6.077   5.010  -4.899  0.00  0.00    +0.002 A 
ATOM     12  C   UNL     1      -5.042   4.547  -4.109  0.00  0.00    +0.005 A 
BRANCH  10  13
ATOM     13  C   UNL     1      -6.934   6.087  -6.990  0.00  0.00    -0.043 C 
BRANCH  13  14
ATOM     14  N   UNL     1      -7.393   5.006  -7.874  0.00  0.00    +0.382 N 
ATOM     15  C   UNL     1      -8.060   3.944  -7.080  0.00  0.00    -0.078 C 
ATOM     16  C   UNL     1      -8.943   3.220  -8.127  0.00  0.00    -0.020 C 
ATOM     17  C   UNL     1      -9.438   4.380  -9.022  0.00  0.00    -0.020 C 
ATOM     18  C   UNL     1      -8.418   5.514  -8.811  0.00  0.00    -0.078 C 
ATOM     19  H   UNL     1      -6.613   4.622  -8.386  0.00  0.00    -0.081 HD
ENDBRANCH  13  14
ENDBRANCH  10  13
ENDBRANCH   6   7
ENDBRANCH   4   6
ENDBRANCH   1   2
BRANCH   1  20
ATOM     20  N   UNL     1      -0.065   0.135  -2.752  0.00  0.00    -0.194 N 
BRANCH  20  23
ATOM     21  C   UNL     1      -0.538  -2.665  -2.573  0.00  0.00    +0.047 C 
ATOM     22  C   UNL     1      -0.711  -1.749  -1.389  0.00  0.00    -0.010 A 
ATOM     23  C   UNL     1      -0.469  -0.388  -1.522  0.00  0.00    +0.056 A 
ATOM     24  C   UNL     1      -0.630   0.453  -0.428  0.00  0.00    +0.025 A 
ATOM     25  C   UNL     1      -1.030  -0.066   0.788  0.00  0.00    +0.003 A 
ATOM     26  C   UNL     1      -1.270  -1.421   0.918  0.00  0.00    +0.020 A 
ATOM     27  C   UNL     1      -1.116  -2.261  -0.171  0.00  0.00    +0.046 A 
ATOM     28 CL   UNL     1      -1.426  -3.962  -0.005  0.00  0.00    -0.083 Cl
ENDBRANCH  20  23
BRANCH  20  29
ATOM     29  S   UNL     1       1.541   0.156  -3.155  0.00  0.00    +0.075 S 
ATOM     30  O   UNL     1       1.708   1.199  -4.106  0.00  0.00    -0.150 OA
ATOM     31  O   UNL     1       2.267   0.115  -1.934  0.00  0.00    -0.150 OA
BRANCH  29  32
ATOM     32  C   UNL     1       1.887  -1.353  -3.998  0.00  0.00    +0.109 A 
ATOM     33  C   UNL     1       2.439  -2.417  -3.310  0.00  0.00    +0.029 A 
ATOM     34  C   UNL     1       2.710  -3.601  -3.971  0.00  0.00    +0.002 A 
ATOM     35  C   UNL     1       2.429  -3.720  -5.319  0.00  0.00    +0.000 A 
ATOM     36  C   UNL     1       1.876  -2.655  -6.007  0.00  0.00    +0.002 A 
ATOM     37  C   UNL     1       1.601  -1.473  -5.345  0.00  0.00    +0.029 A 
ENDBRANCH  29  32
ENDBRANCH  20  29
ENDBRANCH   1  20
TORSDOF 9
