REMARK  Name = ZINC64853928
REMARK  8 active torsions:
REMARK  status: ('A' for Active; 'I' for Inactive)
REMARK    1  A    between atoms: C_1  and  C_2
REMARK    2  A    between atoms: C_2  and  C_3
REMARK    3  A    between atoms: C_2  and  C_4
REMARK    4  A    between atoms: C_4  and  C_5
REMARK    5  A    between atoms: C_4  and  S_15
REMARK    6  A    between atoms: N_7  and  C_8
REMARK    7  A    between atoms: C_8  and  C_9
REMARK    8  A    between atoms: S_15  and  C_16
REMARK                            x       y       z     vdW  Elec       q    Type
REMARK                         _______ _______ _______ _____ _____    ______ ____
ROOT
ATOM      1  C   UNL     1      -1.466  -0.431  -0.046  0.00  0.00    +0.142 C 
ENDROOT
BRANCH   1   2
ATOM      2  C   UNL     1      -1.398  -1.929   0.107  0.00  0.00    +0.227 C 
ATOM      3  O   UNL     1      -1.554  -2.435   1.198  0.00  0.00    -0.275 OA
ATOM      4  N   UNL     1      -1.164  -2.706  -0.969  0.00  0.00    -0.310 N 
ATOM      5  H   UNL     1      -1.039  -2.301  -1.842  0.00  0.00    +0.149 HD
BRANCH   4   6
ATOM      6  C   UNL     1      -1.097  -4.162  -0.821  0.00  0.00    +0.141 C 
BRANCH   6   7
ATOM      7  C   UNL     1      -0.826  -4.792  -2.163  0.00  0.00    -0.012 A 
ATOM      8  C   UNL     1      -1.876  -5.154  -2.993  0.00  0.00    +0.008 A 
ATOM      9  C   UNL     1      -1.580  -5.730  -4.219  0.00  0.00    +0.020 A 
ATOM     10  C   UNL     1      -0.257  -5.923  -4.570  0.00  0.00    +0.111 A 
ATOM     11  N   UNL     1       0.716  -5.566  -3.755  0.00  0.00    -0.263 NA
ATOM     12  C   UNL     1       0.471  -5.010  -2.585  0.00  0.00    +0.115 A 
ENDBRANCH   6   7
ENDBRANCH   4   6
ENDBRANCH   1   2
BRANCH   1  14
ATOM     13  C   UNL     1       0.702  -0.472  -1.286  0.00  0.00    +0.009 C 
ATOM     14  C   UNL     1      -0.049   0.141  -0.102  0.00  0.00    +0.005 C 
ATOM     15  C   UNL     1      -0.118   1.660  -0.274  0.00  0.00    +0.009 C 
ENDBRANCH   1  14
BRANCH   1  16
ATOM     16  S   UNL     1      -2.349   0.281   1.370  0.00  0.00    -0.073 S 
BRANCH  16  17
ATOM     17  C   UNL     1      -4.004  -0.292   1.172  0.00  0.00    +0.192 A 
ATOM     18  N   UNL     1      -4.477  -0.986   0.160  0.00  0.00    -0.122 NA
ATOM     19  N   UNL     1      -5.725  -1.239   0.349  0.00  0.00    -0.134 NA
ATOM     20  C   UNL     1      -6.115  -0.731   1.480  0.00  0.00    +0.134 A 
ATOM     21  N   UNL     1      -5.036  -0.106   2.039  0.00  0.00    -0.306 N 
ATOM     22  C   UNL     1      -5.014   0.626   3.305  0.00  0.00    +0.125 C 
ATOM     23  C   UNL     1      -6.079   0.050   4.242  0.00  0.00    +0.022 C 
ATOM     24  C   UNL     1      -7.406   0.774   4.022  0.00  0.00    +0.002 C 
ATOM     25  C   UNL     1      -7.897   0.574   2.592  0.00  0.00    +0.008 C 
ATOM     26  C   UNL     1      -7.489  -0.810   2.092  0.00  0.00    +0.076 C 
ENDBRANCH  16  17
ENDBRANCH   1  16
TORSDOF 6
