REMARK  Name = ZINC38903672
REMARK  15 active torsions:
REMARK  status: ('A' for Active; 'I' for Inactive)
REMARK    1  A    between atoms: C_1  and  C_2
REMARK    2  A    between atoms: C_6  and  C_8
REMARK    3  A    between atoms: C_8  and  S_9
REMARK    4  A    between atoms: S_9  and  C_10
REMARK    5  A    between atoms: C_10  and  C_11
REMARK    6  A    between atoms: C_11  and  C_12
REMARK    7  A    between atoms: C_12  and  N_13
REMARK    8  A    between atoms: C_14  and  C_16
REMARK    9  A    between atoms: N_21  and  C_23
REMARK   10  A    between atoms: C_23  and  C_24
REMARK   11  A    between atoms: C_26  and  C_29
REMARK   12  A    between atoms: C_32  and  C_35
REMARK   13  A    between atoms: C_35  and  C_36
REMARK   14  A    between atoms: C_35  and  C_37
REMARK   15  A    between atoms: C_35  and  C_38
REMARK                            x       y       z     vdW  Elec       q    Type
REMARK                         _______ _______ _______ _____ _____    ______ ____
ROOT
ATOM      1  C   UNL     1       5.724  -6.393   8.653  0.00  0.00    +0.058 C 
ATOM      2  C   UNL     1       6.476  -5.082   8.904  0.00  0.00    +0.009 C 
ATOM      3  C   UNL     1       7.839  -5.398   9.527  0.00  0.00    -0.018 C 
ATOM      4  C   UNL     1       7.632  -6.202  10.812  0.00  0.00    -0.078 C 
ATOM      5  N   UNL     1       6.932  -7.455  10.502  0.00  0.00    +0.386 N 
ATOM      6  C   UNL     1       5.596  -7.162   9.970  0.00  0.00    -0.065 C 
ATOM      7  H   UNL     1       7.459  -7.973   9.815  0.00  0.00    -0.081 HD
ENDROOT
BRANCH   1   9
ATOM      8  N   UNL     1       4.217  -5.414   6.953  0.00  0.00    -0.315 N 
ATOM      9  C   UNL     1       4.351  -6.090   8.112  0.00  0.00    +0.214 C 
ATOM     10  O   UNL     1       3.366  -6.454   8.718  0.00  0.00    -0.276 OA
ATOM     11  H   UNL     1       5.005  -5.122   6.468  0.00  0.00    +0.149 HD
BRANCH   8  12
ATOM     12  C   UNL     1       2.882  -5.119   6.427  0.00  0.00    +0.105 C 
BRANCH  12  13
ATOM     13  C   UNL     1       3.011  -4.349   5.111  0.00  0.00    +0.029 C 
BRANCH  13  14
ATOM     14  C   UNL     1       1.617  -4.041   4.561  0.00  0.00    +0.071 C 
BRANCH  14  15
ATOM     15  S   UNL     1       1.770  -3.127   3.002  0.00  0.00    -0.156 S 
BRANCH  15  16
ATOM     16  C   UNL     1       0.054  -2.845   2.489  0.00  0.00    +0.104 C 
BRANCH  16  22
ATOM     17  C   UNL     1      -0.018   1.503   0.010  0.00  0.00    +0.044 C 
ATOM     18  C   UNL     1       0.002  -0.004   0.002  0.00  0.00    -0.050 A 
ATOM     19  C   UNL     1       0.006  -0.689  -1.199  0.00  0.00    +0.003 A 
ATOM     20  C   UNL     1       0.025  -2.071  -1.207  0.00  0.00    +0.001 A 
ATOM     21  C   UNL     1       0.040  -2.768  -0.013  0.00  0.00    +0.004 A 
ATOM     22  C   UNL     1       0.037  -2.084   1.188  0.00  0.00    -0.037 A 
ATOM     23  C   UNL     1       0.023  -0.702   1.195  0.00  0.00    +0.007 A 
ENDBRANCH  16  22
ENDBRANCH  15  16
ENDBRANCH  14  15
ENDBRANCH  13  14
ENDBRANCH  12  13
ENDBRANCH   8  12
ENDBRANCH   1   9
BRANCH   5  24
ATOM     24  C   UNL     1       6.805  -8.259  11.725  0.00  0.00    +0.022 C 
BRANCH  24  25
ATOM     25  C   UNL     1       8.175  -8.673  12.198  0.00  0.00    +0.211 A 
ATOM     26  N   UNL     1       8.928  -8.006  13.025  0.00  0.00    -0.193 NA
ATOM     27  C   UNL     1      10.083  -8.665  13.229  0.00  0.00    +0.202 A 
ATOM     28  N   UNL     1      10.067  -9.767  12.522  0.00  0.00    -0.056 NA
ATOM     29  O   UNL     1       8.820  -9.792  11.844  0.00  0.00    -0.340 OA
BRANCH  27  30
ATOM     30  C   UNL     1      11.192  -8.216  14.108  0.00  0.00    +0.022 A 
ATOM     31  C   UNL     1      11.084  -7.020  14.814  0.00  0.00    +0.012 A 
ATOM     32  C   UNL     1      12.118  -6.607  15.630  0.00  0.00    +0.005 A 
ATOM     33  C   UNL     1      13.260  -7.379  15.747  0.00  0.00    -0.042 A 
ATOM     34  C   UNL     1      13.372  -8.568  15.048  0.00  0.00    +0.005 A 
ATOM     35  C   UNL     1      12.342  -8.992  14.234  0.00  0.00    +0.012 A 
BRANCH  33  36
ATOM     36  C   UNL     1      14.386  -6.923  16.638  0.00  0.00    -0.013 C 
ATOM     37  C   UNL     1      13.878  -6.792  18.075  0.00  0.00    +0.015 C 
ATOM     38  C   UNL     1      15.521  -7.948  16.591  0.00  0.00    +0.015 C 
ATOM     39  C   UNL     1      14.903  -5.567  16.154  0.00  0.00    +0.015 C 
ENDBRANCH  33  36
ENDBRANCH  27  30
ENDBRANCH  24  25
ENDBRANCH   5  24
TORSDOF 11
