REMARK  Name = ZINC40320456
REMARK  3 active torsions:
REMARK  status: ('A' for Active; 'I' for Inactive)
REMARK    1  A    between atoms: C_2  and  N_22
REMARK    2  A    between atoms: C_5  and  S_8
REMARK    3  A    between atoms: S_8  and  N_11
REMARK                            x       y       z     vdW  Elec       q    Type
REMARK                         _______ _______ _______ _____ _____    ______ ____
ROOT
ATOM      1  S   UNL     1       1.229  -2.443  -0.023  0.00  0.00    +0.063 S 
ATOM      2  O   UNL     1      -0.017  -2.860  -0.564  0.00  0.00    -0.153 OA
ATOM      3  O   UNL     1       2.473  -2.832  -0.588  0.00  0.00    -0.153 OA
ENDROOT
BRANCH   1   4
ATOM      4  N   UNL     1       1.249  -2.941   1.556  0.00  0.00    -0.180 NA
ATOM      5  C   UNL     1       2.527  -3.143   2.252  0.00  0.00    +0.091 C 
ATOM      6  C   UNL     1       2.474  -2.489   3.643  0.00  0.00    -0.061 C 
ATOM      7  N   UNL     1       1.276  -2.971   4.316  0.00  0.00    +0.383 N 
ATOM      8  C   UNL     1       1.116  -2.543   5.708  0.00  0.00    -0.078 C 
ATOM      9  C   UNL     1      -0.410  -2.457   5.954  0.00  0.00    -0.020 C 
ATOM     10  C   UNL     1      -1.057  -2.771   4.577  0.00  0.00    -0.016 C 
ATOM     11  C   UNL     1       0.086  -2.437   3.602  0.00  0.00    -0.053 C 
ATOM     12  C   UNL     1      -0.017  -3.179   2.278  0.00  0.00    +0.094 C 
ATOM     13  H   UNL     1       1.258  -3.979   4.284  0.00  0.00    -0.081 HD
ENDBRANCH   1   4
BRANCH   1  18
ATOM     14  C   UNL     1      -0.017   1.378   0.010  0.00  0.00    +0.040 A 
ATOM     15  C   UNL     1       1.177   2.087   0.002  0.00  0.00    +0.027 A 
ATOM     16  C   UNL     1       2.387   1.405  -0.013  0.00  0.00    +0.040 A 
ATOM     17  C   UNL     1       2.400   0.023  -0.021  0.00  0.00    +0.047 A 
ATOM     18  C   UNL     1       1.209  -0.681  -0.013  0.00  0.00    +0.133 A 
ATOM     19  C   UNL     1       0.002  -0.004   0.002  0.00  0.00    +0.047 A 
ATOM     20 BR   UNL     1      -1.623  -0.971   0.013  0.00  0.00    -0.048 Br
ATOM     21 BR   UNL     1       4.046  -0.906  -0.042  0.00  0.00    -0.048 Br
BRANCH  15  22
ATOM     22  N   UNL     1       1.162   3.484   0.009  0.00  0.00    -0.358 N 
ATOM     23  H   UNL     1       0.316   3.959   0.019  0.00  0.00    +0.142 HD
ATOM     24  H   UNL     1       1.996   3.978   0.004  0.00  0.00    +0.142 HD
ENDBRANCH  15  22
ENDBRANCH   1  18
TORSDOF 3
