REMARK  Name = ZINC50632609
REMARK  4 active torsions:
REMARK  status: ('A' for Active; 'I' for Inactive)
REMARK    1  A    between atoms: C_1  and  C_2
REMARK    2  A    between atoms: C_5  and  N_9
REMARK    3  A    between atoms: N_9  and  S_10
REMARK    4  A    between atoms: S_10  and  C_13
REMARK                            x       y       z     vdW  Elec       q    Type
REMARK                         _______ _______ _______ _____ _____    ______ ____
ROOT
ATOM      1  S   UNL     1       0.077  -5.005   1.407  0.00  0.00    +0.094 S 
ATOM      2  O   UNL     1       1.322  -4.718   2.029  0.00  0.00    -0.148 OA
ATOM      3  O   UNL     1      -1.168  -4.751   2.042  0.00  0.00    -0.148 OA
ENDROOT
BRANCH   1   4
ATOM      4  C   UNL     1       0.098  -6.721   1.006  0.00  0.00    +0.146 A 
ATOM      5  C   UNL     1      -1.085  -7.424   0.845  0.00  0.00    +0.144 A 
ATOM      6  N   UNL     1      -1.035  -8.711   0.544  0.00  0.00    -0.221 NA
ATOM      7  C   UNL     1       0.129  -9.327   0.397  0.00  0.00    +0.213 A 
ATOM      8  N   UNL     1       1.278  -8.684   0.544  0.00  0.00    -0.221 NA
ATOM      9  C   UNL     1       1.298  -7.394   0.839  0.00  0.00    +0.144 A 
ATOM     10  N   UNL     1       0.145 -10.675   0.082  0.00  0.00    -0.327 N 
ATOM     11  H   UNL     1      -0.689 -11.157  -0.028  0.00  0.00    +0.145 HD
ATOM     12  H   UNL     1       0.991 -11.137  -0.029  0.00  0.00    +0.145 HD
ENDBRANCH   1   4
BRANCH   1  13
ATOM     13  N   UNL     1       0.059  -4.168  -0.022  0.00  0.00    -0.098 NA
BRANCH  13  18
ATOM     14  C   UNL     1      -0.018   1.503   0.010  0.00  0.00    +0.045 C 
ATOM     15  C   UNL     1       0.002  -0.004   0.002  0.00  0.00    -0.032 A 
ATOM     16  C   UNL     1       0.006  -0.688  -1.200  0.00  0.00    +0.007 A 
ATOM     17  C   UNL     1       0.025  -2.068  -1.212  0.00  0.00    +0.027 A 
ATOM     18  C   UNL     1       0.040  -2.772  -0.013  0.00  0.00    +0.076 A 
ATOM     19  C   UNL     1       0.037  -2.083   1.193  0.00  0.00    +0.047 A 
ATOM     20  C   UNL     1       0.023  -0.701   1.197  0.00  0.00    +0.046 A 
ATOM     21 CL   UNL     1       0.025   0.161   2.704  0.00  0.00    -0.083 Cl
ENDBRANCH  13  18
ENDBRANCH   1  13
TORSDOF 3
