REMARK  Name = ZINC31057522
REMARK  12 active torsions:
REMARK  status: ('A' for Active; 'I' for Inactive)
REMARK    1  A    between atoms: C_1  and  C_2
REMARK    2  A    between atoms: C_2  and  C_3
REMARK    3  A    between atoms: C_2  and  C_4
REMARK    4  A    between atoms: C_4  and  C_5
REMARK    5  A    between atoms: C_5  and  C_7
REMARK    6  A    between atoms: C_5  and  N_15
REMARK    7  A    between atoms: C_10  and  O_13
REMARK    8  A    between atoms: O_13  and  C_14
REMARK    9  A    between atoms: C_16  and  C_18
REMARK   10  A    between atoms: N_23  and  C_25
REMARK   11  A    between atoms: C_25  and  C_26
REMARK   12  A    between atoms: C_28  and  C_31
REMARK                            x       y       z     vdW  Elec       q    Type
REMARK                         _______ _______ _______ _____ _____    ______ ____
ROOT
ATOM      1  C   UNL     1       0.324   1.329   0.253  0.00  0.00    +0.058 C 
ATOM      2  C   UNL     1      -0.322   1.859  -1.030  0.00  0.00    +0.009 C 
ATOM      3  C   UNL     1       0.554   1.482  -2.228  0.00  0.00    -0.018 C 
ATOM      4  C   UNL     1       1.959   2.055  -2.026  0.00  0.00    -0.078 C 
ATOM      5  N   UNL     1       2.535   1.518  -0.786  0.00  0.00    +0.386 N 
ATOM      6  C   UNL     1       1.736   1.907   0.383  0.00  0.00    -0.065 C 
ATOM      7  H   UNL     1       2.515   0.420  -0.856  0.00  0.00    -0.081 HD
ENDROOT
BRANCH   1   9
ATOM      8  N   UNL     1      -1.786   1.352   1.542  0.00  0.00    -0.308 N 
ATOM      9  C   UNL     1      -0.501   1.746   1.442  0.00  0.00    +0.215 C 
ATOM     10  O   UNL     1      -0.009   2.436   2.310  0.00  0.00    -0.276 OA
ATOM     11  H   UNL     1      -2.258   0.799   0.716  0.00  0.00    +0.149 HD
BRANCH   8  12
ATOM     12  C   UNL     1      -2.556   1.661   2.750  0.00  0.00    +0.103 C 
BRANCH  12  13
ATOM     13  C   UNL     1      -4.028   1.619   2.432  0.00  0.00    -0.027 A 
ATOM     14  C   UNL     1      -4.525   0.640   1.592  0.00  0.00    +0.009 A 
ATOM     15  C   UNL     1      -5.875   0.596   1.303  0.00  0.00    +0.046 A 
ATOM     16  C   UNL     1      -6.731   1.541   1.849  0.00  0.00    +0.120 A 
ATOM     17  C   UNL     1      -6.229   2.526   2.688  0.00  0.00    +0.046 A 
ATOM     18  C   UNL     1      -4.879   2.562   2.978  0.00  0.00    +0.009 A 
BRANCH  16  19
ATOM     19  O   UNL     1      -8.059   1.503   1.563  0.00  0.00    -0.495 OA
ATOM     20  C   UNL     1      -8.505   0.462   0.692  0.00  0.00    +0.277 C 
ENDBRANCH  16  19
ENDBRANCH  12  13
BRANCH  12  21
ATOM     21  C   UNL     1      -2.238   0.630   3.835  0.00  0.00    +0.030 C 
BRANCH  21  23
ATOM     22  C   UNL     1      -2.730  -0.069   6.183  0.00  0.00    +0.007 C 
ATOM     23  C   UNL     1      -2.928   1.033   5.139  0.00  0.00    -0.015 C 
ATOM     24  C   UNL     1      -2.321   2.339   5.655  0.00  0.00    +0.007 C 
ENDBRANCH  21  23
ENDBRANCH  12  21
ENDBRANCH   8  12
ENDBRANCH   1   9
BRANCH   5  25
ATOM     25  C   UNL     1       3.934   1.937  -0.631  0.00  0.00    +0.022 C 
BRANCH  25  26
ATOM     26  C   UNL     1       4.664   1.746  -1.935  0.00  0.00    +0.211 A 
ATOM     27  N   UNL     1       4.775   2.624  -2.900  0.00  0.00    -0.192 NA
ATOM     28  C   UNL     1       5.511   2.018  -3.861  0.00  0.00    +0.209 A 
ATOM     29  N   UNL     1       5.794   0.814  -3.428  0.00  0.00    -0.056 NA
ATOM     30  O   UNL     1       5.314   0.645  -2.326  0.00  0.00    -0.340 OA
BRANCH  28  31
ATOM     31  C   UNL     1       5.916   2.602  -5.156  0.00  0.00    +0.060 A 
ATOM     32  C   UNL     1       6.657   2.041  -6.162  0.00  0.00    +0.019 A 
ATOM     33  C   UNL     1       6.907   2.785  -7.293  0.00  0.00    +0.008 A 
ATOM     34  C   UNL     1       6.424   4.052  -7.373  0.00  0.00    +0.046 A 
ATOM     35  S   UNL     1       5.573   4.227  -5.813  0.00  0.00    -0.093 S 
ENDBRANCH  28  31
ENDBRANCH  25  26
ENDBRANCH   5  25
TORSDOF 9
