REMARK  Name = ZINC51117946
REMARK  6 active torsions:
REMARK  status: ('A' for Active; 'I' for Inactive)
REMARK    1  A    between atoms: C_1  and  C_2
REMARK    2  A    between atoms: C_2  and  C_4
REMARK    3  A    between atoms: C_2  and  N_11
REMARK    4  A    between atoms: C_12  and  C_14
REMARK    5  A    between atoms: C_16  and  N_20
REMARK    6  A    between atoms: N_20  and  N_21
REMARK                            x       y       z     vdW  Elec       q    Type
REMARK                         _______ _______ _______ _____ _____    ______ ____
ROOT
ATOM      1  N   UNL     1       0.688  -0.476  -1.203  0.00  0.00    -0.304 N 
ATOM      2  C   UNL     1       0.006  -0.608  -2.358  0.00  0.00    +0.263 C 
ATOM      3  O   UNL     1      -1.177  -0.335  -2.400  0.00  0.00    -0.269 OA
ATOM      4  H   UNL     1       1.632  -0.695  -1.170  0.00  0.00    +0.150 HD
ENDROOT
BRANCH   2   5
ATOM      5  C   UNL     1       0.700  -1.086  -3.578  0.00  0.00    +0.127 A 
ATOM      6  C   UNL     1      -0.008  -1.214  -4.767  0.00  0.00    +0.057 A 
ATOM      7  C   UNL     1       0.660  -1.665  -5.905  0.00  0.00    +0.045 A 
ATOM      8  C   UNL     1       2.016  -1.969  -5.800  0.00  0.00    +0.044 A 
ATOM      9  C   UNL     1       2.650  -1.815  -4.581  0.00  0.00    +0.113 A 
ATOM     10  N   UNL     1       1.993  -1.383  -3.525  0.00  0.00    -0.250 NA
BRANCH   7  11
ATOM     11  N   UNL     1      -0.011  -1.808  -7.117  0.00  0.00    -0.283 N 
ATOM     12  H   UNL     1      -0.955  -1.593  -7.177  0.00  0.00    +0.166 HD
BRANCH  11  13
ATOM     13  N   UNL     1       0.660  -2.250  -8.221  0.00  0.00    -0.257 NA
ATOM     14  H   UNL     1       1.100  -3.141  -8.044  0.00  0.00    +0.140 HD
ATOM     15  H   UNL     1       0.046  -2.303  -9.020  0.00  0.00    +0.140 HD
ENDBRANCH  11  13
ENDBRANCH   7  11
ENDBRANCH   2   5
BRANCH   1  17
ATOM     16  C   UNL     1      -0.019   1.526   0.010  0.00  0.00    +0.033 C 
ATOM     17  C   UNL     1       0.002  -0.004   0.002  0.00  0.00    +0.100 C 
BRANCH  17  18
ATOM     18  C   UNL     1       0.731  -0.503   1.223  0.00  0.00    -0.027 A 
ATOM     19  C   UNL     1       2.113  -0.514   1.246  0.00  0.00    +0.006 A 
ATOM     20  C   UNL     1       2.782  -0.971   2.366  0.00  0.00    +0.015 A 
ATOM     21  C   UNL     1       2.068  -1.418   3.463  0.00  0.00    +0.018 A 
ATOM     22  C   UNL     1       0.685  -1.408   3.439  0.00  0.00    +0.015 A 
ATOM     23  C   UNL     1       0.017  -0.945   2.321  0.00  0.00    +0.006 A 
ATOM     24 BR   UNL     1       2.983  -2.045   4.995  0.00  0.00    -0.050 Br
ENDBRANCH  17  18
ENDBRANCH   1  17
TORSDOF 5
