REMARK  Name = ZINC66244119
REMARK  8 active torsions:
REMARK  status: ('A' for Active; 'I' for Inactive)
REMARK    1  A    between atoms: C_4  and  C_7
REMARK    2  A    between atoms: C_7  and  N_8
REMARK    3  A    between atoms: N_11  and  C_12
REMARK    4  A    between atoms: C_12  and  C_13
REMARK    5  A    between atoms: C_13  and  C_15
REMARK    6  A    between atoms: C_13  and  O_26
REMARK    7  A    between atoms: C_18  and  O_21
REMARK    8  A    between atoms: O_21  and  C_22
REMARK                            x       y       z     vdW  Elec       q    Type
REMARK                         _______ _______ _______ _____ _____    ______ ____
ROOT
ATOM      1  N   UNL     1       4.152  -0.952   1.338  0.00  0.00    -0.354 N 
ATOM      2  C   UNL     1       5.334  -1.613   1.573  0.00  0.00    +0.169 C 
ATOM      3  N   UNL     1       6.063  -2.022   0.573  0.00  0.00    -0.371 N 
ATOM      4  N   UNL     1       5.747  -1.844   2.864  0.00  0.00    -0.355 N 
ATOM      5  H   UNL     1       3.610  -0.648   2.082  0.00  0.00    +0.163 HD
ATOM      6  H   UNL     1       6.897  -2.488   0.739  0.00  0.00    +0.159 HD
ATOM      7  H   UNL     1       5.205  -1.540   3.609  0.00  0.00    +0.162 HD
ATOM      8  H   UNL     1       5.771  -1.860  -0.338  0.00  0.00    +0.159 HD
ENDROOT
BRANCH   1   9
ATOM      9  C   UNL     1       3.711  -0.707  -0.038  0.00  0.00    +0.151 C 
BRANCH   9  13
ATOM     10  C   UNL     1      -0.017   1.378   0.010  0.00  0.00    +0.000 A 
ATOM     11  C   UNL     1       1.171   2.086   0.002  0.00  0.00    +0.000 A 
ATOM     12  C   UNL     1       2.377   1.411  -0.013  0.00  0.00    +0.005 A 
ATOM     13  C   UNL     1       2.396   0.029  -0.020  0.00  0.00    -0.028 A 
ATOM     14  C   UNL     1       1.208  -0.679  -0.012  0.00  0.00    +0.005 A 
ATOM     15  C   UNL     1       0.002  -0.004   0.002  0.00  0.00    +0.000 A 
ENDBRANCH   9  13
ENDBRANCH   1   9
BRANCH   4  16
ATOM     16  C   UNL     1       7.007  -2.548   3.115  0.00  0.00    +0.151 C 
BRANCH  16  17
ATOM     17  C   UNL     1       7.231  -2.672   4.624  0.00  0.00    +0.164 C 
BRANCH  17  18
ATOM     18  C   UNL     1       8.527  -3.396   4.882  0.00  0.00    -0.017 A 
ATOM     19  C   UNL     1       9.718  -2.695   4.902  0.00  0.00    +0.010 A 
ATOM     20  C   UNL     1      10.907  -3.357   5.138  0.00  0.00    +0.046 A 
ATOM     21  C   UNL     1      10.905  -4.727   5.356  0.00  0.00    +0.130 A 
ATOM     22  C   UNL     1       9.709  -5.429   5.335  0.00  0.00    +0.046 A 
ATOM     23  C   UNL     1       8.522  -4.761   5.104  0.00  0.00    +0.010 A 
BRANCH  21  24
ATOM     24  O   UNL     1      12.074  -5.380   5.587  0.00  0.00    -0.406 OA
BRANCH  24  25
ATOM     25  C   UNL     1      11.997  -6.791   5.803  0.00  0.00    +0.575 C 
ATOM     26  F   UNL     1      11.440  -7.405   4.676  0.00  0.00    -0.133 F 
ATOM     27  F   UNL     1      13.281  -7.300   6.025  0.00  0.00    -0.133 F 
ATOM     28  F   UNL     1      11.194  -7.049   6.919  0.00  0.00    -0.133 F 
ENDBRANCH  24  25
ENDBRANCH  21  24
ENDBRANCH  17  18
BRANCH  17  29
ATOM     29  O   UNL     1       7.290  -1.368   5.205  0.00  0.00    -0.385 OA
ATOM     30  H   UNL     1       8.002  -0.813   4.856  0.00  0.00    +0.210 HD
ENDBRANCH  17  29
ENDBRANCH  16  17
ENDBRANCH   4  16
TORSDOF 8
