REMARK  Name = ZINC39696251
REMARK  9 active torsions:
REMARK  status: ('A' for Active; 'I' for Inactive)
REMARK    1  A    between atoms: C_1  and  C_2
REMARK    2  A    between atoms: C_2  and  C_3
REMARK    3  A    between atoms: C_6  and  C_9
REMARK    4  A    between atoms: C_9  and  C_11
REMARK    5  A    between atoms: C_9  and  N_12
REMARK    6  A    between atoms: C_13  and  C_15
REMARK    7  A    between atoms: C_26  and  C_28
REMARK    8  A    between atoms: C_31  and  O_35
REMARK    9  A    between atoms: O_35  and  C_36
REMARK                            x       y       z     vdW  Elec       q    Type
REMARK                         _______ _______ _______ _____ _____    ______ ____
ROOT
ATOM      1  C   UNL     1       5.303  -0.013  -6.413  0.00  0.00    +0.100 C 
ATOM      2  C   UNL     1       5.467   1.450  -5.944  0.00  0.00    +0.121 C 
ATOM      3  N   UNL     1       6.421   2.048  -6.908  0.00  0.00    -0.296 N 
ATOM      4  C   UNL     1       6.029   1.475  -8.218  0.00  0.00    +0.115 C 
ATOM      5  C   UNL     1       5.672   0.008  -7.906  0.00  0.00    -0.004 C 
ATOM      6  C   UNL     1       4.481  -0.435  -8.751  0.00  0.00    -0.010 C 
ATOM      7  C   UNL     1       4.890  -0.463 -10.226  0.00  0.00    -0.082 C 
ATOM      8  N   UNL     1       6.015  -1.388 -10.407  0.00  0.00    +0.379 N 
ATOM      9  C   UNL     1       7.186  -0.903  -9.665  0.00  0.00    -0.082 C 
ATOM     10  C   UNL     1       6.874  -0.894  -8.166  0.00  0.00    -0.010 C 
ATOM     11  C   UNL     1       7.419   2.917  -6.652  0.00  0.00    +0.247 C 
ATOM     12  O   UNL     1       7.700   3.198  -5.503  0.00  0.00    -0.270 OA
ATOM     13  H   UNL     1       5.757  -2.301 -10.066  0.00  0.00    -0.086 HD
ATOM     14  H   UNL     1       6.243  -1.450 -11.388  0.00  0.00    -0.086 HD
ENDROOT
BRANCH  11  15
ATOM     15  C   UNL     1       8.171   3.527  -7.766  0.00  0.00    +0.040 A 
ATOM     16  C   UNL     1       7.612   3.572  -9.046  0.00  0.00    +0.036 A 
ATOM     17  C   UNL     1       8.317   4.142 -10.084  0.00  0.00    +0.085 A 
ATOM     18  C   UNL     1       9.582   4.672  -9.858  0.00  0.00    +0.157 A 
ATOM     19  C   UNL     1      10.142   4.630  -8.586  0.00  0.00    +0.085 A 
ATOM     20  C   UNL     1       9.440   4.066  -7.542  0.00  0.00    +0.036 A 
ATOM     21 CL   UNL     1      11.722   5.292  -8.311  0.00  0.00    -0.080 Cl
ATOM     22 CL   UNL     1       7.624   4.199 -11.674  0.00  0.00    -0.080 Cl
BRANCH  18  23
ATOM     23  O   UNL     1      10.274   5.233 -10.883  0.00  0.00    -0.492 OA
ATOM     24  C   UNL     1      10.084   6.631 -11.107  0.00  0.00    +0.277 C 
ENDBRANCH  18  23
ENDBRANCH  11  15
BRANCH   1  26
ATOM     25  N   UNL     1       3.609  -1.763  -5.982  0.00  0.00    -0.308 N 
ATOM     26  C   UNL     1       3.878  -0.466  -6.231  0.00  0.00    +0.219 C 
ATOM     27  O   UNL     1       2.972   0.337  -6.309  0.00  0.00    -0.275 OA
ATOM     28  H   UNL     1       4.334  -2.405  -5.920  0.00  0.00    +0.149 HD
BRANCH  25  29
ATOM     29  C   UNL     1       2.224  -2.203  -5.805  0.00  0.00    +0.100 C 
ATOM     30  C   UNL     1       1.600  -2.489  -7.173  0.00  0.00    +0.033 C 
BRANCH  29  34
ATOM     31  C   UNL     1       2.149  -5.759  -3.439  0.00  0.00    -0.048 A 
ATOM     32  C   UNL     1       1.193  -4.779  -3.245  0.00  0.00    +0.004 A 
ATOM     33  C   UNL     1       1.217  -3.629  -4.010  0.00  0.00    +0.006 A 
ATOM     34  C   UNL     1       2.198  -3.457  -4.970  0.00  0.00    -0.027 A 
ATOM     35  C   UNL     1       3.154  -4.436  -5.163  0.00  0.00    +0.006 A 
ATOM     36  C   UNL     1       3.133  -5.585  -4.394  0.00  0.00    +0.004 A 
BRANCH  31  38
ATOM     37  C   UNL     1       2.957  -6.802  -1.339  0.00  0.00    +0.009 C 
ATOM     38  C   UNL     1       2.123  -7.013  -2.604  0.00  0.00    +0.032 C 
ENDBRANCH  31  38
ENDBRANCH  29  34
ENDBRANCH  25  29
ENDBRANCH   1  26
TORSDOF 6
