REMARK  Name = ZINC15945201
REMARK  7 active torsions:
REMARK  status: ('A' for Active; 'I' for Inactive)
REMARK    1  A    between atoms: C_1  and  C_2
REMARK    2  A    between atoms: C_2  and  C_3
REMARK    3  A    between atoms: C_2  and  C_4
REMARK    4  A    between atoms: C_2  and  C_5
REMARK    5  A    between atoms: C_17  and  C_20
REMARK    6  A    between atoms: C_23  and  C_25
REMARK    7  A    between atoms: C_29  and  N_31
REMARK                            x       y       z     vdW  Elec       q    Type
REMARK                         _______ _______ _______ _____ _____    ______ ____
ROOT
ATOM      1  C   UNL     1      -2.729  -4.397   7.005  0.00  0.00    -0.000 C 
ATOM      2  C   UNL     1      -4.129  -4.828   6.557  0.00  0.00    +0.009 C 
ATOM      3  C   UNL     1      -4.452  -4.209   5.196  0.00  0.00    +0.037 C 
ATOM      4  C   UNL     1      -3.319  -4.531   4.227  0.00  0.00    -0.023 A 
ATOM      5  C   UNL     1      -2.107  -4.918   4.683  0.00  0.00    -0.004 A 
ATOM      6  S   UNL     1      -1.131  -5.178   3.226  0.00  0.00    -0.078 S 
ATOM      7  C   UNL     1      -2.303  -4.778   2.044  0.00  0.00    +0.080 A 
ATOM      8  C   UNL     1      -3.450  -4.449   2.781  0.00  0.00    +0.068 A 
ATOM      9  C   UNL     1      -4.661  -4.058   2.023  0.00  0.00    +0.248 C 
ATOM     10  O   UNL     1      -5.738  -3.924   2.573  0.00  0.00    -0.270 OA
ATOM     11  N   UNL     1      -4.519  -3.856   0.695  0.00  0.00    -0.287 N 
ATOM     12  C   UNL     1      -3.230  -3.844   0.012  0.00  0.00    +0.227 C 
ATOM     13  N   UNL     1      -2.264  -4.739   0.675  0.00  0.00    -0.314 N 
ATOM     14  C   UNL     1      -1.690  -5.088   6.111  0.00  0.00    +0.046 C 
ATOM     15  H   UNL     1      -5.319  -3.711   0.166  0.00  0.00    +0.151 HD
ATOM     16  H   UNL     1      -1.633  -5.273   0.169  0.00  0.00    +0.149 HD
ENDROOT
BRANCH  12  17
ATOM     17  C   UNL     1      -2.684  -2.440   0.015  0.00  0.00    +0.144 A 
ATOM     18  C   UNL     1      -3.419  -1.311   0.029  0.00  0.00    +0.049 A 
ATOM     19  C   UNL     1      -2.516  -0.229   0.026  0.00  0.00    +0.050 A 
ATOM     20  C   UNL     1      -1.266  -0.764   0.011  0.00  0.00    +0.135 A 
ATOM     21  O   UNL     1      -1.383  -2.105  -0.001  0.00  0.00    -0.456 OA
BRANCH  20  22
ATOM     22  C   UNL     1       0.002  -0.004   0.002  0.00  0.00    +0.019 A 
ATOM     23  C   UNL     1      -0.017   1.392   0.010  0.00  0.00    +0.012 A 
ATOM     24  C   UNL     1       1.170   2.095   0.002  0.00  0.00    +0.003 A 
ATOM     25  C   UNL     1       2.378   1.419  -0.013  0.00  0.00    +0.033 A 
ATOM     26  C   UNL     1       2.404   0.036  -0.021  0.00  0.00    +0.127 A 
ATOM     27  C   UNL     1       1.224  -0.679  -0.013  0.00  0.00    +0.044 A 
BRANCH  26  28
ATOM     28  N   UNL     1       3.700  -0.678  -0.037  0.00  0.00    +0.056 N 
ATOM     29  O   UNL     1       3.724  -1.896  -0.045  0.00  0.00    -0.126 OA
ATOM     30  O   UNL     1       4.742  -0.048  -0.044  0.00  0.00    -0.126 OA
ENDBRANCH  26  28
ENDBRANCH  20  22
ENDBRANCH  12  17
BRANCH   1  32
ATOM     31  C   UNL     1      -1.103  -4.394   8.902  0.00  0.00    +0.011 C 
ATOM     32  C   UNL     1      -2.508  -4.809   8.462  0.00  0.00    -0.035 C 
ATOM     33  C   UNL     1      -3.545  -4.119   9.351  0.00  0.00    +0.011 C 
ATOM     34  C   UNL     1      -2.655  -6.327   8.591  0.00  0.00    +0.011 C 
ENDBRANCH   1  32
TORSDOF 4
