REMARK  Name = ZINC63376351
REMARK  8 active torsions:
REMARK  status: ('A' for Active; 'I' for Inactive)
REMARK    1  A    between atoms: C_1  and  C_2
REMARK    2  A    between atoms: C_2  and  C_3
REMARK    3  A    between atoms: C_3  and  N_4
REMARK    4  A    between atoms: C_5  and  C_7
REMARK    5  A    between atoms: C_7  and  C_9
REMARK    6  A    between atoms: C_7  and  N_19
REMARK    7  A    between atoms: C_9  and  C_10
REMARK    8  A    between atoms: C_20  and  O_31
REMARK                            x       y       z     vdW  Elec       q    Type
REMARK                         _______ _______ _______ _____ _____    ______ ____
ROOT
ATOM      1  C   UNL     1       1.341  -4.130  -2.293  0.00  0.00    +0.170 C 
ENDROOT
BRANCH   1   2
ATOM      2  N   UNL     1       2.027  -4.602  -3.498  0.00  0.00    -0.244 N 
ATOM      3  C   UNL     1       3.225  -5.432  -3.365  0.00  0.00    +0.300 C 
ATOM      4  N   UNL     1       4.153  -5.168  -4.471  0.00  0.00    -0.303 N 
ATOM      5  C   UNL     1       3.643  -5.054  -5.760  0.00  0.00    +0.042 A 
ATOM      6  C   UNL     1       4.396  -5.387  -6.873  0.00  0.00    +0.024 A 
ATOM      7  C   UNL     1       3.850  -5.246  -8.135  0.00  0.00    +0.002 A 
ATOM      8  C   UNL     1       2.557  -4.773  -8.294  0.00  0.00    +0.001 A 
ATOM      9  C   UNL     1       1.792  -4.441  -7.195  0.00  0.00    +0.015 A 
ATOM     10  C   UNL     1       2.328  -4.583  -5.917  0.00  0.00    +0.058 A 
ATOM     11  C   UNL     1       1.540  -4.269  -4.711  0.00  0.00    +0.252 C 
ATOM     12  O   UNL     1       0.464  -3.712  -4.808  0.00  0.00    -0.270 OA
ATOM     13  H   UNL     1       5.104  -5.076  -4.306  0.00  0.00    +0.150 HD
BRANCH   3  14
ATOM     14  O   UNL     1       2.850  -6.811  -3.385  0.00  0.00    -0.359 OA
ATOM     15  H   UNL     1       3.594  -7.422  -3.301  0.00  0.00    +0.213 HD
ENDBRANCH   3  14
ENDBRANCH   1   2
BRANCH   1  17
ATOM     16  N   UNL     1       0.738  -1.962  -1.265  0.00  0.00    -0.314 N 
ATOM     17  C   UNL     1       1.321  -2.623  -2.285  0.00  0.00    +0.234 C 
ATOM     18  O   UNL     1       1.829  -2.004  -3.196  0.00  0.00    -0.274 OA
ATOM     19  H   UNL     1       0.332  -2.457  -0.536  0.00  0.00    +0.149 HD
BRANCH  16  20
ATOM     20  C   UNL     1       0.718  -0.497  -1.257  0.00  0.00    +0.104 C 
BRANCH  20  22
ATOM     21  C   UNL     1      -0.019   1.526   0.010  0.00  0.00    +0.005 C 
ATOM     22  C   UNL     1       0.002  -0.004   0.002  0.00  0.00    +0.015 C 
ENDBRANCH  20  22
ENDBRANCH  16  20
ENDBRANCH   1  17
BRANCH   1  23
ATOM     23  C   UNL     1      -0.094  -4.659  -2.282  0.00  0.00    +0.065 C 
BRANCH  23  24
ATOM     24  C   UNL     1      -0.074  -6.162  -2.167  0.00  0.00    -0.039 C 
ATOM     25  C   UNL     1      -0.185  -6.891  -1.033  0.00  0.00    -0.001 A 
ATOM     26  C   UNL     1      -0.350  -6.519   0.377  0.00  0.00    +0.010 A 
ATOM     27  C   UNL     1      -0.433  -7.497   1.308  0.00  0.00    +0.001 A 
ATOM     28  C   UNL     1      -0.365  -8.853   0.961  0.00  0.00    +0.002 A 
ATOM     29  C   UNL     1      -0.214  -9.273  -0.313  0.00  0.00    +0.026 A 
ATOM     30  C   UNL     1      -0.116  -8.331  -1.374  0.00  0.00    +0.043 A 
ATOM     31  N   UNL     1       0.032  -8.484  -2.667  0.00  0.00    -0.380 N 
ATOM     32  C   UNL     1       0.067  -7.159  -3.295  0.00  0.00    +0.144 C 
ATOM     33  H   UNL     1       0.102  -9.333  -3.132  0.00  0.00    +0.160 HD
ENDBRANCH  23  24
ENDBRANCH   1  23
TORSDOF 7
