REMARK  Name = ZINC35486200
REMARK  18 active torsions:
REMARK  status: ('A' for Active; 'I' for Inactive)
REMARK    1  A    between atoms: C_1  and  C_2
REMARK    2  A    between atoms: C_2  and  N_3
REMARK    3  A    between atoms: N_3  and  C_4
REMARK    4  A    between atoms: N_3  and  C_6
REMARK    5  A    between atoms: C_4  and  C_5
REMARK    6  A    between atoms: C_6  and  C_7
REMARK    7  A    between atoms: C_7  and  N_8
REMARK    8  A    between atoms: C_9  and  C_25
REMARK    9  A    between atoms: C_16  and  C_24
REMARK   10  A    between atoms: C_28  and  O_34
REMARK   11  A    between atoms: C_29  and  O_31
REMARK   12  A    between atoms: O_31  and  C_32
REMARK   13  A    between atoms: C_32  and  C_33
REMARK   14  A    between atoms: O_34  and  C_35
REMARK   15  A    between atoms: C_35  and  C_36
REMARK   16  A    between atoms: C_36  and  C_37
REMARK   17  A    between atoms: C_37  and  C_38
REMARK   18  A    between atoms: C_37  and  C_39
REMARK                            x       y       z     vdW  Elec       q    Type
REMARK                         _______ _______ _______ _____ _____    ______ ____
ROOT
ATOM      1  N   UNL     1      -0.803  -3.594   2.129  0.00  0.00    -0.285 N 
ATOM      2  C   UNL     1      -1.882  -4.286   2.852  0.00  0.00    +0.145 C 
ATOM      3  C   UNL     1      -1.471  -5.720   2.923  0.00  0.00    +0.072 A 
ATOM      4  C   UNL     1      -2.128  -6.885   3.526  0.00  0.00    +0.199 A 
ATOM      5  O   UNL     1      -3.272  -6.863   3.945  0.00  0.00    -0.287 OA
ATOM      6  C   UNL     1      -1.267  -8.093   3.576  0.00  0.00    +0.065 A 
ATOM      7  C   UNL     1      -1.670  -9.219   4.293  0.00  0.00    +0.018 A 
ATOM      8  C   UNL     1      -0.863 -10.322   4.334  0.00  0.00    -0.050 A 
ATOM      9  C   UNL     1       0.353 -10.323   3.665  0.00  0.00    +0.007 A 
ATOM     10  C   UNL     1       0.766  -9.221   2.950  0.00  0.00    +0.047 A 
ATOM     11  C   UNL     1      -0.040  -8.084   2.891  0.00  0.00    +0.139 A 
ATOM     12  O   UNL     1       0.380  -7.016   2.175  0.00  0.00    -0.450 OA
ATOM     13  C   UNL     1      -0.266  -5.839   2.292  0.00  0.00    +0.199 A 
ATOM     14  C   UNL     1       0.134  -4.508   1.802  0.00  0.00    +0.283 C 
ATOM     15  O   UNL     1       1.158  -4.269   1.194  0.00  0.00    -0.267 OA
ATOM     16  C   UNL     1      -1.295 -11.540   5.108  0.00  0.00    +0.044 C 
ENDROOT
BRANCH   2  17
ATOM     17  C   UNL     1      -2.028  -3.716   4.239  0.00  0.00    -0.019 A 
ATOM     18  C   UNL     1      -0.902  -3.377   4.967  0.00  0.00    +0.009 A 
ATOM     19  C   UNL     1      -1.031  -2.853   6.240  0.00  0.00    +0.050 A 
ATOM     20  C   UNL     1      -2.289  -2.666   6.789  0.00  0.00    +0.162 A 
ATOM     21  C   UNL     1      -3.422  -3.007   6.056  0.00  0.00    +0.162 A 
ATOM     22  C   UNL     1      -3.287  -3.526   4.779  0.00  0.00    +0.055 A 
BRANCH  21  23
ATOM     23  O   UNL     1      -4.659  -2.825   6.590  0.00  0.00    -0.489 OA
BRANCH  23  24
ATOM     24  C   UNL     1      -5.777  -3.196   5.780  0.00  0.00    +0.226 C 
ATOM     25  C   UNL     1      -7.074  -2.922   6.544  0.00  0.00    +0.048 C 
ENDBRANCH  23  24
ENDBRANCH  21  23
BRANCH  20  26
ATOM     26  O   UNL     1      -2.417  -2.152   8.041  0.00  0.00    -0.488 OA
BRANCH  26  27
ATOM     27  C   UNL     1      -1.211  -1.826   8.735  0.00  0.00    +0.229 C 
BRANCH  27  28
ATOM     28  C   UNL     1      -1.553  -1.265  10.117  0.00  0.00    +0.044 C 
BRANCH  28  29
ATOM     29  C   UNL     1      -0.262  -0.916  10.859  0.00  0.00    -0.014 C 
ATOM     30  C   UNL     1       0.457   0.220  10.127  0.00  0.00    +0.007 C 
ATOM     31  C   UNL     1      -0.597  -0.472  12.285  0.00  0.00    +0.007 C 
ENDBRANCH  28  29
ENDBRANCH  27  28
ENDBRANCH  26  27
ENDBRANCH  20  26
ENDBRANCH   2  17
BRANCH   1  32
ATOM     32  C   UNL     1      -0.756  -2.164   1.814  0.00  0.00    +0.090 C 
BRANCH  32  33
ATOM     33  C   UNL     1      -1.421  -1.919   0.458  0.00  0.00    -0.060 C 
BRANCH  33  34
ATOM     34  N   UNL     1      -1.374  -0.485   0.142  0.00  0.00    +0.380 N 
ATOM     35  H   UNL     1      -1.792   0.039   0.895  0.00  0.00    -0.082 HD
BRANCH  34  37
ATOM     36  C   UNL     1       0.082   1.451  -0.216  0.00  0.00    -0.017 C 
ATOM     37  C   UNL     1       0.024  -0.066  -0.029  0.00  0.00    -0.082 C 
ENDBRANCH  34  37
BRANCH  34  38
ATOM     38  C   UNL     1      -2.116  -0.233  -1.101  0.00  0.00    -0.082 C 
ATOM     39  C   UNL     1      -3.600  -0.533  -0.879  0.00  0.00    -0.017 C 
ENDBRANCH  34  38
ENDBRANCH  33  34
ENDBRANCH  32  33
ENDBRANCH   1  32
TORSDOF 12
