REMARK  Name = ZINC45026278
REMARK  1 active torsions:
REMARK  status: ('A' for Active; 'I' for Inactive)
REMARK    1  A    between atoms: C_6  and  C_7
REMARK                            x       y       z     vdW  Elec       q    Type
REMARK                         _______ _______ _______ _____ _____    ______ ____
ROOT
ATOM      1  C   UNL     1      -1.293  -0.775   0.010  0.00  0.00    +0.105 C 
ATOM      2  C   UNL     1      -1.607  -1.289  -1.411  0.00  0.00    +0.029 C 
ATOM      3  C   UNL     1      -2.201  -2.697  -1.147  0.00  0.00    +0.021 C 
ATOM      4  C   UNL     1      -1.365  -3.166   0.070  0.00  0.00    +0.107 C 
ATOM      5  N   UNL     1      -1.170  -1.949   0.886  0.00  0.00    -0.308 N 
ATOM      6  C   UNL     1      -0.913  -1.919   2.247  0.00  0.00    +0.128 A 
ATOM      7  C   UNL     1      -0.855  -0.703   2.929  0.00  0.00    +0.084 A 
ATOM      8  C   UNL     1      -0.596  -0.720   4.287  0.00  0.00    +0.136 A 
ATOM      9  N   UNL     1      -0.413  -1.883   4.897  0.00  0.00    -0.203 NA
ATOM     10  C   UNL     1      -0.475  -3.022   4.223  0.00  0.00    +0.216 A 
ATOM     11  N   UNL     1      -0.725  -3.048   2.923  0.00  0.00    -0.200 NA
ATOM     12  N   UNL     1      -0.277  -4.215   4.896  0.00  0.00    -0.327 N 
ATOM     13 CL   UNL     1      -0.512   0.764   5.184  0.00  0.00    -0.062 Cl
ATOM     14  H   UNL     1      -0.097  -4.211   5.849  0.00  0.00    +0.145 HD
ATOM     15  H   UNL     1      -0.320  -5.056   4.414  0.00  0.00    +0.145 HD
ENDROOT
BRANCH   1  21
ATOM     16  C   UNL     1      -0.017   1.378   0.010  0.00  0.00    +0.008 A 
ATOM     17  C   UNL     1       1.170   2.086   0.002  0.00  0.00    +0.038 A 
ATOM     18  C   UNL     1       2.379   1.410  -0.013  0.00  0.00    +0.123 A 
ATOM     19  C   UNL     1       2.396   0.026  -0.021  0.00  0.00    +0.038 A 
ATOM     20  C   UNL     1       1.208  -0.680  -0.013  0.00  0.00    +0.008 A 
ATOM     21  C   UNL     1       0.002  -0.004   0.002  0.00  0.00    -0.027 A 
ATOM     22  F   UNL     1       3.540   2.101  -0.021  0.00  0.00    -0.205 F 
ENDBRANCH   1  21
TORSDOF 1
