REMARK  Name = ZINC05906222
REMARK  2 active torsions:
REMARK  status: ('A' for Active; 'I' for Inactive)
REMARK    1  A    between atoms: C_6  and  C_7
REMARK    2  A    between atoms: N_8  and  C_9
REMARK                            x       y       z     vdW  Elec       q    Type
REMARK                         _______ _______ _______ _____ _____    ______ ____
ROOT
ATOM      1  C   UNL     1      -0.015   1.288   0.009  0.00  0.00    +0.113 C 
ATOM      2  N   UNL     1       0.002  -0.004   0.002  0.00  0.00    -0.285 NA
ENDROOT
BRANCH   2   3
ATOM      3  C   UNL     1      -1.256  -0.754   0.010  0.00  0.00    +0.145 C 
ATOM      4  C   UNL     1      -1.323  -1.633   1.282  0.00  0.00    +0.194 C 
ATOM      5  S   UNL     1      -2.288  -3.092   0.714  0.00  0.00    -0.028 S 
ATOM      6  O   UNL     1      -1.470  -4.251   0.801  0.00  0.00    -0.174 OA
ATOM      7  O   UNL     1      -3.558  -3.083   1.352  0.00  0.00    -0.174 OA
ATOM      8  C   UNL     1      -2.505  -2.643  -1.060  0.00  0.00    +0.187 C 
ATOM      9  C   UNL     1      -1.330  -1.641  -1.244  0.00  0.00    +0.127 C 
ATOM     10 CL   UNL     1      -1.629  -0.617  -2.697  0.00  0.00    -0.118 Cl
ENDBRANCH   2   3
BRANCH   1  16
ATOM     11  C   UNL     1       2.487   1.381  -0.008  0.00  0.00    +0.029 A 
ATOM     12  C   UNL     1       3.648   2.127  -0.021  0.00  0.00    +0.111 A 
ATOM     13  N   UNL     1       3.607   3.445  -0.013  0.00  0.00    -0.263 NA
ATOM     14  C   UNL     1       2.467   4.109   0.001  0.00  0.00    +0.111 A 
ATOM     15  C   UNL     1       1.258   3.444   0.009  0.00  0.00    +0.029 A 
ATOM     16  C   UNL     1       1.254   2.044   0.001  0.00  0.00    -0.005 A 
ENDBRANCH   1  16
TORSDOF 2
