REMARK  Name = ZINC18709430
REMARK  14 active torsions:
REMARK  status: ('A' for Active; 'I' for Inactive)
REMARK    1  A    between atoms: C_1  and  C_2
REMARK    2  A    between atoms: C_2  and  C_3
REMARK    3  A    between atoms: C_3  and  C_4
REMARK    4  A    between atoms: C_4  and  N_5
REMARK    5  A    between atoms: N_5  and  C_6
REMARK    6  A    between atoms: C_7  and  N_18
REMARK    7  A    between atoms: N_8  and  C_15
REMARK    8  A    between atoms: C_15  and  C_16
REMARK    9  A    between atoms: C_16  and  C_17
REMARK   10  A    between atoms: C_19  and  C_21
REMARK   11  A    between atoms: C_21  and  N_22
REMARK   12  A    between atoms: N_25  and  C_28
REMARK   13  A    between atoms: C_32  and  C_35
REMARK   14  A    between atoms: C_33  and  C_34
REMARK                            x       y       z     vdW  Elec       q    Type
REMARK                         _______ _______ _______ _____ _____    ______ ____
ROOT
ATOM      1  N   UNL     1      -2.780  -2.572   0.017  0.00  0.00    -0.263 N 
ATOM      2  C   UNL     1      -3.279  -2.904   1.226  0.00  0.00    +0.234 C 
ATOM      3  O   UNL     1      -4.371  -3.425   1.309  0.00  0.00    -0.274 OA
ENDROOT
BRANCH   1   4
ATOM      4  C   UNL     1      -3.572  -2.728  -1.141  0.00  0.00    +0.140 A 
ATOM      5  C   UNL     1      -3.224  -3.645  -2.111  0.00  0.00    +0.127 A 
ATOM      6  N   UNL     1      -4.017  -3.773  -3.228  0.00  0.00    -0.280 N 
ATOM      7  C   UNL     1      -5.118  -3.014  -3.373  0.00  0.00    +0.331 A 
ATOM      8  O   UNL     1      -5.805  -3.143  -4.368  0.00  0.00    -0.246 OA
ATOM      9  N   UNL     1      -5.473  -2.116  -2.437  0.00  0.00    -0.273 N 
ATOM     10  H   UNL     1      -6.271  -1.580  -2.565  0.00  0.00    +0.173 HD
ATOM     11  C   UNL     1      -4.734  -1.954  -1.322  0.00  0.00    +0.277 A 
ATOM     12  O   UNL     1      -5.067  -1.141  -0.477  0.00  0.00    -0.266 OA
BRANCH   5  13
ATOM     13  N   UNL     1      -2.099  -4.420  -1.964  0.00  0.00    -0.343 N 
ATOM     14  H   UNL     1      -1.505  -4.275  -1.211  0.00  0.00    +0.144 HD
ATOM     15  H   UNL     1      -1.899  -5.112  -2.614  0.00  0.00    +0.144 HD
ENDBRANCH   5  13
BRANCH   6  16
ATOM     16  C   UNL     1      -3.659  -4.743  -4.267  0.00  0.00    +0.128 C 
BRANCH  16  17
ATOM     17  C   UNL     1      -4.318  -6.089  -3.957  0.00  0.00    +0.018 C 
ATOM     18  C   UNL     1      -3.945  -7.101  -5.041  0.00  0.00    +0.005 C 
ENDBRANCH  16  17
ENDBRANCH   6  16
ENDBRANCH   1   4
BRANCH   1  19
ATOM     19  C   UNL     1      -1.415  -2.051  -0.095  0.00  0.00    +0.114 C 
BRANCH  19  20
ATOM     20  C   UNL     1      -1.452  -0.521  -0.090  0.00  0.00    +0.019 C 
BRANCH  20  22
ATOM     21  C   UNL     1      -0.063   1.553  -0.201  0.00  0.00    +0.004 C 
ATOM     22  C   UNL     1      -0.026   0.023  -0.206  0.00  0.00    -0.002 C 
ENDBRANCH  20  22
ENDBRANCH  19  20
ENDBRANCH   1  19
BRANCH   2  23
ATOM     23  C   UNL     1      -2.479  -2.627   2.473  0.00  0.00    +0.181 C 
BRANCH  23  24
ATOM     24  N   UNL     1      -3.235  -3.077   3.649  0.00  0.00    -0.291 NA
ATOM     25  C   UNL     1      -3.394  -4.537   3.645  0.00  0.00    +0.104 C 
ATOM     26  C   UNL     1      -4.336  -4.947   4.782  0.00  0.00    +0.120 C 
ATOM     27  N   UNL     1      -3.825  -4.381   6.040  0.00  0.00    -0.327 N 
ATOM     28  C   UNL     1      -3.510  -2.945   6.079  0.00  0.00    +0.120 C 
ATOM     29  C   UNL     1      -2.601  -2.613   4.891  0.00  0.00    +0.104 C 
BRANCH  27  30
ATOM     30  C   UNL     1      -3.643  -5.186   7.167  0.00  0.00    +0.033 A 
ATOM     31  C   UNL     1      -2.426  -5.819   7.381  0.00  0.00    +0.023 A 
ATOM     32  C   UNL     1      -2.250  -6.614   8.497  0.00  0.00    +0.002 A 
ATOM     33  C   UNL     1      -3.284  -6.779   9.400  0.00  0.00    +0.004 A 
ATOM     34  C   UNL     1      -4.497  -6.150   9.190  0.00  0.00    -0.046 A 
ATOM     35  C   UNL     1      -4.678  -5.349   8.079  0.00  0.00    -0.027 A 
ATOM     36  C   UNL     1      -5.998  -4.659   7.854  0.00  0.00    +0.046 C 
ATOM     37  C   UNL     1      -5.621  -6.334  10.176  0.00  0.00    +0.044 C 
ENDBRANCH  27  30
ENDBRANCH  23  24
ENDBRANCH   2  23
TORSDOF 10
