REMARK  Name = ZINC09130671
REMARK  6 active torsions:
REMARK  status: ('A' for Active; 'I' for Inactive)
REMARK    1  A    between atoms: C_4  and  C_7
REMARK    2  A    between atoms: C_7  and  C_8
REMARK    3  A    between atoms: C_8  and  C_10
REMARK    4  A    between atoms: C_8  and  N_26
REMARK    5  A    between atoms: C_27  and  C_29
REMARK    6  A    between atoms: C_29  and  C_30
REMARK                            x       y       z     vdW  Elec       q    Type
REMARK                         _______ _______ _______ _____ _____    ______ ____
ROOT
ATOM      1  C   UNL     1       1.255   1.717  -0.017  0.00  0.00    +0.163 C 
ENDROOT
BRANCH   1   2
ATOM      2  C   UNL     1       2.469   1.006  -0.556  0.00  0.00    +0.236 C 
ATOM      3  O   UNL     1       2.405  -0.170  -0.845  0.00  0.00    -0.274 OA
ATOM      4  N   UNL     1       3.627   1.677  -0.717  0.00  0.00    -0.300 N 
ATOM      5  C   UNL     1       3.755   3.069  -0.264  0.00  0.00    +0.107 C 
ATOM      6  C   UNL     1       4.248   3.927  -1.427  0.00  0.00    +0.013 C 
ATOM      7  C   UNL     1       5.536   3.327  -1.992  0.00  0.00    -0.020 C 
ATOM      8  C   UNL     1       5.264   1.914  -2.510  0.00  0.00    +0.013 C 
ATOM      9  C   UNL     1       4.783   1.032  -1.354  0.00  0.00    +0.107 C 
ATOM     10  C   UNL     1       6.048   4.191  -3.115  0.00  0.00    +0.051 A 
ATOM     11  C   UNL     1       7.088   5.045  -2.977  0.00  0.00    +0.035 A 
ATOM     12  N   UNL     1       7.272   5.651  -4.178  0.00  0.00    -0.348 N 
ATOM     13  H   UNL     1       7.966   6.336  -4.400  0.00  0.00    +0.166 HD
ATOM     14  C   UNL     1       6.337   5.151  -5.020  0.00  0.00    +0.196 A 
ATOM     15  N   UNL     1       5.610   4.278  -4.372  0.00  0.00    -0.242 NA
ATOM     16  C   UNL     1       7.846   5.229  -1.688  0.00  0.00    +0.036 C 
ATOM     17  C   UNL     1       7.005   4.624  -0.554  0.00  0.00    -0.075 C 
ATOM     18  N   UNL     1       6.565   3.265  -0.931  0.00  0.00    +0.387 N 
ATOM     19  H   UNL     1       7.372   2.731  -1.274  0.00  0.00    -0.085 HD
ATOM     20  H   UNL     1       6.171   2.797  -0.106  0.00  0.00    -0.085 HD
ENDBRANCH   1   2
BRANCH   1  21
ATOM     21  N   UNL     1       0.063   0.899  -0.257  0.00  0.00    -0.303 N 
ATOM     22  C   UNL     1      -1.148   1.483  -0.346  0.00  0.00    +0.218 C 
ATOM     23  O   UNL     1      -1.253   2.685  -0.224  0.00  0.00    -0.275 OA
ATOM     24  H   UNL     1       0.147  -0.062  -0.355  0.00  0.00    +0.149 HD
BRANCH  22  25
ATOM     25  C   UNL     1      -2.373   0.642  -0.599  0.00  0.00    +0.130 C 
BRANCH  25  26
ATOM     26  C   UNL     1      -3.589   1.530  -0.655  0.00  0.00    -0.039 A 
ATOM     27  C   UNL     1      -4.302   1.799   0.498  0.00  0.00    +0.004 A 
ATOM     28  C   UNL     1      -5.415   2.618   0.448  0.00  0.00    +0.000 A 
ATOM     29  C   UNL     1      -5.821   3.159  -0.757  0.00  0.00    +0.000 A 
ATOM     30  C   UNL     1      -5.111   2.885  -1.912  0.00  0.00    +0.000 A 
ATOM     31  C   UNL     1      -3.995   2.071  -1.861  0.00  0.00    +0.004 A 
ENDBRANCH  25  26
ENDBRANCH  22  25
ENDBRANCH   1  21
BRANCH   1  32
ATOM     32  C   UNL     1       1.423   1.946   1.486  0.00  0.00    +0.067 C 
BRANCH  32  36
ATOM     33  C   UNL     1      -1.837   4.291   2.944  0.00  0.00    +0.000 A 
ATOM     34  C   UNL     1      -1.930   2.912   2.929  0.00  0.00    +0.000 A 
ATOM     35  C   UNL     1      -0.875   2.153   2.457  0.00  0.00    +0.004 A 
ATOM     36  C   UNL     1       0.273   2.773   2.000  0.00  0.00    -0.045 A 
ATOM     37  C   UNL     1       0.368   4.152   2.020  0.00  0.00    +0.004 A 
ATOM     38  C   UNL     1      -0.689   4.911   2.487  0.00  0.00    +0.000 A 
ENDBRANCH  32  36
ENDBRANCH   1  32
TORSDOF 6
