REMARK  Name = ZINC22398425
REMARK  16 active torsions:
REMARK  status: ('A' for Active; 'I' for Inactive)
REMARK    1  A    between atoms: C_1  and  C_2
REMARK    2  A    between atoms: C_4  and  S_10
REMARK    3  A    between atoms: C_7  and  O_8
REMARK    4  A    between atoms: O_8  and  C_9
REMARK    5  A    between atoms: S_10  and  N_13
REMARK    6  A    between atoms: N_13  and  C_14
REMARK    7  A    between atoms: N_13  and  C_32
REMARK    8  A    between atoms: C_14  and  C_15
REMARK    9  A    between atoms: N_17  and  C_18
REMARK   10  A    between atoms: C_18  and  C_20
REMARK   11  A    between atoms: C_18  and  C_24
REMARK   12  A    between atoms: C_20  and  C_21
REMARK   13  A    between atoms: C_21  and  C_22
REMARK   14  A    between atoms: C_21  and  C_23
REMARK   15  A    between atoms: C_27  and  O_30
REMARK   16  A    between atoms: O_30  and  C_31
REMARK                            x       y       z     vdW  Elec       q    Type
REMARK                         _______ _______ _______ _____ _____    ______ ____
ROOT
ATOM      1  N   UNL     1       1.553   2.269  -0.001  0.00  0.00    -0.194 N 
ENDROOT
BRANCH   1   2
ATOM      2  C   UNL     1       2.196   2.578   1.200  0.00  0.00    +0.052 A 
ATOM      3  C   UNL     1       3.442   2.031   1.484  0.00  0.00    +0.025 A 
ATOM      4  C   UNL     1       4.077   2.343   2.670  0.00  0.00    +0.002 A 
ATOM      5  C   UNL     1       3.470   3.190   3.579  0.00  0.00    +0.000 A 
ATOM      6  C   UNL     1       2.229   3.732   3.302  0.00  0.00    +0.002 A 
ATOM      7  C   UNL     1       1.590   3.429   2.116  0.00  0.00    +0.025 A 
ENDBRANCH   1   2
BRANCH   1   8
ATOM      8  S   UNL     1       0.071   1.531   0.021  0.00  0.00    +0.075 S 
ATOM      9  O   UNL     1      -0.608   1.950  -1.155  0.00  0.00    -0.150 OA
ATOM     10  O   UNL     1      -0.464   1.731   1.322  0.00  0.00    -0.150 OA
BRANCH   8  14
ATOM     11  C   UNL     1       0.938  -3.196   2.073  0.00  0.00    +0.047 C 
ATOM     12  C   UNL     1       0.744  -2.342   0.846  0.00  0.00    -0.007 A 
ATOM     13  C   UNL     1       0.526  -0.984   0.976  0.00  0.00    +0.035 A 
ATOM     14  C   UNL     1       0.348  -0.201  -0.149  0.00  0.00    +0.109 A 
ATOM     15  C   UNL     1       0.382  -0.775  -1.407  0.00  0.00    +0.032 A 
ATOM     16  C   UNL     1       0.605  -2.131  -1.542  0.00  0.00    +0.048 A 
ATOM     17  C   UNL     1       0.784  -2.920  -0.415  0.00  0.00    +0.123 A 
BRANCH  17  18
ATOM     18  O   UNL     1       0.997  -4.255  -0.545  0.00  0.00    -0.495 OA
ATOM     19  C   UNL     1       1.025  -4.781  -1.874  0.00  0.00    +0.277 C 
ENDBRANCH  17  18
ENDBRANCH   8  14
ENDBRANCH   1   8
BRANCH   1  20
ATOM     20  C   UNL     1       2.190   2.597  -1.278  0.00  0.00    +0.227 C 
BRANCH  20  21
ATOM     21  C   UNL     1       1.875   4.024  -1.645  0.00  0.00    +0.233 C 
ATOM     22  O   UNL     1       1.186   4.701  -0.911  0.00  0.00    -0.274 OA
ATOM     23  N   UNL     1       2.358   4.549  -2.788  0.00  0.00    -0.307 N 
ATOM     24  H   UNL     1       2.983   3.936  -3.454  0.00  0.00    +0.149 HD
BRANCH  23  25
ATOM     25  C   UNL     1       2.052   5.937  -3.144  0.00  0.00    +0.103 C 
BRANCH  25  26
ATOM     26  C   UNL     1       3.127   6.471  -4.055  0.00  0.00    -0.027 A 
ATOM     27  C   UNL     1       3.662   5.662  -5.041  0.00  0.00    +0.009 A 
ATOM     28  C   UNL     1       4.643   6.151  -5.880  0.00  0.00    +0.046 A 
ATOM     29  C   UNL     1       5.101   7.451  -5.727  0.00  0.00    +0.120 A 
ATOM     30  C   UNL     1       4.567   8.259  -4.733  0.00  0.00    +0.046 A 
ATOM     31  C   UNL     1       3.582   7.768  -3.900  0.00  0.00    +0.009 A 
BRANCH  29  32
ATOM     32  O   UNL     1       6.072   7.933  -6.547  0.00  0.00    -0.495 OA
ATOM     33  C   UNL     1       6.575   7.045  -7.548  0.00  0.00    +0.277 C 
ENDBRANCH  29  32
ENDBRANCH  25  26
BRANCH  25  34
ATOM     34  C   UNL     1       0.702   5.993  -3.862  0.00  0.00    +0.030 C 
BRANCH  34  35
ATOM     35  C   UNL     1      -0.407   5.569  -2.896  0.00  0.00    -0.015 C 
ATOM     36  C   UNL     1      -0.510   6.587  -1.759  0.00  0.00    +0.007 C 
ATOM     37  C   UNL     1      -1.739   5.505  -3.646  0.00  0.00    +0.007 C 
ENDBRANCH  34  35
ENDBRANCH  25  34
ENDBRANCH  23  25
ENDBRANCH  20  21
ENDBRANCH   1  20
TORSDOF 11
