REMARK  Name = ZINC06045566
REMARK  7 active torsions:
REMARK  status: ('A' for Active; 'I' for Inactive)
REMARK    1  A    between atoms: C_1  and  C_2
REMARK    2  A    between atoms: C_2  and  C_3
REMARK    3  A    between atoms: C_3  and  C_4
REMARK    4  A    between atoms: C_11  and  N_16
REMARK    5  A    between atoms: C_12  and  C_13
REMARK    6  A    between atoms: C_17  and  C_19
REMARK    7  A    between atoms: C_24  and  N_25
REMARK                            x       y       z     vdW  Elec       q    Type
REMARK                         _______ _______ _______ _____ _____    ______ ____
ROOT
ATOM      1  C   UNL     1      -7.391  -4.320  -1.018  0.00  0.00    -0.006 C 
ATOM      2  C   UNL     1      -7.803  -3.078  -1.814  0.00  0.00    +0.008 C 
ATOM      3  C   UNL     1      -7.187  -1.828  -1.183  0.00  0.00    +0.037 C 
ATOM      4  C   UNL     1      -5.687  -2.046  -1.025  0.00  0.00    -0.023 A 
ATOM      5  C   UNL     1      -5.158  -3.289  -1.061  0.00  0.00    -0.004 A 
ATOM      6  S   UNL     1      -3.417  -3.045  -0.847  0.00  0.00    -0.077 S 
ATOM      7  C   UNL     1      -3.392  -1.319  -0.700  0.00  0.00    +0.085 A 
ATOM      8  C   UNL     1      -4.730  -0.971  -0.829  0.00  0.00    +0.068 A 
ATOM      9  C   UNL     1      -5.894  -4.579  -1.247  0.00  0.00    +0.046 C 
ENDROOT
BRANCH   8  10
ATOM     10  C   UNL     1      -5.161   0.429  -0.769  0.00  0.00    +0.244 C 
ATOM     11  O   UNL     1      -5.218   1.092  -1.788  0.00  0.00    -0.270 OA
ATOM     12  N   UNL     1      -5.494   0.981   0.415  0.00  0.00    -0.325 N 
ATOM     13  H   UNL     1      -5.449   0.453   1.227  0.00  0.00    +0.145 HD
ATOM     14  H   UNL     1      -5.779   1.908   0.454  0.00  0.00    +0.145 HD
ENDBRANCH   8  10
BRANCH   7  15
ATOM     15  N   UNL     1      -2.301  -0.487  -0.507  0.00  0.00    -0.275 N 
ATOM     16  C   UNL     1      -1.064  -1.012  -0.405  0.00  0.00    +0.251 C 
ATOM     17  O   UNL     1      -0.905  -2.214  -0.481  0.00  0.00    -0.270 OA
ATOM     18  H   UNL     1      -2.428   0.472  -0.446  0.00  0.00    +0.156 HD
BRANCH  16  19
ATOM     19  C   UNL     1       0.100  -0.124  -0.199  0.00  0.00    +0.067 A 
ATOM     20  C   UNL     1       0.346   0.926  -1.085  0.00  0.00    +0.015 A 
ATOM     21  C   UNL     1       1.434   1.750  -0.887  0.00  0.00    +0.001 A 
ATOM     22  C   UNL     1       2.281   1.538   0.186  0.00  0.00    +0.002 A 
ATOM     23  C   UNL     1       2.043   0.498   1.068  0.00  0.00    +0.033 A 
ATOM     24  C   UNL     1       0.958  -0.333   0.882  0.00  0.00    +0.138 A 
BRANCH  24  25
ATOM     25  N   UNL     1       0.705  -1.445   1.826  0.00  0.00    +0.057 N 
ATOM     26  O   UNL     1       1.518  -1.702   2.696  0.00  0.00    -0.126 OA
ATOM     27  O   UNL     1      -0.316  -2.102   1.733  0.00  0.00    -0.126 OA
ENDBRANCH  24  25
ENDBRANCH  16  19
ENDBRANCH   7  15
BRANCH   1  28
ATOM     28  C   UNL     1      -8.200  -5.527  -1.496  0.00  0.00    +0.003 C 
BRANCH  28  30
ATOM     29  C   UNL     1      -8.673  -7.949  -1.107  0.00  0.00    +0.004 C 
ATOM     30  C   UNL     1      -7.864  -6.742  -0.629  0.00  0.00    -0.003 C 
ENDBRANCH  28  30
ENDBRANCH   1  28
TORSDOF 6
