REMARK  Name = ZINC39408847
REMARK  4 active torsions:
REMARK  status: ('A' for Active; 'I' for Inactive)
REMARK    1  A    between atoms: C_6  and  C_10
REMARK    2  A    between atoms: C_10  and  S_11
REMARK    3  A    between atoms: S_11  and  C_12
REMARK    4  A    between atoms: C_18  and  N_22
REMARK                            x       y       z     vdW  Elec       q    Type
REMARK                         _______ _______ _______ _____ _____    ______ ____
ROOT
ATOM      1  C   UNL     1      -4.923  -5.475  -1.537  0.00  0.00    +0.193 C 
ATOM      2  N   UNL     1      -6.133  -5.271  -0.729  0.00  0.00    -0.323 N 
ATOM      3  C   UNL     1      -6.237  -5.986   0.468  0.00  0.00    +0.042 A 
ATOM      4  C   UNL     1      -7.315  -5.921   1.367  0.00  0.00    +0.026 A 
ATOM      5  C   UNL     1      -7.327  -6.665   2.524  0.00  0.00    +0.024 A 
ATOM      6  C   UNL     1      -6.271  -7.508   2.842  0.00  0.00    +0.026 A 
ATOM      7  C   UNL     1      -5.192  -7.591   1.969  0.00  0.00    +0.039 A 
ATOM      8  C   UNL     1      -5.188  -6.843   0.813  0.00  0.00    +0.033 A 
ATOM      9  S   UNL     1      -4.008  -6.694  -0.511  0.00  0.00    -0.090 S 
ATOM     10  H   UNL     1      -6.833  -4.664  -1.015  0.00  0.00    +0.148 HD
ENDROOT
BRANCH   6  11
ATOM     11  N   UNL     1      -6.291  -8.261   4.022  0.00  0.00    -0.358 N 
ATOM     12  H   UNL     1      -7.048  -8.197   4.626  0.00  0.00    +0.142 HD
ATOM     13  H   UNL     1      -5.549  -8.848   4.236  0.00  0.00    +0.142 HD
ENDBRANCH   6  11
BRANCH   1  14
ATOM     14  S   UNL     1      -3.985  -3.931  -1.708  0.00  0.00    -0.120 S 
BRANCH  14  15
ATOM     15  C   UNL     1      -3.662  -3.423   0.003  0.00  0.00    +0.146 C 
BRANCH  15  21
ATOM     16  C   UNL     1      -0.017   1.374   0.010  0.00  0.00    +0.002 A 
ATOM     17  C   UNL     1      -1.222   2.061   0.019  0.00  0.00    +0.002 A 
ATOM     18  C   UNL     1      -2.409   1.385   0.021  0.00  0.00    +0.030 A 
ATOM     19  C   UNL     1      -2.415  -0.012   0.014  0.00  0.00    +0.089 A 
ATOM     20  N   UNL     1      -3.402  -0.944   0.014  0.00  0.00    -0.232 NA
ATOM     21  C   UNL     1      -2.879  -2.135   0.005  0.00  0.00    +0.118 A 
ATOM     22  N   UNL     1      -1.521  -2.049  -0.001  0.00  0.00    -0.341 N 
ATOM     23  C   UNL     1      -1.194  -0.708   0.004  0.00  0.00    +0.066 A 
ATOM     24  C   UNL     1       0.002  -0.004   0.002  0.00  0.00    +0.028 A 
ATOM     25  H   UNL     1      -0.898  -2.793  -0.008  0.00  0.00    +0.167 HD
ENDBRANCH  15  21
ENDBRANCH  14  15
ENDBRANCH   1  14
TORSDOF 4
