REMARK  Name = ZINC65584310
REMARK  12 active torsions:
REMARK  status: ('A' for Active; 'I' for Inactive)
REMARK    1  A    between atoms: C_1  and  C_2
REMARK    2  A    between atoms: C_2  and  C_3
REMARK    3  A    between atoms: C_3  and  C_4
REMARK    4  A    between atoms: C_4  and  C_5
REMARK    5  A    between atoms: C_5  and  C_6
REMARK    6  A    between atoms: C_5  and  N_22
REMARK    7  A    between atoms: N_8  and  C_9
REMARK    8  A    between atoms: C_12  and  C_15
REMARK    9  A    between atoms: C_15  and  C_16
REMARK   10  A    between atoms: N_18  and  C_19
REMARK   11  A    between atoms: C_19  and  C_20
REMARK   12  A    between atoms: C_19  and  C_21
REMARK                            x       y       z     vdW  Elec       q    Type
REMARK                         _______ _______ _______ _____ _____    ______ ____
ROOT
ATOM      1  C   UNL     1      -0.316  -3.872  -4.022  0.00  0.00    +0.238 C 
ATOM      2  O   UNL     1      -0.876  -4.416  -4.950  0.00  0.00    -0.273 OA
ATOM      3  N   UNL     1       0.243  -4.613  -3.045  0.00  0.00    -0.284 N 
ATOM      4  H   UNL     1       0.757  -4.183  -2.343  0.00  0.00    +0.155 HD
ENDROOT
BRANCH   3   5
ATOM      5  C   UNL     1       0.082  -6.003  -3.042  0.00  0.00    +0.033 A 
ATOM      6  C   UNL     1       1.095  -6.820  -2.557  0.00  0.00    +0.023 A 
ATOM      7  C   UNL     1       0.934  -8.192  -2.556  0.00  0.00    +0.006 A 
ATOM      8  C   UNL     1      -0.236  -8.752  -3.037  0.00  0.00    -0.039 A 
ATOM      9  C   UNL     1      -1.246  -7.941  -3.520  0.00  0.00    +0.006 A 
ATOM     10  C   UNL     1      -1.093  -6.569  -3.519  0.00  0.00    +0.023 A 
BRANCH   8  11
ATOM     11  C   UNL     1      -0.409 -10.249  -3.034  0.00  0.00    +0.130 C 
BRANCH  11  12
ATOM     12  C   UNL     1      -1.034 -10.680  -1.732  0.00  0.00    +0.218 C 
ATOM     13  O   UNL     1      -1.312  -9.853  -0.889  0.00  0.00    -0.275 OA
ATOM     14  N   UNL     1      -1.285 -11.984  -1.504  0.00  0.00    -0.313 N 
ATOM     15  H   UNL     1      -1.063 -12.646  -2.178  0.00  0.00    +0.149 HD
BRANCH  14  16
ATOM     16  C   UNL     1      -1.892 -12.403  -0.239  0.00  0.00    +0.067 C 
ATOM     17  C   UNL     1      -2.626 -13.731  -0.440  0.00  0.00    +0.027 C 
ATOM     18  C   UNL     1      -0.800 -12.579   0.818  0.00  0.00    +0.027 C 
ENDBRANCH  14  16
ENDBRANCH  11  12
ENDBRANCH   8  11
ENDBRANCH   3   5
BRANCH   1  19
ATOM     19  C   UNL     1      -0.244  -2.368  -3.961  0.00  0.00    +0.161 C 
BRANCH  19  20
ATOM     20  N   UNL     1      -1.285  -1.795  -4.818  0.00  0.00    -0.288 N 
ATOM     21  C   UNL     1      -1.296  -2.067  -6.138  0.00  0.00    +0.298 C 
ATOM     22  O   UNL     1      -0.443  -2.789  -6.617  0.00  0.00    -0.253 OA
ATOM     23  N   UNL     1      -2.254  -1.540  -6.926  0.00  0.00    -0.313 N 
ATOM     24  H   UNL     1      -1.965  -1.219  -4.436  0.00  0.00    +0.151 HD
ATOM     25  H   UNL     1      -2.934  -0.964  -6.544  0.00  0.00    +0.146 HD
ATOM     26  H   UNL     1      -2.262  -1.736  -7.877  0.00  0.00    +0.146 HD
ENDBRANCH  19  20
BRANCH  19  27
ATOM     27  C   UNL     1       1.130  -1.903  -4.447  0.00  0.00    +0.032 C 
BRANCH  27  28
ATOM     28  C   UNL     1       1.248  -0.388  -4.268  0.00  0.00    +0.002 C 
BRANCH  28  30
ATOM     29  C   UNL     1       2.740   1.592  -4.576  0.00  0.00    +0.004 C 
ATOM     30  C   UNL     1       2.623   0.077  -4.754  0.00  0.00    -0.003 C 
ENDBRANCH  28  30
ENDBRANCH  27  28
ENDBRANCH  19  27
ENDBRANCH   1  19
TORSDOF 9
