REMARK  Name = ZINC22798549
REMARK  9 active torsions:
REMARK  status: ('A' for Active; 'I' for Inactive)
REMARK    1  A    between atoms: C_1  and  O_2
REMARK    2  A    between atoms: O_2  and  C_3
REMARK    3  A    between atoms: C_7  and  C_9
REMARK    4  A    between atoms: C_9  and  C_11
REMARK    5  A    between atoms: C_9  and  N_25
REMARK    6  A    between atoms: C_12  and  O_24
REMARK    7  A    between atoms: C_17  and  C_19
REMARK    8  A    between atoms: N_28  and  C_31
REMARK    9  A    between atoms: C_31  and  C_32
REMARK                            x       y       z     vdW  Elec       q    Type
REMARK                         _______ _______ _______ _____ _____    ______ ____
ROOT
ATOM      1  C   UNL     1       1.389  -4.130   2.211  0.00  0.00    +0.129 C 
ENDROOT
BRANCH   1   2
ATOM      2  C   UNL     1       2.745  -4.506   1.674  0.00  0.00    +0.076 A 
ATOM      3  C   UNL     1       3.056  -5.146   0.540  0.00  0.00    +0.228 A 
ATOM      4  N   UNL     1       4.366  -5.402   0.216  0.00  0.00    -0.173 N 
ATOM      5  C   UNL     1       5.321  -4.975   1.098  0.00  0.00    +0.200 A 
ATOM      6  S   UNL     1       4.359  -4.208   2.380  0.00  0.00    -0.047 S 
ATOM      7  N   UNL     1       6.505  -5.290   0.652  0.00  0.00    -0.197 NA
ATOM      8  C   UNL     1       6.381  -5.926  -0.522  0.00  0.00    +0.218 A 
ATOM      9  N   UNL     1       5.104  -6.018  -0.828  0.00  0.00    -0.138 NA
BRANCH   8  10
ATOM     10  C   UNL     1       7.498  -6.441  -1.340  0.00  0.00    +0.173 A 
ATOM     11  C   UNL     1       8.819  -6.356  -1.031  0.00  0.00    +0.053 A 
ATOM     12  C   UNL     1       9.523  -6.973  -2.084  0.00  0.00    +0.042 A 
ATOM     13  C   UNL     1       8.607  -7.399  -2.975  0.00  0.00    +0.196 A 
ATOM     14  O   UNL     1       7.384  -7.080  -2.520  0.00  0.00    -0.460 OA
ENDBRANCH   8  10
BRANCH   3  15
ATOM     15  O   UNL     1       2.064  -5.548  -0.300  0.00  0.00    -0.492 OA
ATOM     16  H   UNL     1       2.380  -6.001  -1.093  0.00  0.00    +0.294 HD
ENDBRANCH   3  15
ENDBRANCH   1   2
BRANCH   1  17
ATOM     17  N   UNL     1       1.232  -4.670   3.568  0.00  0.00    -0.295 NA
ATOM     18  C   UNL     1       1.442  -6.125   3.583  0.00  0.00    +0.067 C 
ATOM     19  C   UNL     1       1.330  -6.638   5.021  0.00  0.00    -0.063 C 
ATOM     20  N   UNL     1       0.001  -6.312   5.555  0.00  0.00    +0.384 N 
ATOM     21  C   UNL     1      -0.184  -4.855   5.556  0.00  0.00    -0.063 C 
ATOM     22  C   UNL     1      -0.085  -4.327   4.123  0.00  0.00    +0.067 C 
ATOM     23  H   UNL     1      -0.708  -6.740   4.978  0.00  0.00    -0.081 HD
BRANCH  20  24
ATOM     24  C   UNL     1      -0.113  -6.821   6.928  0.00  0.00    -0.043 C 
BRANCH  24  25
ATOM     25  C   UNL     1      -1.515  -6.596   7.433  0.00  0.00    -0.064 A 
ATOM     26  C   UNL     1      -1.835  -5.419   8.083  0.00  0.00    +0.002 A 
ATOM     27  C   UNL     1      -3.121  -5.213   8.546  0.00  0.00    +0.000 A 
ATOM     28  C   UNL     1      -4.087  -6.183   8.358  0.00  0.00    +0.000 A 
ATOM     29  C   UNL     1      -3.767  -7.360   7.707  0.00  0.00    +0.000 A 
ATOM     30  C   UNL     1      -2.482  -7.564   7.240  0.00  0.00    +0.002 A 
ENDBRANCH  24  25
ENDBRANCH  20  24
ENDBRANCH   1  17
BRANCH   1  35
ATOM     31  C   UNL     1       0.362  -0.595   1.356  0.00  0.00    +0.120 A 
ATOM     32  C   UNL     1       1.036   0.129   2.328  0.00  0.00    +0.045 A 
ATOM     33  C   UNL     1       1.820  -0.526   3.257  0.00  0.00    +0.004 A 
ATOM     34  C   UNL     1       1.933  -1.904   3.219  0.00  0.00    +0.006 A 
ATOM     35  C   UNL     1       1.262  -2.628   2.250  0.00  0.00    -0.022 A 
ATOM     36  C   UNL     1       0.473  -1.977   1.322  0.00  0.00    +0.051 A 
BRANCH  31  38
ATOM     37  C   UNL     1      -0.478   1.472   0.535  0.00  0.00    +0.277 C 
ATOM     38  O   UNL     1      -0.410   0.048   0.441  0.00  0.00    -0.495 OA
ENDBRANCH  31  38
ENDBRANCH   1  35
TORSDOF 8
