REMARK  Name = ZINC43262550
REMARK  8 active torsions:
REMARK  status: ('A' for Active; 'I' for Inactive)
REMARK    1  A    between atoms: C_1  and  C_2
REMARK    2  A    between atoms: C_2  and  C_3
REMARK    3  A    between atoms: C_3  and  C_5
REMARK    4  A    between atoms: C_3  and  N_25
REMARK    5  A    between atoms: C_5  and  C_7
REMARK    6  A    between atoms: C_5  and  N_13
REMARK    7  A    between atoms: C_15  and  C_22
REMARK    8  A    between atoms: C_19  and  C_21
REMARK                            x       y       z     vdW  Elec       q    Type
REMARK                         _______ _______ _______ _____ _____    ______ ____
ROOT
ATOM      1  C   UNL     1      -1.611  -1.917  -0.687  0.00  0.00    +0.079 C 
ENDROOT
BRANCH   1   2
ATOM      2  N   UNL     1      -0.983  -2.671  -1.779  0.00  0.00    -0.293 NA
ATOM      3  C   UNL     1       0.299  -2.070  -2.165  0.00  0.00    +0.098 C 
ATOM      4  C   UNL     1       0.853  -2.791  -3.396  0.00  0.00    +0.089 C 
ATOM      5  C   UNL     1       1.042  -4.275  -3.070  0.00  0.00    +0.015 C 
ATOM      6  C   UNL     1      -0.298  -4.866  -2.624  0.00  0.00    +0.019 C 
ATOM      7  C   UNL     1      -0.818  -4.085  -1.416  0.00  0.00    +0.054 C 
ATOM      8  C   UNL     1      -2.167  -4.660  -0.979  0.00  0.00    +0.024 C 
BRANCH   4   9
ATOM      9  C   UNL     1      -0.115  -2.646  -4.542  0.00  0.00    +0.215 C 
ATOM     10  O   UNL     1      -1.147  -2.027  -4.390  0.00  0.00    -0.276 OA
ATOM     11  N   UNL     1       0.166  -3.205  -5.736  0.00  0.00    -0.329 N 
ATOM     12  H   UNL     1       0.991  -3.700  -5.858  0.00  0.00    +0.145 HD
ATOM     13  H   UNL     1      -0.458  -3.112  -6.473  0.00  0.00    +0.145 HD
ENDBRANCH   4   9
ENDBRANCH   1   2
BRANCH   1  14
ATOM     14  C   UNL     1      -2.410  -0.774  -1.259  0.00  0.00    +0.006 A 
ATOM     15  C   UNL     1      -3.669  -0.377  -0.956  0.00  0.00    +0.014 A 
ATOM     16  C   UNL     1      -4.206   0.713  -1.617  0.00  0.00    +0.023 A 
ATOM     17  C   UNL     1      -3.456   1.351  -2.549  0.00  0.00    +0.055 A 
ATOM     18  S   UNL     1      -1.938   0.412  -2.508  0.00  0.00    -0.085 S 
ATOM     19 BR   UNL     1      -3.900   2.851  -3.611  0.00  0.00    -0.043 Br
ENDBRANCH   1  14
BRANCH   1  20
ATOM     20  C   UNL     1      -0.527  -1.366   0.242  0.00  0.00    -0.053 C 
BRANCH  20  21
ATOM     21  N   UNL     1      -1.145  -0.504   1.259  0.00  0.00    +0.381 N 
ATOM     22  H   UNL     1      -0.430  -0.141   1.871  0.00  0.00    -0.090 HD
ATOM     23  H   UNL     1      -1.621   0.262   0.806  0.00  0.00    -0.090 HD
ATOM     24  H   UNL     1      -1.808  -1.041   1.797  0.00  0.00    -0.090 HD
ENDBRANCH  20  21
BRANCH  20  26
ATOM     25  C   UNL     1       1.253  -1.976   1.886  0.00  0.00    +0.002 C 
ATOM     26  C   UNL     1       0.195  -2.528   0.928  0.00  0.00    -0.018 C 
ENDBRANCH  20  26
ENDBRANCH   1  20
TORSDOF 6
