REMARK  Name = ZINC40755948
REMARK  8 active torsions:
REMARK  status: ('A' for Active; 'I' for Inactive)
REMARK    1  A    between atoms: C_1  and  C_2
REMARK    2  A    between atoms: C_2  and  C_4
REMARK    3  A    between atoms: C_2  and  N_10
REMARK    4  A    between atoms: C_12  and  N_26
REMARK    5  A    between atoms: C_13  and  N_17
REMARK    6  A    between atoms: N_17  and  C_18
REMARK    7  A    between atoms: C_18  and  C_19
REMARK    8  A    between atoms: C_19  and  C_20
REMARK                            x       y       z     vdW  Elec       q    Type
REMARK                         _______ _______ _______ _____ _____    ______ ____
ROOT
ATOM      1  N   UNL     1       0.688  -0.476  -1.203  0.00  0.00    -0.321 N 
ATOM      2  C   UNL     1      -0.015  -0.612  -2.394  0.00  0.00    +0.145 A 
ATOM      3  C   UNL     1       0.626  -1.067  -3.548  0.00  0.00    +0.105 A 
ATOM      4  C   UNL     1      -0.126  -1.185  -4.718  0.00  0.00    +0.145 A 
ATOM      5  N   UNL     1      -1.417  -0.863  -4.689  0.00  0.00    -0.219 NA
ATOM      6  C   UNL     1      -1.984  -0.437  -3.578  0.00  0.00    +0.225 A 
ATOM      7  N   UNL     1      -1.311  -0.316  -2.452  0.00  0.00    -0.219 NA
ATOM      8  H   UNL     1       1.632  -0.695  -1.170  0.00  0.00    +0.148 HD
ENDROOT
BRANCH   3   9
ATOM      9  N   UNL     1       1.992  -1.396  -3.533  0.00  0.00    -0.353 N 
ATOM     10  H   UNL     1       2.502  -1.308  -2.712  0.00  0.00    +0.143 HD
ATOM     11  H   UNL     1       2.424  -1.711  -4.342  0.00  0.00    +0.143 HD
ENDBRANCH   3   9
BRANCH   1  13
ATOM     12  C   UNL     1      -0.019   1.526   0.010  0.00  0.00    +0.033 C 
ATOM     13  C   UNL     1       0.002  -0.004   0.002  0.00  0.00    +0.099 C 
BRANCH  13  14
ATOM     14  C   UNL     1       0.731  -0.503   1.223  0.00  0.00    -0.028 A 
ATOM     15  C   UNL     1       2.113  -0.514   1.247  0.00  0.00    +0.005 A 
ATOM     16  C   UNL     1       2.782  -0.972   2.366  0.00  0.00    +0.000 A 
ATOM     17  C   UNL     1       2.068  -1.419   3.463  0.00  0.00    +0.000 A 
ATOM     18  C   UNL     1       0.686  -1.407   3.439  0.00  0.00    +0.000 A 
ATOM     19  C   UNL     1       0.017  -0.945   2.321  0.00  0.00    +0.005 A 
ENDBRANCH  13  14
ENDBRANCH   1  13
BRANCH   4  20
ATOM     20  N   UNL     1       0.463  -1.633  -5.894  0.00  0.00    -0.327 N 
ATOM     21  H   UNL     1       1.405  -1.866  -5.907  0.00  0.00    +0.148 HD
BRANCH  20  22
ATOM     22  C   UNL     1      -0.338  -1.753  -7.115  0.00  0.00    +0.107 C 
BRANCH  22  23
ATOM     23  C   UNL     1       0.545  -2.263  -8.256  0.00  0.00    +0.049 C 
BRANCH  23  24
ATOM     24  C   UNL     1      -0.278  -2.386  -9.512  0.00  0.00    -0.072 C 
ATOM     25  C   UNL     1      -0.264  -1.397 -10.347  0.00  0.00    -0.028 C 
ATOM     26  C   UNL     1      -1.039  -1.370 -11.631  0.00  0.00    +0.027 C 
ATOM     27  C   UNL     1      -1.481  -2.785 -12.010  0.00  0.00    +0.004 C 
ATOM     28  C   UNL     1      -2.138  -3.433 -10.785  0.00  0.00    +0.005 C 
ATOM     29  C   UNL     1      -1.059  -3.651  -9.720  0.00  0.00    +0.030 C 
ENDBRANCH  23  24
ENDBRANCH  22  23
ENDBRANCH  20  22
ENDBRANCH   4  20
TORSDOF 7
