REMARK  Name = ZINC13027786
REMARK  11 active torsions:
REMARK  status: ('A' for Active; 'I' for Inactive)
REMARK    1  A    between atoms: C_1  and  O_2
REMARK    2  A    between atoms: O_2  and  C_3
REMARK    3  A    between atoms: C_6  and  C_9
REMARK    4  A    between atoms: C_9  and  C_11
REMARK    5  A    between atoms: C_9  and  N_19
REMARK    6  A    between atoms: N_13  and  C_14
REMARK    7  A    between atoms: N_19  and  C_20
REMARK    8  A    between atoms: C_27  and  C_29
REMARK    9  A    between atoms: C_29  and  C_30
REMARK   10  A    between atoms: C_30  and  C_31
REMARK   11  A    between atoms: C_31  and  C_32
REMARK                            x       y       z     vdW  Elec       q    Type
REMARK                         _______ _______ _______ _____ _____    ______ ____
ROOT
ATOM      1  N   UNL     1       3.698  11.378   0.673  0.00  0.00    -0.253 N 
ATOM      2  C   UNL     1       3.614  10.055   0.920  0.00  0.00    +0.221 C 
ATOM      3  O   UNL     1       4.624   9.402   1.074  0.00  0.00    -0.275 OA
ENDROOT
BRANCH   1   4
ATOM      4  C   UNL     1       2.531  12.132   0.496  0.00  0.00    +0.073 A 
ATOM      5  C   UNL     1       1.888  12.687   1.593  0.00  0.00    +0.026 A 
ATOM      6  C   UNL     1       0.738  13.431   1.415  0.00  0.00    +0.002 A 
ATOM      7  C   UNL     1       0.226  13.624   0.145  0.00  0.00    +0.003 A 
ATOM      8  C   UNL     1       0.863  13.073  -0.952  0.00  0.00    +0.040 A 
ATOM      9  C   UNL     1       2.018  12.331  -0.781  0.00  0.00    +0.145 A 
ATOM     10  F   UNL     1       2.644  11.798  -1.853  0.00  0.00    -0.204 F 
ENDBRANCH   1   4
BRANCH   1  11
ATOM     11  C   UNL     1       5.009  12.026   0.591  0.00  0.00    +0.197 C 
BRANCH  11  15
ATOM     12  C   UNL     1       5.312  14.166  -3.095  0.00  0.00    +0.120 A 
ATOM     13  C   UNL     1       4.422  14.588  -2.118  0.00  0.00    +0.046 A 
ATOM     14  C   UNL     1       4.325  13.894  -0.927  0.00  0.00    +0.009 A 
ATOM     15  C   UNL     1       5.116  12.781  -0.709  0.00  0.00    -0.018 A 
ATOM     16  C   UNL     1       6.007  12.362  -1.679  0.00  0.00    +0.009 A 
ATOM     17  C   UNL     1       6.103  13.049  -2.874  0.00  0.00    +0.046 A 
BRANCH  12  19
ATOM     18  C   UNL     1       6.346  14.357  -5.227  0.00  0.00    +0.277 C 
ATOM     19  O   UNL     1       5.408  14.848  -4.267  0.00  0.00    -0.495 OA
ENDBRANCH  12  19
ENDBRANCH  11  15
BRANCH  11  20
ATOM     20  C   UNL     1       5.168  12.984   1.743  0.00  0.00    +0.239 C 
ATOM     21  O   UNL     1       4.275  13.113   2.553  0.00  0.00    -0.273 OA
ATOM     22  N   UNL     1       6.304  13.698   1.873  0.00  0.00    -0.311 N 
ATOM     23  H   UNL     1       7.019  13.595   1.226  0.00  0.00    +0.149 HD
BRANCH  22  24
ATOM     24  C   UNL     1       6.459  14.630   2.993  0.00  0.00    +0.073 C 
ATOM     25  C   UNL     1       5.891  16.013   2.613  0.00  0.00    +0.022 C 
ATOM     26  C   UNL     1       6.859  17.019   3.284  0.00  0.00    +0.002 C 
ATOM     27  C   UNL     1       8.239  16.341   3.099  0.00  0.00    +0.002 C 
ATOM     28  C   UNL     1       7.952  14.838   3.303  0.00  0.00    +0.022 C 
ENDBRANCH  22  24
ENDBRANCH  11  20
ENDBRANCH   1  11
BRANCH   2  29
ATOM     29  C   UNL     1       2.265   9.388   1.005  0.00  0.00    +0.097 C 
BRANCH  29  30
ATOM     30  C   UNL     1       2.451   7.897   1.291  0.00  0.00    +0.018 C 
BRANCH  30  31
ATOM     31  C   UNL     1       1.081   7.220   1.377  0.00  0.00    +0.096 C 
BRANCH  31  32
ATOM     32  C   UNL     1       1.264   5.751   1.659  0.00  0.00    +0.218 C 
ATOM     33  O   UNL     1       2.380   5.291   1.780  0.00  0.00    -0.275 OA
ATOM     34  N   UNL     1       0.188   4.949   1.778  0.00  0.00    -0.270 N 
ATOM     35  C   UNL     1       0.351   3.614   2.145  0.00  0.00    +0.125 A 
ATOM     36  C   UNL     1      -0.768   2.820   2.373  0.00  0.00    +0.044 A 
ATOM     37  C   UNL     1      -0.593   1.497   2.736  0.00  0.00    +0.005 A 
ATOM     38  C   UNL     1       0.702   1.010   2.859  0.00  0.00    +0.020 A 
ATOM     39  C   UNL     1       1.767   1.856   2.623  0.00  0.00    +0.113 A 
ATOM     40  N   UNL     1       1.569   3.113   2.273  0.00  0.00    -0.240 NA
ATOM     41  H   UNL     1      -0.700   5.300   1.608  0.00  0.00    +0.156 HD
ENDBRANCH  31  32
ENDBRANCH  30  31
ENDBRANCH  29  30
ENDBRANCH   2  29
TORSDOF 10
