REMARK  Name = ZINC61997177
REMARK  7 active torsions:
REMARK  status: ('A' for Active; 'I' for Inactive)
REMARK    1  A    between atoms: C_1  and  C_2
REMARK    2  A    between atoms: C_12  and  C_14
REMARK    3  A    between atoms: C_16  and  C_19
REMARK    4  A    between atoms: C_22  and  O_25
REMARK    5  A    between atoms: O_25  and  C_26
REMARK    6  A    between atoms: C_26  and  C_27
REMARK    7  A    between atoms: C_26  and  C_28
REMARK                            x       y       z     vdW  Elec       q    Type
REMARK                         _______ _______ _______ _____ _____    ______ ____
ROOT
ATOM      1  C   UNL     1       1.405  -8.524   0.795  0.00  0.00    +0.169 A 
ATOM      2  C   UNL     1       1.246  -9.576  -0.132  0.00  0.00    +0.086 A 
ATOM      3  C   UNL     1       1.043 -10.724   0.570  0.00  0.00    +0.168 A 
ATOM      4  O   UNL     1       1.070 -10.418   1.881  0.00  0.00    -0.354 OA
ATOM      5  N   UNL     1       1.305  -9.028   2.002  0.00  0.00    -0.073 NA
ENDROOT
BRANCH   1  17
ATOM      6  C   UNL     1       3.070   1.289  -0.203  0.00  0.00    +0.044 C 
ATOM      7  C   UNL     1       2.820  -0.197  -0.193  0.00  0.00    -0.049 A 
ATOM      8  C   UNL     1       2.718  -0.899  -1.385  0.00  0.00    +0.005 A 
ATOM      9  C   UNL     1       2.491  -2.250  -1.404  0.00  0.00    +0.029 A 
ATOM     10  C   UNL     1       2.352  -2.976  -0.199  0.00  0.00    +0.080 A 
ATOM     11  C   UNL     1       2.461  -2.229   0.996  0.00  0.00    +0.041 A 
ATOM     12  C   UNL     1       2.695  -0.876   1.005  0.00  0.00    +0.020 A 
ATOM     13  S   UNL     1       2.235  -3.474   2.243  0.00  0.00    -0.052 S 
ATOM     14  C   UNL     1       2.016  -4.862   1.138  0.00  0.00    +0.166 A 
ATOM     15  N   UNL     1       2.127  -4.299  -0.043  0.00  0.00    -0.225 NA
ATOM     16  N   UNL     1       1.789  -6.191   1.449  0.00  0.00    -0.259 N 
ATOM     17  C   UNL     1       1.649  -7.099   0.462  0.00  0.00    +0.271 C 
ATOM     18  O   UNL     1       1.723  -6.750  -0.699  0.00  0.00    -0.268 OA
ATOM     19  H   UNL     1       1.730  -6.470   2.376  0.00  0.00    +0.157 HD
ENDBRANCH   1  17
BRANCH   3  20
ATOM     20  C   UNL     1       0.828 -12.068  -0.005  0.00  0.00    +0.020 A 
ATOM     21  C   UNL     1       0.828 -12.245  -1.390  0.00  0.00    +0.015 A 
ATOM     22  C   UNL     1       0.628 -13.500  -1.923  0.00  0.00    +0.046 A 
ATOM     23  C   UNL     1       0.425 -14.588  -1.084  0.00  0.00    +0.121 A 
ATOM     24  C   UNL     1       0.425 -14.416   0.294  0.00  0.00    +0.046 A 
ATOM     25  C   UNL     1       0.631 -13.165   0.835  0.00  0.00    +0.015 A 
BRANCH  23  26
ATOM     26  O   UNL     1       0.227 -15.823  -1.613  0.00  0.00    -0.489 OA
BRANCH  26  27
ATOM     27  C   UNL     1       0.122 -15.911  -3.035  0.00  0.00    +0.167 C 
ATOM     28  C   UNL     1       1.522 -16.000  -3.646  0.00  0.00    +0.051 C 
ATOM     29  C   UNL     1      -0.679 -17.160  -3.411  0.00  0.00    +0.051 C 
ENDBRANCH  26  27
ENDBRANCH  23  26
ENDBRANCH   3  20
TORSDOF 4
