REMARK  Name = ZINC08599580
REMARK  8 active torsions:
REMARK  status: ('A' for Active; 'I' for Inactive)
REMARK    1  A    between atoms: C_1  and  C_2
REMARK    2  A    between atoms: C_5  and  N_8
REMARK    3  A    between atoms: C_11  and  C_24
REMARK    4  A    between atoms: N_13  and  C_16
REMARK    5  A    between atoms: C_16  and  C_17
REMARK    6  A    between atoms: C_17  and  C_18
REMARK    7  A    between atoms: C_24  and  C_25
REMARK    8  A    between atoms: N_27  and  C_28
REMARK                            x       y       z     vdW  Elec       q    Type
REMARK                         _______ _______ _______ _____ _____    ______ ____
ROOT
ATOM      1  N   UNL     1       0.986  -5.654   0.746  0.00  0.00    -0.193 N 
ATOM      2  C   UNL     1       0.601  -6.486   1.734  0.00  0.00    +0.248 C 
ATOM      3  O   UNL     1       0.478  -6.219   2.910  0.00  0.00    -0.273 OA
ATOM      4  C   UNL     1       0.353  -7.825   1.068  0.00  0.00    +0.173 C 
ATOM      5  N   UNL     1       0.656  -7.568  -0.350  0.00  0.00    -0.273 N 
ATOM      6  C   UNL     1       1.011  -6.274  -0.439  0.00  0.00    +0.316 C 
ATOM      7  O   UNL     1       1.323  -5.729  -1.480  0.00  0.00    -0.252 OA
ENDROOT
BRANCH   1  12
ATOM      8  C   UNL     1       2.315  -0.190   1.516  0.00  0.00    +0.044 C 
ATOM      9  C   UNL     1       1.962  -1.641   1.312  0.00  0.00    -0.050 A 
ATOM     10  C   UNL     1       2.144  -2.228   0.073  0.00  0.00    +0.005 A 
ATOM     11  C   UNL     1       1.822  -3.557  -0.117  0.00  0.00    +0.024 A 
ATOM     12  C   UNL     1       1.315  -4.305   0.937  0.00  0.00    +0.045 A 
ATOM     13  C   UNL     1       1.134  -3.713   2.179  0.00  0.00    +0.024 A 
ATOM     14  C   UNL     1       1.463  -2.385   2.365  0.00  0.00    +0.005 A 
ENDBRANCH   1  12
BRANCH   5  15
ATOM     15  C   UNL     1       0.580  -8.533  -1.450  0.00  0.00    +0.114 C 
BRANCH  15  16
ATOM     16  C   UNL     1      -0.779  -8.411  -2.143  0.00  0.00    +0.049 C 
BRANCH  16  17
ATOM     17  C   UNL     1      -0.811  -9.314  -3.349  0.00  0.00    -0.072 C 
ATOM     18  C   UNL     1      -1.297 -10.505  -3.202  0.00  0.00    -0.028 C 
ATOM     19  C   UNL     1      -1.385 -11.519  -4.305  0.00  0.00    +0.027 C 
ATOM     20  C   UNL     1      -1.233 -10.833  -5.665  0.00  0.00    +0.004 C 
ATOM     21  C   UNL     1       0.003  -9.927  -5.615  0.00  0.00    +0.005 C 
ATOM     22  C   UNL     1      -0.282  -8.776  -4.646  0.00  0.00    +0.030 C 
ENDBRANCH  16  17
ENDBRANCH  15  16
ENDBRANCH   5  15
BRANCH   4  23
ATOM     23  C   UNL     1      -1.107  -8.251   1.242  0.00  0.00    +0.128 C 
BRANCH  23  24
ATOM     24  C   UNL     1      -1.373  -8.549   2.695  0.00  0.00    +0.219 C 
ATOM     25  O   UNL     1      -0.468  -8.496   3.501  0.00  0.00    -0.275 OA
ATOM     26  N   UNL     1      -2.617  -8.874   3.099  0.00  0.00    -0.285 N 
ATOM     27  H   UNL     1      -3.323  -8.998   2.445  0.00  0.00    +0.155 HD
BRANCH  26  28
ATOM     28  C   UNL     1      -2.891  -9.035   4.463  0.00  0.00    +0.034 A 
ATOM     29  C   UNL     1      -2.235  -8.248   5.401  0.00  0.00    +0.026 A 
ATOM     30  C   UNL     1      -2.507  -8.408   6.745  0.00  0.00    +0.040 A 
ATOM     31  C   UNL     1      -3.432  -9.352   7.159  0.00  0.00    +0.124 A 
ATOM     32  C   UNL     1      -4.087 -10.137   6.225  0.00  0.00    +0.040 A 
ATOM     33  C   UNL     1      -3.823  -9.976   4.879  0.00  0.00    +0.026 A 
ATOM     34  F   UNL     1      -3.695  -9.507   8.475  0.00  0.00    -0.205 F 
ENDBRANCH  26  28
ENDBRANCH  23  24
ENDBRANCH   4  23
TORSDOF 7
