REMARK  Name = ZINC40376006
REMARK  5 active torsions:
REMARK  status: ('A' for Active; 'I' for Inactive)
REMARK    1  A    between atoms: C_3  and  N_11
REMARK    2  A    between atoms: C_6  and  C_7
REMARK    3  A    between atoms: N_8  and  O_9
REMARK    4  A    between atoms: N_11  and  S_12
REMARK    5  A    between atoms: S_12  and  C_15
REMARK                            x       y       z     vdW  Elec       q    Type
REMARK                         _______ _______ _______ _____ _____    ______ ____
ROOT
ATOM      1  C   UNL     1       0.099   2.111  -0.380  0.00  0.00    +0.013 A 
ATOM      2  C   UNL     1       1.373   2.636  -0.404  0.00  0.00    +0.025 A 
ATOM      3  C   UNL     1       2.471   1.809  -0.194  0.00  0.00    +0.048 A 
ATOM      4  C   UNL     1       2.288   0.450   0.040  0.00  0.00    +0.025 A 
ATOM      5  C   UNL     1       1.017  -0.080   0.065  0.00  0.00    +0.013 A 
ATOM      6  C   UNL     1      -0.088   0.748  -0.145  0.00  0.00    +0.018 A 
ENDROOT
BRANCH   6   7
ATOM      7  C   UNL     1      -1.454   0.181  -0.118  0.00  0.00    +0.162 C 
ATOM      8  N   UNL     1      -1.716  -0.849   0.633  0.00  0.00    -0.072 NA
ATOM      9  N   UNL     1      -2.453   0.747  -0.891  0.00  0.00    -0.340 N 
ATOM     10  H   UNL     1      -2.257   1.515  -1.451  0.00  0.00    +0.144 HD
ATOM     11  H   UNL     1      -3.349   0.375  -0.874  0.00  0.00    +0.144 HD
BRANCH   8  12
ATOM     12  O   UNL     1      -0.731  -1.350   1.518  0.00  0.00    -0.408 OA
ATOM     13  H   UNL     1      -1.018  -2.116   2.034  0.00  0.00    +0.328 HD
ENDBRANCH   8  12
ENDBRANCH   6   7
BRANCH   3  14
ATOM     14  N   UNL     1       3.759   2.343  -0.219  0.00  0.00    -0.216 N 
ATOM     15  H   UNL     1       4.023   2.938  -0.938  0.00  0.00    +0.174 HD
BRANCH  14  16
ATOM     16  S   UNL     1       4.837   1.960   0.978  0.00  0.00    +0.079 S 
ATOM     17  O   UNL     1       4.842   0.543   1.082  0.00  0.00    -0.149 OA
ATOM     18  O   UNL     1       6.016   2.709   0.717  0.00  0.00    -0.149 OA
BRANCH  16  19
ATOM     19  C   UNL     1       4.175   2.574   2.491  0.00  0.00    +0.147 A 
ATOM     20  C   UNL     1       3.436   1.926   3.424  0.00  0.00    +0.038 A 
ATOM     21  C   UNL     1       3.020   2.615   4.548  0.00  0.00    +0.025 A 
ATOM     22  C   UNL     1       3.363   3.921   4.682  0.00  0.00    +0.057 A 
ATOM     23  S   UNL     1       4.309   4.209   3.196  0.00  0.00    -0.061 S 
ATOM     24 BR   UNL     1       2.953   5.122   6.084  0.00  0.00    -0.043 Br
ENDBRANCH  16  19
ENDBRANCH  14  16
ENDBRANCH   3  14
TORSDOF 5
