REMARK  Name = ZINC09444479
REMARK  10 active torsions:
REMARK  status: ('A' for Active; 'I' for Inactive)
REMARK    1  A    between atoms: C_1  and  C_2
REMARK    2  A    between atoms: C_2  and  C_4
REMARK    3  A    between atoms: C_7  and  O_10
REMARK    4  A    between atoms: O_10  and  C_11
REMARK    5  A    between atoms: C_11  and  C_12
REMARK    6  A    between atoms: C_12  and  C_14
REMARK    7  A    between atoms: C_12  and  O_36
REMARK    8  A    between atoms: C_14  and  N_66
REMARK    9  A    between atoms: C_17  and  C_20
REMARK   10  A    between atoms: C_20  and  N_21
REMARK                            x       y       z     vdW  Elec       q    Type
REMARK                         _______ _______ _______ _____ _____    ______ ____
ROOT
ATOM      1  C   UNL     1      -2.123   1.634   1.192  0.00  0.00    -0.078 C 
ATOM      2  C   UNL     1      -2.777   2.013   2.523  0.00  0.00    -0.014 C 
ATOM      3  C   UNL     1      -2.622   3.519   2.752  0.00  0.00    +0.003 C 
ATOM      4  C   UNL     1      -1.134   3.880   2.730  0.00  0.00    -0.014 C 
ATOM      5  C   UNL     1      -0.529   3.447   1.393  0.00  0.00    -0.078 C 
ATOM      6  N   UNL     1      -0.688   1.985   1.245  0.00  0.00    +0.381 N 
ATOM      7  H   UNL     1      -0.261   1.520   2.055  0.00  0.00    -0.082 HD
ENDROOT
BRANCH   6   8
ATOM      8  C   UNL     1      -0.011   1.525   0.015  0.00  0.00    -0.044 C 
BRANCH   8   9
ATOM      9  C   UNL     1       0.001  -0.005   0.002  0.00  0.00    +0.135 C 
BRANCH   9  10
ATOM     10  O   UNL     1       0.684  -0.486   1.161  0.00  0.00    -0.390 OA
ATOM     11  H   UNL     1       1.603  -0.194   1.226  0.00  0.00    +0.210 HD
ENDBRANCH   9  10
BRANCH   9  12
ATOM     12  C   UNL     1       0.720  -0.498  -1.255  0.00  0.00    +0.258 C 
BRANCH  12  13
ATOM     13  O   UNL     1       0.630  -1.923  -1.327  0.00  0.00    -0.489 OA
BRANCH  13  17
ATOM     14  C   UNL     1       2.425  -3.751  -4.558  0.00  0.00    +0.017 A 
ATOM     15  C   UNL     1       1.765  -4.521  -3.592  0.00  0.00    +0.015 A 
ATOM     16  C   UNL     1       1.169  -3.908  -2.520  0.00  0.00    +0.046 A 
ATOM     17  C   UNL     1       1.221  -2.524  -2.390  0.00  0.00    +0.121 A 
ATOM     18  C   UNL     1       1.871  -1.754  -3.349  0.00  0.00    +0.046 A 
ATOM     19  C   UNL     1       2.474  -2.358  -4.422  0.00  0.00    +0.015 A 
BRANCH  14  21
ATOM     20  C   UNL     1       3.667  -3.566  -6.808  0.00  0.00    +0.091 C 
ATOM     21  C   UNL     1       3.066  -4.402  -5.708  0.00  0.00    +0.160 C 
ATOM     22  O   UNL     1       3.110  -5.612  -5.772  0.00  0.00    -0.292 OA
ENDBRANCH  14  21
ENDBRANCH  13  17
ENDBRANCH  12  13
ENDBRANCH   9  12
ENDBRANCH   8   9
ENDBRANCH   6   8
BRANCH   3  23
ATOM     23  C   UNL     1      -3.220   3.894   4.109  0.00  0.00    +0.120 C 
BRANCH  23  24
ATOM     24  N   UNL     1      -4.665   3.659   4.088  0.00  0.00    -0.234 N 
ATOM     25  C   UNL     1      -5.480   4.660   3.703  0.00  0.00    +0.254 C 
ATOM     26  O   UNL     1      -5.007   5.734   3.380  0.00  0.00    -0.270 OA
ATOM     27  C   UNL     1      -6.936   4.461   3.664  0.00  0.00    +0.046 A 
ATOM     28  C   UNL     1      -7.810   5.462   3.268  0.00  0.00    +0.014 A 
ATOM     29  C   UNL     1      -9.180   5.227   3.252  0.00  0.00    +0.001 A 
ATOM     30  C   UNL     1      -9.703   4.020   3.620  0.00  0.00    +0.008 A 
ATOM     31  C   UNL     1      -8.851   2.979   4.028  0.00  0.00    -0.016 A 
ATOM     32  C   UNL     1      -7.459   3.205   4.048  0.00  0.00    +0.006 A 
ATOM     33  C   UNL     1      -6.576   2.178   4.453  0.00  0.00    +0.046 A 
ATOM     34  C   UNL     1      -7.099   0.950   4.828  0.00  0.00    +0.014 A 
ATOM     35  C   UNL     1      -8.473   0.739   4.804  0.00  0.00    +0.001 A 
ATOM     36  C   UNL     1      -9.341   1.720   4.416  0.00  0.00    +0.008 A 
ATOM     37  C   UNL     1      -5.132   2.452   4.460  0.00  0.00    +0.254 C 
ATOM     38  O   UNL     1      -4.353   1.583   4.805  0.00  0.00    -0.270 OA
ENDBRANCH  23  24
ENDBRANCH   3  23
TORSDOF 9
