REMARK  Name = ZINC38737397
REMARK  7 active torsions:
REMARK  status: ('A' for Active; 'I' for Inactive)
REMARK    1  A    between atoms: C_3  and  C_8
REMARK    2  A    between atoms: C_10  and  N_30
REMARK    3  A    between atoms: N_11  and  C_13
REMARK    4  A    between atoms: C_16  and  C_19
REMARK    5  A    between atoms: N_21  and  C_22
REMARK    6  A    between atoms: C_22  and  C_23
REMARK    7  A    between atoms: C_23  and  C_24
REMARK                            x       y       z     vdW  Elec       q    Type
REMARK                         _______ _______ _______ _____ _____    ______ ____
ROOT
ATOM      1  C   UNL     1       5.685   5.083  -0.019  0.00  0.00    +0.067 A 
ATOM      2  C   UNL     1       6.876   5.331   0.656  0.00  0.00    +0.028 A 
ATOM      3  C   UNL     1       7.414   6.598   0.664  0.00  0.00    +0.015 A 
ATOM      4  C   UNL     1       6.762   7.636  -0.008  0.00  0.00    +0.037 A 
ATOM      5  C   UNL     1       5.566   7.384  -0.685  0.00  0.00    +0.015 A 
ATOM      6  C   UNL     1       5.037   6.112  -0.693  0.00  0.00    +0.028 A 
ENDROOT
BRANCH   1  10
ATOM      7  C   UNL     1       3.660   2.166  -0.022  0.00  0.00    +0.095 A 
ATOM      8  C   UNL     1       4.952   1.607  -0.043  0.00  0.00    +0.073 A 
ATOM      9  C   UNL     1       5.847   2.629  -0.044  0.00  0.00    +0.120 A 
ATOM     10  N   UNL     1       5.143   3.796  -0.025  0.00  0.00    -0.218 N 
ATOM     11  N   UNL     1       3.779   3.477  -0.017  0.00  0.00    -0.165 NA
BRANCH   7  14
ATOM     12  C   UNL     1      -0.017   1.379   0.010  0.00  0.00    +0.002 A 
ATOM     13  C   UNL     1       1.168   2.088   0.002  0.00  0.00    +0.010 A 
ATOM     14  C   UNL     1       2.384   1.409  -0.013  0.00  0.00    +0.004 A 
ATOM     15  C   UNL     1       2.398   0.015  -0.021  0.00  0.00    +0.030 A 
ATOM     16  C   UNL     1       1.208  -0.685  -0.013  0.00  0.00    +0.042 A 
ATOM     17  C   UNL     1       0.002  -0.004   0.002  0.00  0.00    +0.020 A 
ATOM     18 CL   UNL     1       1.223  -2.421  -0.023  0.00  0.00    -0.084 Cl
ENDBRANCH   7  14
BRANCH   9  19
ATOM     19  N   UNL     1       7.233   2.507  -0.062  0.00  0.00    -0.343 N 
ATOM     20  H   UNL     1       7.643   1.628  -0.075  0.00  0.00    +0.144 HD
ATOM     21  H   UNL     1       7.790   3.301  -0.061  0.00  0.00    +0.144 HD
ENDBRANCH   9  19
ENDBRANCH   1  10
BRANCH   4  22
ATOM     22  C   UNL     1       7.335   8.997  -0.001  0.00  0.00    +0.244 C 
ATOM     23  O   UNL     1       8.376   9.215   0.589  0.00  0.00    -0.270 OA
ATOM     24  N   UNL     1       6.705   9.997  -0.649  0.00  0.00    -0.311 N 
ATOM     25  H   UNL     1       5.875   9.822  -1.120  0.00  0.00    +0.149 HD
BRANCH  24  26
ATOM     26  C   UNL     1       7.274  11.347  -0.643  0.00  0.00    +0.109 C 
BRANCH  26  27
ATOM     27  C   UNL     1       6.370  12.285  -1.445  0.00  0.00    +0.055 C 
BRANCH  27  28
ATOM     28  C   UNL     1       6.955  13.674  -1.438  0.00  0.00    -0.028 A 
ATOM     29  C   UNL     1       6.616  14.574  -0.439  0.00  0.00    +0.006 A 
ATOM     30  C   UNL     1       7.179  15.840  -0.473  0.00  0.00    +0.020 A 
ATOM     31  C   UNL     1       8.053  16.161  -1.495  0.00  0.00    +0.111 A 
ATOM     32  N   UNL     1       8.352  15.280  -2.429  0.00  0.00    -0.263 NA
ATOM     33  C   UNL     1       7.841  14.064  -2.424  0.00  0.00    +0.114 A 
ENDBRANCH  27  28
ENDBRANCH  26  27
ENDBRANCH  24  26
ENDBRANCH   4  22
TORSDOF 7
