REMARK  Name = ZINC49208850
REMARK  3 active torsions:
REMARK  status: ('A' for Active; 'I' for Inactive)
REMARK    1  A    between atoms: C_7  and  S_9
REMARK    2  A    between atoms: S_9  and  C_10
REMARK    3  A    between atoms: C_10  and  C_11
REMARK                            x       y       z     vdW  Elec       q    Type
REMARK                         _______ _______ _______ _____ _____    ______ ____
ROOT
ATOM      1  C   UNL     1      -1.504  -2.428   0.182  0.00  0.00    +0.165 C 
ENDROOT
BRANCH   1   2
ATOM      2  C   UNL     1      -2.831  -3.080   0.471  0.00  0.00    +0.225 C 
ATOM      3  O   UNL     1      -3.787  -2.400   0.779  0.00  0.00    -0.275 OA
ATOM      4  N   UNL     1      -2.956  -4.420   0.387  0.00  0.00    -0.299 N 
ATOM      5  C   UNL     1      -1.795  -5.232   0.020  0.00  0.00    +0.118 C 
ATOM      6  C   UNL     1      -1.395  -6.116   1.207  0.00  0.00    +0.088 C 
ATOM      7  S   UNL     1      -2.824  -7.133   1.683  0.00  0.00    -0.158 S 
ATOM      8  C   UNL     1      -4.143  -5.905   1.927  0.00  0.00    +0.088 C 
ATOM      9  C   UNL     1      -4.249  -5.044   0.668  0.00  0.00    +0.118 C 
ENDBRANCH   1   2
BRANCH   1  10
ATOM     10  S   UNL     1      -1.658  -0.631   0.379  0.00  0.00    -0.146 S 
BRANCH  10  17
ATOM     11  C   UNL     1      -0.019   1.534   0.011  0.00  0.00    +0.038 C 
ATOM     12  C   UNL     1       1.453   2.038  -0.001  0.00  0.00    +0.167 C 
ATOM     13  S   UNL     1       2.228   0.842   1.167  0.00  0.00    -0.030 S 
ATOM     14  O   UNL     1       3.462   0.398   0.622  0.00  0.00    -0.174 OA
ATOM     15  O   UNL     1       2.199   1.392   2.478  0.00  0.00    -0.174 OA
ATOM     16  C   UNL     1       1.001  -0.524   1.063  0.00  0.00    +0.180 C 
ATOM     17  C   UNL     1       0.002  -0.004   0.002  0.00  0.00    +0.069 C 
ENDBRANCH  10  17
ENDBRANCH   1  10
TORSDOF 3
