REMARK  Name = ZINC14484409
REMARK  7 active torsions:
REMARK  status: ('A' for Active; 'I' for Inactive)
REMARK    1  A    between atoms: C_1  and  C_2
REMARK    2  A    between atoms: C_6  and  C_7
REMARK    3  A    between atoms: N_8  and  N_9
REMARK    4  A    between atoms: C_10  and  C_18
REMARK    5  A    between atoms: N_14  and  C_15
REMARK    6  A    between atoms: C_21  and  O_25
REMARK    7  A    between atoms: C_23  and  O_24
REMARK                            x       y       z     vdW  Elec       q    Type
REMARK                         _______ _______ _______ _____ _____    ______ ____
ROOT
ATOM      1  N   UNL     1      -5.170   1.802  -0.752  0.00  0.00    -0.208 N 
ATOM      2  C   UNL     1      -6.488   2.155  -0.636  0.00  0.00    +0.085 A 
ATOM      3  C   UNL     1      -7.301   2.060  -1.708  0.00  0.00    +0.077 A 
ATOM      4  S   UNL     1      -6.196   1.445  -2.967  0.00  0.00    -0.056 S 
ATOM      5  C   UNL     1      -4.712   1.359  -1.977  0.00  0.00    +0.190 A 
ATOM      6  N   UNL     1      -3.508   0.977  -2.321  0.00  0.00    -0.256 NA
ENDROOT
BRANCH   2   7
ATOM      7  C   UNL     1      -7.016   2.639   0.657  0.00  0.00    +0.043 A 
ATOM      8  C   UNL     1      -6.211   3.404   1.501  0.00  0.00    +0.017 A 
ATOM      9  C   UNL     1      -6.708   3.857   2.705  0.00  0.00    +0.046 A 
ATOM     10  C   UNL     1      -8.007   3.545   3.085  0.00  0.00    +0.120 A 
ATOM     11  C   UNL     1      -8.813   2.780   2.255  0.00  0.00    +0.091 A 
ATOM     12  C   UNL     1      -8.325   2.325   1.043  0.00  0.00    +0.129 A 
BRANCH  12  13
ATOM     13  O   UNL     1      -9.114   1.576   0.228  0.00  0.00    -0.506 OA
ATOM     14  H   UNL     1      -9.051   0.625   0.386  0.00  0.00    +0.292 HD
ENDBRANCH  12  13
BRANCH  10  15
ATOM     15  O   UNL     1      -8.489   3.990   4.275  0.00  0.00    -0.507 OA
ATOM     16  H   UNL     1      -8.337   3.384   5.013  0.00  0.00    +0.292 HD
ENDBRANCH  10  15
ENDBRANCH   2   7
BRANCH   6  17
ATOM     17  C   UNL     1      -3.243   0.541  -3.695  0.00  0.00    +0.108 C 
ATOM     18  C   UNL     1      -1.877  -0.086  -3.985  0.00  0.00    +0.029 C 
ATOM     19  C   UNL     1      -2.198   1.322  -4.494  0.00  0.00    +0.029 C 
ENDBRANCH   6  17
BRANCH   1  21
ATOM     20  C   UNL     1      -3.241   1.145   0.399  0.00  0.00    +0.148 C 
ATOM     21  N   UNL     1      -4.305   1.892   0.346  0.00  0.00    -0.171 NA
BRANCH  20  27
ATOM     22  C   UNL     1      -0.634  -0.455   0.798  0.00  0.00    +0.045 C 
ATOM     23  C   UNL     1      -1.086   0.650   1.718  0.00  0.00    -0.035 A 
ATOM     24  C   UNL     1      -0.332   1.012   2.809  0.00  0.00    +0.011 A 
ATOM     25  C   UNL     1      -0.768   2.012   3.618  0.00  0.00    +0.046 A 
ATOM     26  S   UNL     1      -2.303   2.488   2.839  0.00  0.00    -0.095 S 
ATOM     27  C   UNL     1      -2.269   1.330   1.481  0.00  0.00    +0.035 A 
ENDBRANCH  20  27
ENDBRANCH   1  21
TORSDOF 6
