REMARK  Name = ZINC63425950
REMARK  15 active torsions:
REMARK  status: ('A' for Active; 'I' for Inactive)
REMARK    1  A    between atoms: C_1  and  C_2
REMARK    2  A    between atoms: C_6  and  C_40
REMARK    3  A    between atoms: C_7  and  N_8
REMARK    4  A    between atoms: C_9  and  C_11
REMARK    5  A    between atoms: C_11  and  S_12
REMARK    6  A    between atoms: S_12  and  C_13
REMARK    7  A    between atoms: C_17  and  C_20
REMARK    8  A    between atoms: C_20  and  C_22
REMARK    9  A    between atoms: C_20  and  N_32
REMARK   10  A    between atoms: C_22  and  C_23
REMARK   11  A    between atoms: C_33  and  O_35
REMARK   12  A    between atoms: O_35  and  C_36
REMARK   13  A    between atoms: C_36  and  C_37
REMARK   14  A    between atoms: C_36  and  C_38
REMARK   15  A    between atoms: C_36  and  C_39
REMARK                            x       y       z     vdW  Elec       q    Type
REMARK                         _______ _______ _______ _____ _____    ______ ____
ROOT
ATOM      1  C   UNL     1       1.062   0.779   9.016  0.00  0.00    +0.133 C 
ENDROOT
BRANCH   1   5
ATOM      2  C   UNL     1      -0.657  -1.095  11.478  0.00  0.00    +0.319 C 
ATOM      3  N   UNL     1      -0.440  -1.991  10.335  0.00  0.00    -0.146 NA
ATOM      4  N   UNL     1      -0.165  -1.332   9.324  0.00  0.00    -0.155 NA
ATOM      5  C   UNL     1      -0.158   0.101   9.643  0.00  0.00    +0.280 C 
ATOM      6  O   UNL     1      -0.086   0.170  11.084  0.00  0.00    -0.316 OA
BRANCH   2   7
ATOM      7  S   UNL     1       0.188  -1.736  12.950  0.00  0.00    -0.095 S 
BRANCH   7   8
ATOM      8  C   UNL     1       1.937  -1.768  12.472  0.00  0.00    +0.169 C 
BRANCH   8  10
ATOM      9  N   UNL     1       4.092  -2.440  13.485  0.00  0.00    -0.284 N 
ATOM     10  C   UNL     1       2.747  -2.401  13.574  0.00  0.00    +0.227 C 
ATOM     11  O   UNL     1       2.190  -2.876  14.541  0.00  0.00    -0.275 OA
ATOM     12  H   UNL     1       4.534  -2.122  12.682  0.00  0.00    +0.155 HD
BRANCH   9  19
ATOM     13  C   UNL     1       6.170  -0.805  14.538  0.00  0.00    +0.045 C 
ATOM     14  C   UNL     1       5.873  -2.173  15.095  0.00  0.00    -0.029 A 
ATOM     15  C   UNL     1       6.615  -2.666  16.150  0.00  0.00    +0.005 A 
ATOM     16  C   UNL     1       6.343  -3.922  16.662  0.00  0.00    +0.001 A 
ATOM     17  C   UNL     1       5.329  -4.688  16.119  0.00  0.00    +0.005 A 
ATOM     18  C   UNL     1       4.583  -4.201  15.063  0.00  0.00    -0.029 A 
ATOM     19  C   UNL     1       4.849  -2.938  14.551  0.00  0.00    +0.039 A 
ATOM     20  C   UNL     1       3.477  -5.037  14.471  0.00  0.00    +0.045 C 
ENDBRANCH   9  19
ENDBRANCH   8  10
ENDBRANCH   7   8
ENDBRANCH   2   7
ENDBRANCH   1   5
BRANCH   1  21
ATOM     21  N   UNL     1       0.973   0.690   7.556  0.00  0.00    -0.274 N 
ATOM     22  C   UNL     1      -0.122   1.148   6.918  0.00  0.00    +0.401 C 
ATOM     23  O   UNL     1      -0.992   1.724   7.542  0.00  0.00    -0.226 OA
ATOM     24  H   UNL     1       1.703   0.301   7.049  0.00  0.00    +0.152 HD
BRANCH  22  25
ATOM     25  O   UNL     1      -0.253   0.968   5.591  0.00  0.00    -0.445 OA
BRANCH  25  26
ATOM     26  C   UNL     1      -1.419   1.517   4.973  0.00  0.00    +0.107 C 
ATOM     27  C   UNL     1      -1.457   3.028   5.209  0.00  0.00    +0.055 C 
ATOM     28  C   UNL     1      -1.379   1.236   3.469  0.00  0.00    +0.055 C 
ATOM     29  C   UNL     1      -2.668   0.874   5.579  0.00  0.00    +0.055 C 
ENDBRANCH  25  26
ENDBRANCH  22  25
ENDBRANCH   1  21
BRANCH   1  30
ATOM     30  C   UNL     1       1.101   2.250   9.435  0.00  0.00    +0.060 C 
BRANCH  30  31
ATOM     31  C   UNL     1       2.365   2.886   8.919  0.00  0.00    -0.040 C 
ATOM     32  C   UNL     1       2.513   3.589   7.773  0.00  0.00    -0.001 A 
ATOM     33  C   UNL     1       1.576   3.956   6.704  0.00  0.00    +0.010 A 
ATOM     34  C   UNL     1       2.028   4.683   5.657  0.00  0.00    +0.001 A 
ATOM     35  C   UNL     1       3.365   5.092   5.566  0.00  0.00    +0.002 A 
ATOM     36  C   UNL     1       4.285   4.794   6.509  0.00  0.00    +0.026 A 
ATOM     37  C   UNL     1       3.920   4.035   7.654  0.00  0.00    +0.043 A 
ATOM     38  N   UNL     1       4.615   3.623   8.687  0.00  0.00    -0.380 N 
ATOM     39  C   UNL     1       3.725   2.874   9.581  0.00  0.00    +0.144 C 
ATOM     40  H   UNL     1       5.559   3.789   8.836  0.00  0.00    +0.160 HD
ENDBRANCH  30  31
ENDBRANCH   1  30
TORSDOF 10
