REMARK  Name = ZINC29467025
REMARK  10 active torsions:
REMARK  status: ('A' for Active; 'I' for Inactive)
REMARK    1  A    between atoms: C_1  and  C_2
REMARK    2  A    between atoms: C_2  and  C_3
REMARK    3  A    between atoms: C_2  and  C_4
REMARK    4  A    between atoms: C_2  and  N_34
REMARK    5  A    between atoms: N_6  and  C_7
REMARK    6  A    between atoms: C_7  and  C_9
REMARK    7  A    between atoms: C_7  and  C_18
REMARK    8  A    between atoms: C_9  and  S_10
REMARK    9  A    between atoms: S_10  and  C_11
REMARK   10  A    between atoms: C_11  and  C_12
REMARK                            x       y       z     vdW  Elec       q    Type
REMARK                         _______ _______ _______ _____ _____    ______ ____
ROOT
ATOM      1  C   UNL     1      -2.449   1.117   0.020  0.00  0.00    +0.169 C 
ENDROOT
BRANCH   1   2
ATOM      2  C   UNL     1      -2.523   0.256  -1.215  0.00  0.00    +0.237 C 
ATOM      3  O   UNL     1      -1.511  -0.022  -1.822  0.00  0.00    -0.274 OA
ATOM      4  N   UNL     1      -3.715  -0.204  -1.645  0.00  0.00    -0.300 N 
ATOM      5  C   UNL     1      -4.949   0.119  -0.917  0.00  0.00    +0.108 C 
ATOM      6  C   UNL     1      -5.947   0.746  -1.903  0.00  0.00    +0.030 C 
ATOM      7  C   UNL     1      -6.134  -0.190  -3.095  0.00  0.00    -0.001 C 
ATOM      8  C   UNL     1      -6.709  -1.537  -2.619  0.00  0.00    +0.016 C 
ATOM      9  C   UNL     1      -7.630  -1.936  -3.792  0.00  0.00    +0.036 C 
ATOM     10  C   UNL     1      -8.024  -0.629  -4.448  0.00  0.00    -0.044 A 
ATOM     11  C   UNL     1      -7.161   0.375  -4.048  0.00  0.00    -0.038 A 
ATOM     12  C   UNL     1      -7.331   1.661  -4.529  0.00  0.00    +0.004 A 
ATOM     13  C   UNL     1      -8.360   1.946  -5.406  0.00  0.00    +0.000 A 
ATOM     14  C   UNL     1      -9.224   0.943  -5.805  0.00  0.00    +0.000 A 
ATOM     15  C   UNL     1      -9.055  -0.342  -5.327  0.00  0.00    +0.004 A 
ATOM     16  C   UNL     1      -4.809  -0.415  -3.816  0.00  0.00    +0.030 C 
ATOM     17  C   UNL     1      -3.802  -1.044  -2.847  0.00  0.00    +0.108 C 
ENDBRANCH   1   2
BRANCH   1  20
ATOM     18  C   UNL     1      -0.014   1.209   0.009  0.00  0.00    +0.202 C 
ATOM     19  O   UNL     1       0.002  -0.004   0.002  0.00  0.00    -0.277 OA
ATOM     20  N   UNL     1      -1.191   1.867   0.018  0.00  0.00    -0.304 N 
ATOM     21  H   UNL     1      -1.206   2.966   0.024  0.00  0.00    +0.149 HD
BRANCH  18  23
ATOM     22  C   UNL     1       2.393   1.114   0.595  0.00  0.00    -0.001 C 
ATOM     23  C   UNL     1       1.280   1.980   0.001  0.00  0.00    +0.001 C 
ATOM     24  C   UNL     1       1.640   2.357  -1.438  0.00  0.00    -0.001 C 
BRANCH  23  25
ATOM     25  N   UNL     1       1.128   3.201   0.803  0.00  0.00    +0.387 N 
ATOM     26  H   UNL     1       0.328   3.823   0.376  0.00  0.00    -0.089 HD
ATOM     27  H   UNL     1       2.073   3.764   0.797  0.00  0.00    -0.089 HD
ATOM     28  H   UNL     1       0.869   2.930   1.837  0.00  0.00    -0.089 HD
ENDBRANCH  23  25
ENDBRANCH  18  23
ENDBRANCH   1  20
BRANCH   1  29
ATOM     29  C   UNL     1      -2.512   0.230   1.264  0.00  0.00    +0.101 C 
BRANCH  29  30
ATOM     30  S   UNL     1      -2.572   1.272   2.748  0.00  0.00    -0.154 S 
BRANCH  30  31
ATOM     31  C   UNL     1      -2.643   0.084   4.117  0.00  0.00    +0.104 C 
BRANCH  31  32
ATOM     32  C   UNL     1      -2.698   0.828   5.426  0.00  0.00    -0.038 A 
ATOM     33  C   UNL     1      -1.527   1.156   6.084  0.00  0.00    +0.004 A 
ATOM     34  C   UNL     1      -1.577   1.843   7.282  0.00  0.00    +0.000 A 
ATOM     35  C   UNL     1      -2.797   2.194   7.828  0.00  0.00    +0.000 A 
ATOM     36  C   UNL     1      -3.968   1.861   7.173  0.00  0.00    +0.000 A 
ATOM     37  C   UNL     1      -3.919   1.178   5.972  0.00  0.00    +0.004 A 
ENDBRANCH  31  32
ENDBRANCH  30  31
ENDBRANCH  29  30
ENDBRANCH   1  29
TORSDOF 8
