REMARK  Name = ZINC16470319
REMARK  7 active torsions:
REMARK  status: ('A' for Active; 'I' for Inactive)
REMARK    1  A    between atoms: C_1  and  C_2
REMARK    2  A    between atoms: N_10  and  C_13
REMARK    3  A    between atoms: C_13  and  C_14
REMARK    4  A    between atoms: C_14  and  C_15
REMARK    5  A    between atoms: N_17  and  C_18
REMARK    6  A    between atoms: C_19  and  C_28
REMARK    7  A    between atoms: C_26  and  C_27
REMARK                            x       y       z     vdW  Elec       q    Type
REMARK                         _______ _______ _______ _____ _____    ______ ____
ROOT
ATOM      1  C   UNL     1       4.165   1.843  -0.131  0.00  0.00    +0.220 C 
ATOM      2  O   UNL     1       3.561   2.895  -0.119  0.00  0.00    -0.275 OA
ATOM      3  N   UNL     1       3.494   0.679  -0.028  0.00  0.00    -0.270 N 
ATOM      4  H   UNL     1       3.980  -0.158   0.034  0.00  0.00    +0.156 HD
ENDROOT
BRANCH   3   5
ATOM      5  C   UNL     1       2.098   0.677  -0.012  0.00  0.00    +0.137 A 
ATOM      6  C   UNL     1       1.265   0.165  -0.985  0.00  0.00    +0.112 A 
ATOM      7  N   UNL     1      -0.005   0.363  -0.592  0.00  0.00    -0.226 NA
ATOM      8  C   UNL     1      -0.009   0.974   0.582  0.00  0.00    +0.143 A 
ATOM      9  N   UNL     1       1.293   1.185   0.971  0.00  0.00    -0.287 N 
ATOM     10  C   UNL     1       1.569   1.805   2.158  0.00  0.00    +0.094 A 
ATOM     11  C   UNL     1       0.571   2.218   2.965  0.00  0.00    +0.018 A 
ATOM     12  C   UNL     1      -0.770   2.017   2.596  0.00  0.00    +0.008 A 
ATOM     13  C   UNL     1      -1.062   1.399   1.421  0.00  0.00    -0.008 A 
ATOM     14  C   UNL     1      -2.495   1.171   1.016  0.00  0.00    +0.047 C 
BRANCH   6  15
ATOM     15  C   UNL     1       1.695  -0.487  -2.244  0.00  0.00    +0.004 A 
ATOM     16  C   UNL     1       2.836  -0.041  -2.910  0.00  0.00    +0.010 A 
ATOM     17  C   UNL     1       3.235  -0.657  -4.078  0.00  0.00    +0.001 A 
ATOM     18  C   UNL     1       2.498  -1.707  -4.596  0.00  0.00    +0.000 A 
ATOM     19  C   UNL     1       1.362  -2.151  -3.944  0.00  0.00    +0.001 A 
ATOM     20  C   UNL     1       0.957  -1.547  -2.771  0.00  0.00    +0.010 A 
ENDBRANCH   6  15
ENDBRANCH   3   5
BRANCH   1  21
ATOM     21  C   UNL     1       5.667   1.837  -0.259  0.00  0.00    +0.118 C 
BRANCH  21  22
ATOM     22  C   UNL     1       6.175   3.277  -0.358  0.00  0.00    +0.135 C 
BRANCH  22  32
ATOM     23  C   UNL     1      12.300   3.194  -2.481  0.00  0.00    +0.046 C 
ATOM     24  C   UNL     1      11.745   3.248  -1.081  0.00  0.00    -0.024 A 
ATOM     25  C   UNL     1      12.597   3.291   0.000  0.00  0.00    +0.005 A 
ATOM     26  C   UNL     1      12.100   3.340   1.296  0.00  0.00    +0.001 A 
ATOM     27  C   UNL     1      10.742   3.348   1.526  0.00  0.00    +0.015 A 
ATOM     28  C   UNL     1       9.862   3.307   0.446  0.00  0.00    +0.065 A 
ATOM     29  C   UNL     1      10.364   3.257  -0.874  0.00  0.00    +0.081 A 
ATOM     30  N   UNL     1       9.489   3.217  -1.909  0.00  0.00    -0.237 NA
ATOM     31  C   UNL     1       8.205   3.224  -1.716  0.00  0.00    +0.202 A 
ATOM     32  N   UNL     1       7.635   3.272  -0.483  0.00  0.00    -0.298 N 
ATOM     33  C   UNL     1       8.403   3.320   0.630  0.00  0.00    +0.262 A 
ATOM     34  O   UNL     1       7.906   3.368   1.740  0.00  0.00    -0.267 OA
ENDBRANCH  22  32
ENDBRANCH  21  22
ENDBRANCH   1  21
TORSDOF 5
