REMARK  Name = ZINC44779430
REMARK  10 active torsions:
REMARK  status: ('A' for Active; 'I' for Inactive)
REMARK    1  A    between atoms: C_1  and  C_2
REMARK    2  A    between atoms: C_2  and  C_3
REMARK    3  A    between atoms: C_3  and  C_4
REMARK    4  A    between atoms: C_3  and  C_6
REMARK    5  A    between atoms: C_3  and  C_9
REMARK    6  A    between atoms: C_4  and  C_5
REMARK    7  A    between atoms: C_6  and  N_8
REMARK    8  A    between atoms: N_11  and  C_12
REMARK    9  A    between atoms: C_12  and  C_14
REMARK   10  A    between atoms: C_12  and  C_15
REMARK                            x       y       z     vdW  Elec       q    Type
REMARK                         _______ _______ _______ _____ _____    ______ ____
ROOT
ATOM      1  C   UNL     1      -2.126   0.103  -1.165  0.00  0.00    +0.226 C 
ATOM      2  O   UNL     1      -3.005   0.919  -0.983  0.00  0.00    -0.275 OA
ATOM      3  N   UNL     1      -1.768  -0.234  -2.420  0.00  0.00    -0.307 N 
ATOM      4  H   UNL     1      -1.065  -0.887  -2.565  0.00  0.00    +0.149 HD
ENDROOT
BRANCH   3   5
ATOM      5  C   UNL     1      -2.441   0.385  -3.564  0.00  0.00    +0.107 C 
ATOM      6  C   UNL     1      -1.770   1.721  -3.889  0.00  0.00    +0.033 C 
BRANCH   5   7
ATOM      7  C   UNL     1      -2.344  -0.529  -4.758  0.00  0.00    +0.011 A 
ATOM      8  C   UNL     1      -3.279  -0.806  -5.699  0.00  0.00    +0.014 A 
ATOM      9  C   UNL     1      -2.966  -1.687  -6.718  0.00  0.00    +0.028 A 
ATOM     10  C   UNL     1      -1.731  -2.248  -6.745  0.00  0.00    +0.078 A 
ATOM     11  S   UNL     1      -0.965  -1.523  -5.304  0.00  0.00    -0.080 S 
ATOM     12 CL   UNL     1      -1.067  -3.374  -7.886  0.00  0.00    -0.076 Cl
ENDBRANCH   5   7
ENDBRANCH   3   5
BRANCH   1  13
ATOM     13  C   UNL     1      -1.433  -0.534   0.013  0.00  0.00    +0.091 C 
BRANCH  13  15
ATOM     14  C   UNL     1       0.451   1.091  -0.217  0.00  0.00    +0.005 C 
ATOM     15  C   UNL     1       0.082  -0.393  -0.149  0.00  0.00    +0.019 C 
ENDBRANCH  13  15
BRANCH  13  16
ATOM     16  C   UNL     1      -1.803  -2.017   0.081  0.00  0.00    +0.019 C 
ATOM     17  C   UNL     1      -3.318  -2.158   0.243  0.00  0.00    +0.005 C 
ENDBRANCH  13  16
BRANCH  13  18
ATOM     18  C   UNL     1      -1.869   0.152   1.282  0.00  0.00    +0.061 C 
ATOM     19  S   UNL     1      -2.278   1.697   1.257  0.00  0.00    -0.040 S 
BRANCH  18  20
ATOM     20  N   UNL     1      -1.914  -0.538   2.439  0.00  0.00    -0.355 N 
ATOM     21  H   UNL     1      -1.666  -1.476   2.455  0.00  0.00    +0.143 HD
ATOM     22  H   UNL     1      -2.194  -0.097   3.256  0.00  0.00    +0.143 HD
ENDBRANCH  18  20
ENDBRANCH  13  18
ENDBRANCH   1  13
TORSDOF 7
