REMARK  Name = ZINC35742232
REMARK  9 active torsions:
REMARK  status: ('A' for Active; 'I' for Inactive)
REMARK    1  A    between atoms: C_1  and  C_2
REMARK    2  A    between atoms: C_5  and  C_8
REMARK    3  A    between atoms: N_10  and  C_11
REMARK    4  A    between atoms: N_10  and  C_18
REMARK    5  A    between atoms: C_11  and  C_12
REMARK    6  A    between atoms: C_18  and  C_19
REMARK    7  A    between atoms: C_29  and  C_31
REMARK    8  A    between atoms: C_31  and  O_32
REMARK    9  A    between atoms: O_32  and  C_33
REMARK                            x       y       z     vdW  Elec       q    Type
REMARK                         _______ _______ _______ _____ _____    ______ ____
ROOT
ATOM      1  C   UNL     1       1.696  -6.629   0.971  0.00  0.00    +0.234 C 
ATOM      2  O   UNL     1       2.468  -5.697   0.900  0.00  0.00    -0.274 OA
ATOM      3  N   UNL     1       2.159  -7.893   0.922  0.00  0.00    -0.289 N 
ATOM      4  C   UNL     1       1.231  -9.031   1.001  0.00  0.00    +0.114 C 
ATOM      5  C   UNL     1       1.525  -9.805   2.296  0.00  0.00    +0.061 C 
ATOM      6  C   UNL     1       3.005  -9.929   2.454  0.00  0.00    -0.004 A 
ATOM      7  C   UNL     1       3.977  -9.220   1.817  0.00  0.00    -0.014 A 
ATOM      8  C   UNL     1       5.295  -9.525   2.151  0.00  0.00    +0.013 A 
ATOM      9  C   UNL     1       5.556 -10.490   3.063  0.00  0.00    +0.046 A 
ATOM     10  S   UNL     1       3.912 -11.029   3.509  0.00  0.00    -0.101 S 
ATOM     11  C   UNL     1       3.598  -8.155   0.784  0.00  0.00    +0.144 C 
ENDROOT
BRANCH   1  12
ATOM     12  C   UNL     1       0.217  -6.373   1.112  0.00  0.00    +0.204 C 
BRANCH  12  15
ATOM     13  C   UNL     1      -0.332  -4.275   0.002  0.00  0.00    +0.247 C 
ATOM     14  O   UNL     1      -0.476  -3.068   0.014  0.00  0.00    -0.270 OA
ATOM     15  N   UNL     1      -0.028  -4.929   1.140  0.00  0.00    -0.286 N 
BRANCH  13  20
ATOM     16  C   UNL     1      -0.954  -7.197  -4.916  0.00  0.00    +0.044 C 
ATOM     17  C   UNL     1      -0.791  -6.432  -3.628  0.00  0.00    -0.050 A 
ATOM     18  C   UNL     1       0.335  -6.628  -2.848  0.00  0.00    +0.004 A 
ATOM     19  C   UNL     1       0.490  -5.931  -1.668  0.00  0.00    +0.013 A 
ATOM     20  C   UNL     1      -0.492  -5.026  -1.262  0.00  0.00    +0.037 A 
ATOM     21  C   UNL     1      -1.625  -4.832  -2.054  0.00  0.00    +0.013 A 
ATOM     22  C   UNL     1      -1.765  -5.532  -3.234  0.00  0.00    +0.004 A 
ENDBRANCH  13  20
BRANCH  15  23
ATOM     23  C   UNL     1       0.058  -4.196   2.406  0.00  0.00    +0.140 C 
BRANCH  23  24
ATOM     24  C   UNL     1      -1.339  -4.070   3.018  0.00  0.00    +0.136 C 
ATOM     25  C   UNL     1      -1.277  -3.196   4.289  0.00  0.00    +0.035 C 
ATOM     26  C   UNL     1      -2.262  -3.928   5.240  0.00  0.00    +0.031 C 
ATOM     27  C   UNL     1      -2.031  -5.402   4.825  0.00  0.00    +0.160 C 
ATOM     28  O   UNL     1      -1.819  -5.363   3.402  0.00  0.00    -0.375 OA
ENDBRANCH  23  24
ENDBRANCH  15  23
ENDBRANCH  12  15
ENDBRANCH   1  12
BRANCH  11  29
ATOM     29  C   UNL     1       3.899  -8.665  -0.626  0.00  0.00    +0.256 C 
BRANCH  29  30
ATOM     30  O   UNL     1       3.269  -9.932  -0.819  0.00  0.00    -0.490 OA
BRANCH  30  31
ATOM     31  C   UNL     1       3.438 -10.528  -2.029  0.00  0.00    +0.123 A 
ATOM     32  C   UNL     1       4.201  -9.907  -3.008  0.00  0.00    +0.046 A 
ATOM     33  C   UNL     1       4.372 -10.514  -4.237  0.00  0.00    +0.006 A 
ATOM     34  C   UNL     1       3.785 -11.739  -4.494  0.00  0.00    +0.038 A 
ATOM     35  C   UNL     1       3.023 -12.361  -3.519  0.00  0.00    +0.127 A 
ATOM     36  C   UNL     1       2.854 -11.759  -2.284  0.00  0.00    +0.084 A 
ATOM     37  F   UNL     1       2.450 -13.558  -3.772  0.00  0.00    -0.205 F 
ENDBRANCH  30  31
ENDBRANCH  29  30
ENDBRANCH  11  29
TORSDOF 8
