REMARK  Name = ZINC39701115
REMARK  9 active torsions:
REMARK  status: ('A' for Active; 'I' for Inactive)
REMARK    1  A    between atoms: C_1  and  C_2
REMARK    2  A    between atoms: C_4  and  C_10
REMARK    3  A    between atoms: C_6  and  C_9
REMARK    4  A    between atoms: C_7  and  O_8
REMARK    5  A    between atoms: C_11  and  C_12
REMARK    6  A    between atoms: C_12  and  C_14
REMARK    7  A    between atoms: C_15  and  C_24
REMARK    8  A    between atoms: CA_16  and  C_21
REMARK    9  A    between atoms: C_19  and  C_20
REMARK                            x       y       z     vdW  Elec       q    Type
REMARK                         _______ _______ _______ _____ _____    ______ ____
ROOT
ATOM      1  C   UNL     1      -0.217  -2.848  -2.431  0.00  0.00    +0.012 C 
ATOM      2  C   UNL     1      -0.197  -4.200  -2.464  0.00  0.00    +0.052 C 
ENDROOT
BRANCH   1   6
ATOM      3  C   UNL     1      -0.736   1.409   0.106  0.00  0.00    +0.047 C 
ATOM      4  C   UNL     1      -0.713  -0.097   0.065  0.00  0.00    -0.008 A 
ATOM      5  C   UNL     1      -0.483  -0.748  -1.126  0.00  0.00    +0.015 A 
ATOM      6  C   UNL     1      -0.461  -2.148  -1.163  0.00  0.00    -0.024 A 
ATOM      7  C   UNL     1      -0.673  -2.878   0.013  0.00  0.00    +0.015 A 
ATOM      8  C   UNL     1      -0.902  -2.217   1.199  0.00  0.00    -0.008 A 
ATOM      9  C   UNL     1      -0.917  -0.827   1.231  0.00  0.00    +0.123 A 
ATOM     10  C   UNL     1      -1.130  -3.001   2.465  0.00  0.00    +0.047 C 
BRANCH   9  11
ATOM     11  O   UNL     1      -1.137  -0.179   2.403  0.00  0.00    -0.506 OA
ATOM     12  H   UNL     1      -2.070  -0.001   2.585  0.00  0.00    +0.292 HD
ENDBRANCH   9  11
ENDBRANCH   1   6
BRANCH   2  13
ATOM     13  C   UNL     1       0.039  -4.876  -3.688  0.00  0.00    +0.188 C 
ATOM     14  O   UNL     1       0.127  -4.244  -4.725  0.00  0.00    -0.287 OA
BRANCH  13  15
ATOM     15  C   UNL     1       0.177  -6.347  -3.705  0.00  0.00    +0.044 C 
ATOM     16  C   UNL     1      -0.677  -7.208  -4.297  0.00  0.00    -0.025 C 
ATOM     17  CA  UNL     1      -0.112  -8.588  -4.043  0.00  0.00    +0.244 C 
ATOM     18  N   UNL     1       1.115  -8.376  -3.265  0.00  0.00    -0.269 NA
ATOM     19  C   UNL     1       1.272  -7.109  -3.085  0.00  0.00    +0.045 C 
ATOM     20  C   UNL     1       2.423  -6.490  -2.334  0.00  0.00    +0.066 C 
ATOM     21  C   UNL     1      -1.934  -6.865  -5.054  0.00  0.00    +0.042 C 
BRANCH  17  22
ATOM     22  C   UNL     1       0.209  -9.268  -5.349  0.00  0.00    +0.384 C 
ATOM     23  O   UNL     1       1.370  -9.454  -5.670  0.00  0.00    -0.244 OA
ATOM     24  OXT UNL     1      -0.693  -9.632  -6.083  0.00  0.00    -0.244 OA
ENDBRANCH  17  22
ENDBRANCH  13  15
ENDBRANCH   2  13
TORSDOF 5
