REMARK  Name = ZINC35063894
REMARK  9 active torsions:
REMARK  status: ('A' for Active; 'I' for Inactive)
REMARK    1  A    between atoms: C_1  and  C_2
REMARK    2  A    between atoms: C_2  and  C_3
REMARK    3  A    between atoms: C_3  and  C_4
REMARK    4  A    between atoms: C_4  and  N_5
REMARK    5  A    between atoms: N_11  and  C_14
REMARK    6  A    between atoms: C_14  and  C_16
REMARK    7  A    between atoms: C_14  and  C_17
REMARK    8  A    between atoms: N_27  and  C_28
REMARK    9  A    between atoms: C_31  and  C_34
REMARK                            x       y       z     vdW  Elec       q    Type
REMARK                         _______ _______ _______ _____ _____    ______ ____
ROOT
ATOM      1  C   UNL     1       5.596  -6.780  -6.989  0.00  0.00    +0.104 A 
ATOM      2  N   UNL     1       4.726  -6.928  -7.941  0.00  0.00    -0.235 NA
ATOM      3  C   UNL     1       4.637  -8.080  -8.651  0.00  0.00    +0.078 A 
ATOM      4  C   UNL     1       3.701  -8.239  -9.675  0.00  0.00    +0.028 A 
ATOM      5  C   UNL     1       3.646  -9.426 -10.370  0.00  0.00    +0.002 A 
ATOM      6  C   UNL     1       4.510 -10.470 -10.066  0.00  0.00    +0.001 A 
ATOM      7  C   UNL     1       5.441 -10.338  -9.059  0.00  0.00    +0.015 A 
ATOM      8  C   UNL     1       5.514  -9.144  -8.344  0.00  0.00    +0.065 A 
ATOM      9  C   UNL     1       6.488  -8.945  -7.261  0.00  0.00    +0.266 A 
ATOM     10  O   UNL     1       7.272  -9.822  -6.947  0.00  0.00    -0.267 OA
ATOM     11  N   UNL     1       6.482  -7.748  -6.630  0.00  0.00    -0.266 N 
ENDROOT
BRANCH  11  12
ATOM     12  C   UNL     1       7.394  -7.505  -5.594  0.00  0.00    +0.051 A 
ATOM     13  C   UNL     1       6.952  -7.448  -4.279  0.00  0.00    +0.026 A 
ATOM     14  C   UNL     1       7.853  -7.208  -3.259  0.00  0.00    +0.005 A 
ATOM     15  C   UNL     1       9.193  -7.026  -3.548  0.00  0.00    -0.050 A 
ATOM     16  C   UNL     1       9.636  -7.082  -4.857  0.00  0.00    +0.005 A 
ATOM     17  C   UNL     1       8.741  -7.327  -5.880  0.00  0.00    +0.026 A 
ATOM     18  C   UNL     1      10.173  -6.765  -2.433  0.00  0.00    +0.044 C 
ENDBRANCH  11  12
BRANCH   1  19
ATOM     19  C   UNL     1       5.630  -5.468  -6.248  0.00  0.00    -0.003 C 
ATOM     20  C   UNL     1       6.527  -4.482  -6.999  0.00  0.00    -0.005 C 
BRANCH  19  27
ATOM     21  N   UNL     1       1.059  -2.295  -3.533  0.00  0.00    -0.299 N 
ATOM     22  C   UNL     1       1.128  -3.587  -3.909  0.00  0.00    +0.302 C 
ATOM     23  O   UNL     1       0.429  -4.418  -3.361  0.00  0.00    -0.253 OA
ATOM     24  N   UNL     1       1.971  -3.959  -4.892  0.00  0.00    -0.289 N 
ATOM     25  C   UNL     1       2.912  -2.997  -5.486  0.00  0.00    +0.091 C 
ATOM     26  C   UNL     1       4.312  -3.619  -5.480  0.00  0.00    -0.059 C 
ATOM     27  N   UNL     1       4.270  -4.922  -6.157  0.00  0.00    +0.388 N 
ATOM     28  C   UNL     1       3.421  -5.851  -5.400  0.00  0.00    -0.059 C 
ATOM     29  C   UNL     1       1.981  -5.340  -5.398  0.00  0.00    +0.091 C 
ATOM     30  H   UNL     1       1.666  -1.644  -3.919  0.00  0.00    +0.150 HD
ATOM     31  H   UNL     1       3.894  -4.805  -7.086  0.00  0.00    -0.081 HD
BRANCH  21  32
ATOM     32  C   UNL     1       0.068  -1.872  -2.540  0.00  0.00    +0.106 C 
BRANCH  32  33
ATOM     33  C   UNL     1       0.201  -0.368  -2.294  0.00  0.00    +0.018 C 
BRANCH  33  35
ATOM     34  C   UNL     1      -0.700   1.577  -1.012  0.00  0.00    +0.004 C 
ATOM     35  C   UNL     1      -0.834   0.073  -1.258  0.00  0.00    -0.002 C 
ENDBRANCH  33  35
ENDBRANCH  32  33
ENDBRANCH  21  32
ENDBRANCH  19  27
ENDBRANCH   1  19
TORSDOF 6
