REMARK  Name = ZINC36642467
REMARK  8 active torsions:
REMARK  status: ('A' for Active; 'I' for Inactive)
REMARK    1  A    between atoms: C_1  and  C_2
REMARK    2  A    between atoms: C_2  and  N_3
REMARK    3  A    between atoms: N_3  and  C_4
REMARK    4  A    between atoms: N_3  and  C_6
REMARK    5  A    between atoms: C_4  and  C_5
REMARK    6  A    between atoms: C_6  and  C_7
REMARK    7  A    between atoms: C_7  and  N_8
REMARK    8  A    between atoms: C_19  and  C_21
REMARK                            x       y       z     vdW  Elec       q    Type
REMARK                         _______ _______ _______ _____ _____    ______ ____
ROOT
ATOM      1  N   UNL     1       2.168  -3.252  -0.136  0.00  0.00    -0.248 N 
ATOM      2  C   UNL     1       1.383  -4.069  -0.931  0.00  0.00    +0.168 A 
ATOM      3  N   UNL     1       0.353  -3.748  -1.679  0.00  0.00    -0.224 NA
ATOM      4  C   UNL     1      -0.325  -4.658  -2.411  0.00  0.00    +0.080 A 
ATOM      5  C   UNL     1      -1.443  -4.445  -3.251  0.00  0.00    +0.030 A 
ATOM      6  C   UNL     1      -2.019  -5.488  -3.928  0.00  0.00    +0.017 A 
ATOM      7  C   UNL     1      -1.531  -6.783  -3.817  0.00  0.00    +0.019 A 
ATOM      8  C   UNL     1      -0.438  -7.027  -3.004  0.00  0.00    +0.032 A 
ATOM      9  C   UNL     1       0.144  -5.988  -2.321  0.00  0.00    +0.042 A 
ATOM     10  S   UNL     1       1.519  -5.830  -1.207  0.00  0.00    -0.052 S 
ATOM     11 BR   UNL     1      -2.351  -8.198  -4.765  0.00  0.00    -0.050 Br
ATOM     12  C   UNL     1       3.197  -3.775   0.559  0.00  0.00    +0.254 C 
ATOM     13  O   UNL     1       3.492  -4.947   0.420  0.00  0.00    -0.270 OA
ENDROOT
BRANCH  12  14
ATOM     14  C   UNL     1       3.961  -2.931   1.486  0.00  0.00    +0.062 A 
ATOM     15  C   UNL     1       4.558  -1.738   1.201  0.00  0.00    +0.096 A 
ATOM     16  N   UNL     1       5.170  -1.255   2.309  0.00  0.00    -0.360 N 
ATOM     17  H   UNL     1       5.661  -0.420   2.350  0.00  0.00    +0.165 HD
ATOM     18  C   UNL     1       4.997  -2.120   3.370  0.00  0.00    +0.047 A 
ATOM     19  C   UNL     1       4.230  -3.202   2.911  0.00  0.00    +0.012 A 
ATOM     20  C   UNL     1       3.891  -4.237   3.779  0.00  0.00    +0.011 A 
ATOM     21  C   UNL     1       4.310  -4.191   5.091  0.00  0.00    +0.001 A 
ATOM     22  C   UNL     1       5.064  -3.120   5.548  0.00  0.00    +0.002 A 
ATOM     23  C   UNL     1       5.414  -2.094   4.697  0.00  0.00    +0.026 A 
ENDBRANCH  12  14
BRANCH   1  24
ATOM     24  C   UNL     1       1.880  -1.818  -0.051  0.00  0.00    +0.097 C 
BRANCH  24  25
ATOM     25  C   UNL     1       1.018  -1.543   1.183  0.00  0.00    -0.059 C 
BRANCH  25  26
ATOM     26  N   UNL     1       0.729  -0.105   1.268  0.00  0.00    +0.380 N 
ATOM     27  H   UNL     1       1.595   0.412   1.259  0.00  0.00    -0.082 HD
BRANCH  26  29
ATOM     28  C   UNL     1      -0.277   1.817   0.132  0.00  0.00    -0.017 C 
ATOM     29  C   UNL     1      -0.095   0.298   0.121  0.00  0.00    -0.082 C 
ENDBRANCH  26  29
BRANCH  26  30
ATOM     30  C   UNL     1       0.004   0.175   2.514  0.00  0.00    -0.082 C 
ATOM     31  C   UNL     1       0.915  -0.110   3.710  0.00  0.00    -0.017 C 
ENDBRANCH  26  30
ENDBRANCH  25  26
ENDBRANCH  24  25
ENDBRANCH   1  24
TORSDOF 6
