REMARK  Name = ZINC06501096
REMARK  10 active torsions:
REMARK  status: ('A' for Active; 'I' for Inactive)
REMARK    1  A    between atoms: C_1  and  C_2
REMARK    2  A    between atoms: C_2  and  C_3
REMARK    3  A    between atoms: C_3  and  C_4
REMARK    4  A    between atoms: C_4  and  C_6
REMARK    5  A    between atoms: C_4  and  N_14
REMARK    6  A    between atoms: N_8  and  C_9
REMARK    7  A    between atoms: N_14  and  C_15
REMARK    8  A    between atoms: C_22  and  C_24
REMARK    9  A    between atoms: C_24  and  N_25
REMARK   10  A    between atoms: C_27  and  C_30
REMARK                            x       y       z     vdW  Elec       q    Type
REMARK                         _______ _______ _______ _____ _____    ______ ____
ROOT
ATOM      1  N   UNL     1       1.323  -2.036   0.067  0.00  0.00    -0.258 N 
ATOM      2  C   UNL     1       0.113  -2.626   0.133  0.00  0.00    +0.244 C 
ATOM      3  O   UNL     1       0.026  -3.836   0.104  0.00  0.00    -0.273 OA
ENDROOT
BRANCH   1   4
ATOM      4  C   UNL     1       1.433  -0.648   0.207  0.00  0.00    +0.040 A 
ATOM      5  C   UNL     1       1.685   0.146  -0.904  0.00  0.00    +0.024 A 
ATOM      6  C   UNL     1       1.793   1.516  -0.763  0.00  0.00    +0.005 A 
ATOM      7  C   UNL     1       1.650   2.098   0.483  0.00  0.00    +0.038 A 
ATOM      8  C   UNL     1       1.399   1.310   1.594  0.00  0.00    +0.125 A 
ATOM      9  C   UNL     1       1.290  -0.063   1.458  0.00  0.00    +0.061 A 
ATOM     10  F   UNL     1       1.260   1.881   2.810  0.00  0.00    -0.205 F 
ENDBRANCH   1   4
BRANCH   1  11
ATOM     11  C   UNL     1       2.523  -2.848  -0.153  0.00  0.00    +0.167 C 
BRANCH  11  12
ATOM     12  C   UNL     1       3.478  -2.653   0.996  0.00  0.00    +0.234 C 
ATOM     13  O   UNL     1       3.185  -1.910   1.909  0.00  0.00    -0.274 OA
ATOM     14  N   UNL     1       4.657  -3.305   1.010  0.00  0.00    -0.311 N 
ATOM     15  H   UNL     1       4.891  -3.899   0.280  0.00  0.00    +0.149 HD
BRANCH  14  16
ATOM     16  C   UNL     1       5.586  -3.116   2.127  0.00  0.00    +0.073 C 
ATOM     17  C   UNL     1       6.505  -1.907   1.852  0.00  0.00    +0.022 C 
ATOM     18  C   UNL     1       7.877  -2.334   2.430  0.00  0.00    +0.002 C 
ATOM     19  C   UNL     1       7.947  -3.838   2.067  0.00  0.00    +0.002 C 
ATOM     20  C   UNL     1       6.503  -4.343   2.264  0.00  0.00    +0.022 C 
ENDBRANCH  14  16
ENDBRANCH  11  12
BRANCH  11  21
ATOM     21  C   UNL     1       3.198  -2.417  -1.456  0.00  0.00    +0.032 C 
BRANCH  21  23
ATOM     22  C   UNL     1       2.951  -2.296  -3.939  0.00  0.00    +0.004 C 
ATOM     23  C   UNL     1       2.275  -2.727  -2.636  0.00  0.00    -0.001 C 
ENDBRANCH  21  23
ENDBRANCH  11  21
ENDBRANCH   1  11
BRANCH   2  24
ATOM     24  C   UNL     1      -1.132  -1.784   0.242  0.00  0.00    +0.264 C 
BRANCH  24  25
ATOM     25  N   UNL     1      -2.314  -2.646   0.166  0.00  0.00    -0.154 N 
ATOM     26  N   UNL     1      -2.900  -3.198   1.172  0.00  0.00    -0.130 NA
ATOM     27  C   UNL     1      -3.920  -3.895   0.712  0.00  0.00    +0.207 A 
ATOM     28  N   UNL     1      -3.922  -3.738  -0.620  0.00  0.00    -0.108 NA
ATOM     29  N   UNL     1      -2.933  -2.966  -0.917  0.00  0.00    -0.045 NA
BRANCH  27  30
ATOM     30  C   UNL     1      -4.879  -4.697   1.512  0.00  0.00    +0.058 A 
ATOM     31  C   UNL     1      -4.745  -4.769   2.897  0.00  0.00    +0.014 A 
ATOM     32  C   UNL     1      -5.642  -5.512   3.637  0.00  0.00    +0.001 A 
ATOM     33  C   UNL     1      -6.668  -6.193   3.006  0.00  0.00    +0.003 A 
ATOM     34  C   UNL     1      -6.804  -6.130   1.632  0.00  0.00    +0.039 A 
ATOM     35  C   UNL     1      -5.914  -5.385   0.880  0.00  0.00    +0.134 A 
ATOM     36  F   UNL     1      -6.048  -5.324  -0.463  0.00  0.00    -0.205 F 
ENDBRANCH  27  30
ENDBRANCH  24  25
ENDBRANCH   2  24
TORSDOF 9
