REMARK  Name = ZINC35528558
REMARK  15 active torsions:
REMARK  status: ('A' for Active; 'I' for Inactive)
REMARK    1  A    between atoms: C_1  and  C_2
REMARK    2  A    between atoms: C_2  and  N_3
REMARK    3  A    between atoms: N_3  and  C_4
REMARK    4  A    between atoms: N_3  and  C_29
REMARK    5  A    between atoms: C_4  and  C_5
REMARK    6  A    between atoms: C_5  and  C_6
REMARK    7  A    between atoms: C_6  and  N_7
REMARK    8  A    between atoms: C_8  and  C_10
REMARK    9  A    between atoms: C_10  and  C_11
REMARK   10  A    between atoms: C_11  and  C_12
REMARK   11  A    between atoms: N_24  and  C_25
REMARK   12  A    between atoms: C_25  and  C_26
REMARK   13  A    between atoms: C_26  and  C_27
REMARK   14  A    between atoms: C_26  and  C_28
REMARK   15  A    between atoms: C_33  and  C_35
REMARK                            x       y       z     vdW  Elec       q    Type
REMARK                         _______ _______ _______ _____ _____    ______ ____
ROOT
ATOM      1  C   UNL     1      -2.926  -5.763   4.796  0.00  0.00    +0.103 C 
ENDROOT
BRANCH   1   3
ATOM      2  N   UNL     1      -1.744  -3.865   3.739  0.00  0.00    -0.315 N 
ATOM      3  C   UNL     1      -2.450  -4.333   4.787  0.00  0.00    +0.213 C 
ATOM      4  O   UNL     1      -2.703  -3.604   5.722  0.00  0.00    -0.276 OA
ATOM      5  H   UNL     1      -1.542  -4.448   2.990  0.00  0.00    +0.149 HD
BRANCH   2   6
ATOM      6  C   UNL     1      -1.282  -2.475   3.730  0.00  0.00    +0.105 C 
BRANCH   6   7
ATOM      7  C   UNL     1      -0.511  -2.202   2.437  0.00  0.00    +0.037 C 
BRANCH   7   8
ATOM      8  C   UNL     1      -0.028  -0.750   2.427  0.00  0.00    +0.106 C 
BRANCH   8   9
ATOM      9  N   UNL     1       0.711  -0.489   1.189  0.00  0.00    -0.330 N 
BRANCH   9  10
ATOM     10  C   UNL     1       2.090  -0.703   1.140  0.00  0.00    +0.030 A 
ATOM     11  C   UNL     1       2.763  -1.169   2.263  0.00  0.00    +0.023 A 
ATOM     12  C   UNL     1       4.126  -1.380   2.211  0.00  0.00    +0.002 A 
ATOM     13  C   UNL     1       4.823  -1.127   1.043  0.00  0.00    +0.003 A 
ATOM     14  C   UNL     1       4.157  -0.663  -0.076  0.00  0.00    -0.049 A 
ATOM     15  C   UNL     1       2.792  -0.456  -0.033  0.00  0.00    +0.026 A 
ATOM     16  C   UNL     1       4.920  -0.389  -1.347  0.00  0.00    +0.044 C 
ENDBRANCH   9  10
BRANCH   9  18
ATOM     17  C   UNL     1      -0.019   1.526   0.010  0.00  0.00    +0.024 C 
ATOM     18  C   UNL     1       0.002  -0.004   0.002  0.00  0.00    +0.102 C 
ENDBRANCH   9  18
ENDBRANCH   8   9
ENDBRANCH   7   8
ENDBRANCH   6   7
ENDBRANCH   2   6
ENDBRANCH   1   3
BRANCH   1  19
ATOM     19  C   UNL     1      -3.697  -6.036   6.089  0.00  0.00    +0.086 C 
BRANCH  19  20
ATOM     20  C   UNL     1      -4.173  -7.466   6.098  0.00  0.00    +0.140 A 
ATOM     21  N   UNL     1      -5.307  -7.909   5.628  0.00  0.00    -0.132 NA
ATOM     22  N   UNL     1      -5.389  -9.181   5.800  0.00  0.00    -0.110 NA
ATOM     23  C   UNL     1      -4.302  -9.622   6.394  0.00  0.00    +0.239 A 
ATOM     24  N   UNL     1      -3.497  -8.541   6.594  0.00  0.00    -0.264 N 
ATOM     25  C   UNL     1      -2.244  -8.674   7.208  0.00  0.00    +0.071 A 
ATOM     26  C   UNL     1      -1.288  -7.705   7.502  0.00  0.00    +0.034 A 
ATOM     27  C   UNL     1      -0.135  -8.064   8.107  0.00  0.00    +0.048 A 
ATOM     28  S   UNL     1      -0.272  -9.726   8.314  0.00  0.00    -0.090 S 
ATOM     29  C   UNL     1      -1.874  -9.963   7.595  0.00  0.00    +0.101 A 
ATOM     30  C   UNL     1      -2.709 -11.067   7.380  0.00  0.00    +0.270 A 
ATOM     31  O   UNL     1      -2.357 -12.180   7.729  0.00  0.00    -0.266 OA
ATOM     32  N   UNL     1      -3.913 -10.887   6.791  0.00  0.00    -0.276 N 
BRANCH  32  33
ATOM     33  C   UNL     1      -4.795 -12.034   6.559  0.00  0.00    +0.131 C 
BRANCH  33  34
ATOM     34  C   UNL     1      -4.485 -12.646   5.191  0.00  0.00    +0.003 C 
ATOM     35  C   UNL     1      -3.067 -13.222   5.200  0.00  0.00    +0.009 C 
ATOM     36  C   UNL     1      -5.487 -13.764   4.894  0.00  0.00    +0.009 C 
ENDBRANCH  33  34
ENDBRANCH  32  33
ENDBRANCH  19  20
ENDBRANCH   1  19
TORSDOF 11
