REMARK  Name = ZINC13031824
REMARK  15 active torsions:
REMARK  status: ('A' for Active; 'I' for Inactive)
REMARK    1  A    between atoms: C_1  and  C_2
REMARK    2  A    between atoms: C_2  and  C_3
REMARK    3  A    between atoms: C_3  and  C_4
REMARK    4  A    between atoms: C_3  and  C_5
REMARK    5  A    between atoms: C_3  and  N_6
REMARK    6  A    between atoms: C_7  and  C_9
REMARK    7  A    between atoms: C_9  and  C_11
REMARK    8  A    between atoms: C_9  and  N_17
REMARK    9  A    between atoms: N_15  and  C_16
REMARK   10  A    between atoms: N_17  and  C_18
REMARK   11  A    between atoms: C_18  and  C_19
REMARK   12  A    between atoms: C_19  and  C_20
REMARK   13  A    between atoms: C_25  and  C_26
REMARK   14  A    between atoms: C_27  and  C_29
REMARK   15  A    between atoms: C_29  and  N_30
REMARK                            x       y       z     vdW  Elec       q    Type
REMARK                         _______ _______ _______ _____ _____    ______ ____
ROOT
ATOM      1  N   UNL     1      -5.309   3.479  -2.559  0.00  0.00    -0.283 N 
ATOM      2  C   UNL     1      -4.065   3.584  -3.068  0.00  0.00    +0.238 C 
ATOM      3  O   UNL     1      -3.908   3.697  -4.266  0.00  0.00    -0.274 OA
ENDROOT
BRANCH   1   4
ATOM      4  C   UNL     1      -6.470   3.501  -3.452  0.00  0.00    +0.209 C 
BRANCH   4   5
ATOM      5  C   UNL     1      -7.421   4.585  -3.013  0.00  0.00    +0.048 A 
ATOM      6  C   UNL     1      -8.094   4.620  -1.845  0.00  0.00    +0.025 A 
ATOM      7  C   UNL     1      -8.864   5.800  -1.837  0.00  0.00    +0.019 A 
ATOM      8  C   UNL     1      -8.639   6.436  -3.005  0.00  0.00    +0.085 A 
ATOM      9  N   UNL     1      -7.755   5.695  -3.731  0.00  0.00    -0.352 N 
ATOM     10  C   UNL     1      -7.246   6.035  -5.062  0.00  0.00    +0.148 C 
ENDBRANCH   4   5
BRANCH   4  12
ATOM     11  N   UNL     1      -8.070   1.841  -4.348  0.00  0.00    -0.308 N 
ATOM     12  C   UNL     1      -7.170   2.167  -3.400  0.00  0.00    +0.240 C 
ATOM     13  O   UNL     1      -6.922   1.387  -2.504  0.00  0.00    -0.273 OA
ATOM     14  H   UNL     1      -8.211   2.429  -5.106  0.00  0.00    +0.149 HD
BRANCH  11  15
ATOM     15  C   UNL     1      -8.837   0.598  -4.232  0.00  0.00    +0.029 C 
ATOM     16  C   UNL     1      -7.878  -0.593  -4.208  0.00  0.00    +0.031 C 
ATOM     17  C   UNL     1      -9.654   0.621  -2.938  0.00  0.00    +0.031 C 
BRANCH  15  19
ATOM     18  C   UNL     1     -10.583  -0.830  -5.308  0.00  0.00    +0.006 C 
ATOM     19  C   UNL     1      -9.782   0.468  -5.429  0.00  0.00    +0.022 C 
ENDBRANCH  15  19
ENDBRANCH  11  15
ENDBRANCH   4  12
ENDBRANCH   1   4
BRANCH   1  20
ATOM     20  C   UNL     1      -5.499   3.343  -1.113  0.00  0.00    +0.113 C 
BRANCH  20  21
ATOM     21  C   UNL     1      -5.477   4.728  -0.463  0.00  0.00    +0.054 C 
BRANCH  21  22
ATOM     22  C   UNL     1      -5.765   4.596   1.010  0.00  0.00    -0.043 A 
ATOM     23  C   UNL     1      -7.054   4.765   1.481  0.00  0.00    +0.004 A 
ATOM     24  C   UNL     1      -7.318   4.639   2.831  0.00  0.00    +0.000 A 
ATOM     25  C   UNL     1      -6.292   4.355   3.713  0.00  0.00    +0.000 A 
ATOM     26  C   UNL     1      -5.003   4.191   3.244  0.00  0.00    +0.003 A 
ATOM     27  C   UNL     1      -4.739   4.312   1.892  0.00  0.00    -0.047 A 
ATOM     28  C   UNL     1      -3.333   4.133   1.380  0.00  0.00    +0.044 C 
ENDBRANCH  21  22
ENDBRANCH  20  21
ENDBRANCH   1  20
BRANCH   2  29
ATOM     29  C   UNL     1      -2.871   3.562  -2.150  0.00  0.00    +0.241 C 
BRANCH  29  30
ATOM     30  N   UNL     1      -1.644   3.691  -2.941  0.00  0.00    -0.235 N 
ATOM     31  C   UNL     1      -0.902   2.667  -3.481  0.00  0.00    +0.090 A 
ATOM     32  C   UNL     1      -1.025   1.282  -3.484  0.00  0.00    +0.029 A 
ATOM     33  C   UNL     1      -0.092   0.519  -4.128  0.00  0.00    +0.002 A 
ATOM     34  C   UNL     1       0.975   1.115  -4.788  0.00  0.00    +0.002 A 
ATOM     35  C   UNL     1       1.115   2.472  -4.804  0.00  0.00    +0.032 A 
ATOM     36  C   UNL     1       0.175   3.277  -4.147  0.00  0.00    +0.113 A 
ATOM     37  N   UNL     1       0.051   4.610  -3.993  0.00  0.00    -0.129 NA
ATOM     38  N   UNL     1      -0.996   4.883  -3.296  0.00  0.00    -0.064 NA
ENDBRANCH  29  30
ENDBRANCH   2  29
TORSDOF 10
