REMARK  Name = ZINC40551921
REMARK  6 active torsions:
REMARK  status: ('A' for Active; 'I' for Inactive)
REMARK    1  A    between atoms: C_1  and  C_2
REMARK    2  A    between atoms: C_7  and  C_20
REMARK    3  A    between atoms: N_12  and  CA_13
REMARK    4  A    between atoms: CA_13  and  CB_15
REMARK    5  A    between atoms: CA_13  and  C_17
REMARK    6  A    between atoms: CB_15  and  OG_16
REMARK                            x       y       z     vdW  Elec       q    Type
REMARK                         _______ _______ _______ _____ _____    ______ ____
ROOT
ATOM      1  C   UNK A   0      -0.098   1.445   0.179  0.00  0.00    +0.028 C 
ATOM      2  C   UNK A   0      -0.004  -0.082   0.159  0.00  0.00    +0.075 C 
ATOM      3  C   UNK A   0       0.627  -0.540  -1.160  0.00  0.00    +0.022 C 
ATOM      4  C   UNK A   0       2.074  -0.047  -1.228  0.00  0.00    +0.004 C 
ATOM      5  C   UNK A   0       2.876  -0.652  -0.073  0.00  0.00    +0.022 C 
ATOM      6  C   UNK A   0       2.271  -0.195   1.258  0.00  0.00    +0.075 C 
ATOM      7  N   UNK A   0       0.839  -0.537   1.273  0.00  0.00    -0.280 N 
ATOM      8  C   UNK A   0       0.311  -1.256   2.284  0.00  0.00    +0.303 C 
ATOM      9  O   UNK A   0       0.993  -1.536   3.251  0.00  0.00    -0.253 OA
ATOM     10  N   SER A   1      -0.972  -1.663   2.223  0.00  0.00    -0.284 N 
ATOM     11  C   UNK A   0       2.981  -0.902   2.414  0.00  0.00    +0.028 C 
ATOM     12  H   SER A   1      -1.493  -1.504   1.421  0.00  0.00    +0.151 HD
ENDROOT
BRANCH  10  13
ATOM     13  CA  SER A   1      -1.579  -2.346   3.369  0.00  0.00    +0.213 C 
BRANCH  13  14
ATOM     14  C   SER A   1      -1.259  -3.817   3.303  0.00  0.00    +0.378 C 
ATOM     15  O   SER A   1      -0.587  -4.255   2.385  0.00  0.00    -0.244 OA
ATOM     16  OXT SER A   1      -1.673  -4.570   4.168  0.00  0.00    -0.244 OA
ENDBRANCH  13  14
BRANCH  13  17
ATOM     17  CB  SER A   1      -3.096  -2.151   3.333  0.00  0.00    +0.189 C 
BRANCH  17  18
ATOM     18  OG  SER A   1      -3.632  -2.800   2.178  0.00  0.00    -0.393 OA
ATOM     19  H   SER A   1      -4.592  -2.717   2.091  0.00  0.00    +0.209 HD
ENDBRANCH  17  18
ENDBRANCH  13  17
ENDBRANCH  10  13
TORSDOF 4
