REMARK  Name = ZINC40034845
REMARK  9 active torsions:
REMARK  status: ('A' for Active; 'I' for Inactive)
REMARK    1  A    between atoms: C_1  and  C_2
REMARK    2  A    between atoms: C_5  and  N_8
REMARK    3  A    between atoms: N_15  and  N_16
REMARK    4  A    between atoms: C_17  and  C_18
REMARK    5  A    between atoms: C_21  and  O_24
REMARK    6  A    between atoms: O_24  and  C_25
REMARK    7  A    between atoms: C_25  and  C_26
REMARK    8  A    between atoms: C_36  and  C_37
REMARK    9  A    between atoms: C_36  and  C_38
REMARK                            x       y       z     vdW  Elec       q    Type
REMARK                         _______ _______ _______ _____ _____    ______ ____
ROOT
ATOM      1  N   UNL     1      -0.636  -4.437  -0.151  0.00  0.00    -0.248 N 
ATOM      2  C   UNL     1      -0.235  -4.991   1.014  0.00  0.00    +0.264 A 
ATOM      3  O   UNL     1       0.043  -4.290   1.973  0.00  0.00    -0.267 OA
ATOM      4  C   UNL     1      -0.145  -6.386   1.097  0.00  0.00    +0.049 A 
ATOM      5  C   UNL     1      -0.472  -7.145  -0.017  0.00  0.00    +0.084 A 
ATOM      6  N   UNL     1      -0.856  -6.542  -1.147  0.00  0.00    -0.214 NA
ATOM      7  C   UNL     1      -0.944  -5.230  -1.218  0.00  0.00    +0.223 A 
ATOM      8  N   UNL     1      -1.348  -4.647  -2.391  0.00  0.00    -0.206 N 
ATOM      9  C   UNL     1      -0.392  -8.621   0.074  0.00  0.00    +0.004 A 
ATOM     10  C   UNL     1      -0.336  -9.406  -1.073  0.00  0.00    +0.010 A 
ATOM     11  C   UNL     1      -0.257 -10.780  -0.959  0.00  0.00    +0.001 A 
ATOM     12  C   UNL     1      -0.233 -11.371   0.292  0.00  0.00    +0.000 A 
ATOM     13  C   UNL     1      -0.291 -10.594   1.435  0.00  0.00    +0.004 A 
ATOM     14  C   UNL     1      -0.372  -9.221   1.334  0.00  0.00    -0.037 A 
ATOM     15  C   UNL     1      -0.448  -8.369   2.573  0.00  0.00    +0.047 C 
ATOM     16  C   UNL     1       0.300  -7.055   2.367  0.00  0.00    +0.001 C 
ATOM     17  C   UNL     1       1.802  -7.337   2.288  0.00  0.00    +0.016 C 
ATOM     18  C   UNL     1       0.024  -6.126   3.550  0.00  0.00    +0.016 C 
ATOM     19  H   UNL     1      -1.473  -3.687  -2.437  0.00  0.00    +0.177 HD
ENDROOT
BRANCH   1  24
ATOM     20  C   UNL     1      -1.064   1.203  -0.601  0.00  0.00    +0.044 C 
ATOM     21  C   UNL     1      -0.950  -0.295  -0.481  0.00  0.00    -0.050 A 
ATOM     22  C   UNL     1      -2.062  -1.047  -0.149  0.00  0.00    +0.005 A 
ATOM     23  C   UNL     1      -1.961  -2.420  -0.039  0.00  0.00    +0.026 A 
ATOM     24  C   UNL     1      -0.742  -3.045  -0.262  0.00  0.00    +0.053 A 
ATOM     25  C   UNL     1       0.373  -2.287  -0.596  0.00  0.00    +0.026 A 
ATOM     26  C   UNL     1       0.264  -0.915  -0.710  0.00  0.00    +0.005 A 
ENDBRANCH   1  24
BRANCH   8  27
ATOM     27  N   UNL     1      -1.581  -5.440  -3.522  0.00  0.00    -0.188 NA
ATOM     28  C   UNL     1      -1.964  -4.888  -4.633  0.00  0.00    +0.138 C 
BRANCH  28  29
ATOM     29  C   UNL     1      -2.209  -5.722  -5.824  0.00  0.00    -0.005 A 
ATOM     30  C   UNL     1      -2.035  -7.107  -5.758  0.00  0.00    +0.013 A 
ATOM     31  C   UNL     1      -2.265  -7.883  -6.873  0.00  0.00    +0.046 A 
ATOM     32  C   UNL     1      -2.669  -7.290  -8.063  0.00  0.00    +0.121 A 
ATOM     33  C   UNL     1      -2.843  -5.913  -8.133  0.00  0.00    +0.046 A 
ATOM     34  C   UNL     1      -2.621  -5.130  -7.021  0.00  0.00    +0.013 A 
BRANCH  32  35
ATOM     35  O   UNL     1      -2.894  -8.058  -9.160  0.00  0.00    -0.483 OA
BRANCH  35  36
ATOM     36  C   UNL     1      -3.308  -7.384 -10.350  0.00  0.00    +0.324 C 
BRANCH  36  37
ATOM     37  C   UNL     1      -3.508  -8.390 -11.454  0.00  0.00    +0.248 C 
ATOM     38  O   UNL     1      -3.316  -9.569 -11.242  0.00  0.00    -0.272 OA
ATOM     39  N   UNL     1      -3.901  -7.981 -12.676  0.00  0.00    -0.327 N 
ATOM     40  H   UNL     1      -4.055  -7.038 -12.846  0.00  0.00    +0.145 HD
ATOM     41  H   UNL     1      -4.030  -8.628 -13.387  0.00  0.00    +0.145 HD
ENDBRANCH  36  37
ENDBRANCH  35  36
ENDBRANCH  32  35
ENDBRANCH  28  29
ENDBRANCH   8  27
TORSDOF 6
