REMARK  Name = ZINC49074813
REMARK  6 active torsions:
REMARK  status: ('A' for Active; 'I' for Inactive)
REMARK    1  A    between atoms: N_4  and  C_6
REMARK    2  A    between atoms: C_6  and  C_7
REMARK    3  A    between atoms: C_7  and  N_8
REMARK    4  A    between atoms: N_8  and  S_9
REMARK    5  A    between atoms: S_9  and  C_12
REMARK    6  A    between atoms: C_15  and  N_19
REMARK                            x       y       z     vdW  Elec       q    Type
REMARK                         _______ _______ _______ _____ _____    ______ ____
ROOT
ATOM      1  S   UNL     1       3.909  -3.986  -2.587  0.00  0.00    +0.061 S 
ATOM      2  O   UNL     1       4.281  -5.323  -2.280  0.00  0.00    -0.153 OA
ATOM      3  O   UNL     1       3.059  -3.664  -3.679  0.00  0.00    -0.153 OA
ENDROOT
BRANCH   1   4
ATOM      4  C   UNL     1       5.406  -3.091  -2.833  0.00  0.00    +0.133 A 
ATOM      5  C   UNL     1       5.403  -1.938  -3.598  0.00  0.00    +0.047 A 
ATOM      6  C   UNL     1       6.576  -1.233  -3.792  0.00  0.00    +0.040 A 
ATOM      7  C   UNL     1       7.758  -1.683  -3.219  0.00  0.00    +0.027 A 
ATOM      8  C   UNL     1       7.758  -2.840  -2.450  0.00  0.00    +0.040 A 
ATOM      9  C   UNL     1       6.581  -3.538  -2.255  0.00  0.00    +0.047 A 
ATOM     10 BR   UNL     1       6.578  -5.110  -1.203  0.00  0.00    -0.048 Br
ATOM     11 BR   UNL     1       3.793  -1.326  -4.379  0.00  0.00    -0.048 Br
BRANCH   7  12
ATOM     12  N   UNL     1       8.945  -0.973  -3.414  0.00  0.00    -0.358 N 
ATOM     13  H   UNL     1       8.944  -0.166  -3.951  0.00  0.00    +0.142 HD
ATOM     14  H   UNL     1       9.770  -1.288  -3.013  0.00  0.00    +0.142 HD
ENDBRANCH   7  12
ENDBRANCH   1   4
BRANCH   1  15
ATOM     15  N   UNL     1       3.187  -3.372  -1.229  0.00  0.00    -0.188 NA
ATOM     16  H   UNL     1       3.082  -3.929  -0.442  0.00  0.00    +0.148 HD
BRANCH  15  17
ATOM     17  C   UNL     1       2.709  -1.987  -1.217  0.00  0.00    +0.129 C 
BRANCH  17  18
ATOM     18  C   UNL     1       1.771  -1.782  -0.025  0.00  0.00    +0.160 C 
BRANCH  18  22
ATOM     19  C   UNL     1      -0.016   1.349   0.009  0.00  0.00    +0.041 A 
ATOM     20  C   UNL     1       1.308   1.797  -0.001  0.00  0.00    +0.134 A 
ATOM     21  N   UNL     1       2.094   0.751  -0.014  0.00  0.00    -0.180 NA
ATOM     22  N   UNL     1       1.293  -0.398  -0.012  0.00  0.00    -0.270 N 
ATOM     23  C   UNL     1       0.002  -0.004   0.002  0.00  0.00    +0.108 A 
ENDBRANCH  18  22
ENDBRANCH  17  18
ENDBRANCH  15  17
ENDBRANCH   1  15
TORSDOF 6
