REMARK  Name = ZINC39966732
REMARK  7 active torsions:
REMARK  status: ('A' for Active; 'I' for Inactive)
REMARK    1  A    between atoms: C_2  and  C_3
REMARK    2  A    between atoms: C_3  and  N_4
REMARK    3  A    between atoms: C_5  and  C_23
REMARK    4  A    between atoms: C_8  and  S_9
REMARK    5  A    between atoms: S_9  and  C_10
REMARK    6  A    between atoms: C_10  and  C_11
REMARK    7  A    between atoms: N_13  and  C_14
REMARK                            x       y       z     vdW  Elec       q    Type
REMARK                         _______ _______ _______ _____ _____    ______ ____
ROOT
ATOM      1  N   UNL     1      -1.367  -1.656  -0.542  0.00  0.00    -0.298 N 
ATOM      2  C   UNL     1      -2.060  -1.387  -1.699  0.00  0.00    +0.166 A 
ATOM      3  N   UNL     1      -1.942  -2.441  -2.473  0.00  0.00    -0.128 NA
ATOM      4  N   UNL     1      -1.232  -3.338  -1.887  0.00  0.00    -0.122 NA
ATOM      5  C   UNL     1      -0.849  -2.911  -0.707  0.00  0.00    +0.193 A 
ENDROOT
BRANCH   2   6
ATOM      6  C   UNL     1      -2.800  -0.146  -2.012  0.00  0.00    +0.030 A 
ATOM      7  C   UNL     1      -3.658   0.390  -1.097  0.00  0.00    +0.057 A 
ATOM      8  S   UNL     1      -4.259   1.833  -1.960  0.00  0.00    -0.101 S 
ATOM      9  C   UNL     1      -3.331   1.628  -3.458  0.00  0.00    -0.006 A 
ATOM     10  C   UNL     1      -2.618   0.493  -3.256  0.00  0.00    -0.026 A 
ATOM     11  C   UNL     1      -1.683  -0.076  -4.319  0.00  0.00    +0.036 C 
ATOM     12  C   UNL     1      -1.183   1.042  -5.225  0.00  0.00    +0.005 C 
ATOM     13  C   UNL     1      -2.126   1.240  -6.410  0.00  0.00    +0.001 C 
ATOM     14  C   UNL     1      -3.504   1.669  -5.918  0.00  0.00    +0.005 C 
ATOM     15  C   UNL     1      -3.330   2.517  -4.659  0.00  0.00    +0.043 C 
ENDBRANCH   2   6
BRANCH   1  16
ATOM     16  C   UNL     1      -1.211  -0.778   0.621  0.00  0.00    +0.152 C 
BRANCH  16  18
ATOM     17  C   UNL     1       0.044   1.315   0.554  0.00  0.00    +0.005 C 
ATOM     18  C   UNL     1       0.069   0.007   0.489  0.00  0.00    -0.013 C 
ENDBRANCH  16  18
ENDBRANCH   1  16
BRANCH   5  19
ATOM     19  S   UNL     1       0.145  -3.791   0.452  0.00  0.00    -0.077 S 
BRANCH  19  20
ATOM     20  C   UNL     1       0.490  -5.369  -0.375  0.00  0.00    +0.173 C 
BRANCH  20  21
ATOM     21  C   UNL     1       1.344  -6.229   0.520  0.00  0.00    +0.228 C 
ATOM     22  O   UNL     1       1.686  -5.819   1.609  0.00  0.00    -0.275 OA
ATOM     23  N   UNL     1       1.727  -7.455   0.111  0.00  0.00    -0.283 N 
ATOM     24  H   UNL     1       1.520  -7.752  -0.789  0.00  0.00    +0.155 HD
BRANCH  23  25
ATOM     25  C   UNL     1       2.421  -8.295   0.981  0.00  0.00    +0.065 A 
ATOM     26  C   UNL     1       2.360  -8.100   2.327  0.00  0.00    +0.026 A 
ATOM     27  C   UNL     1       3.046  -8.927   3.220  0.00  0.00    +0.004 A 
ATOM     28  C   UNL     1       3.809  -9.966   2.812  0.00  0.00    +0.033 A 
ATOM     29  C   UNL     1       3.941 -10.259   1.431  0.00  0.00    +0.136 A 
ATOM     30  C   UNL     1       3.224  -9.408   0.461  0.00  0.00    +0.155 A 
ATOM     31  N   UNL     1       3.479  -9.856  -0.743  0.00  0.00    -0.047 NA
ATOM     32  O   UNL     1       4.335 -10.979  -0.620  0.00  0.00    -0.242 OA
ATOM     33  N   UNL     1       4.595 -11.178   0.759  0.00  0.00    -0.049 NA
ENDBRANCH  23  25
ENDBRANCH  20  21
ENDBRANCH  19  20
ENDBRANCH   5  19
TORSDOF 7
