REMARK  Name = ZINC16347906
REMARK  10 active torsions:
REMARK  status: ('A' for Active; 'I' for Inactive)
REMARK    1  A    between atoms: C_1  and  C_2
REMARK    2  A    between atoms: C_5  and  S_11
REMARK    3  A    between atoms: C_7  and  N_8
REMARK    4  A    between atoms: S_11  and  N_14
REMARK    5  A    between atoms: N_14  and  C_15
REMARK    6  A    between atoms: N_14  and  C_29
REMARK    7  A    between atoms: C_15  and  C_16
REMARK    8  A    between atoms: N_18  and  C_19
REMARK    9  A    between atoms: C_34  and  O_35
REMARK   10  A    between atoms: O_35  and  C_36
REMARK                            x       y       z     vdW  Elec       q    Type
REMARK                         _______ _______ _______ _____ _____    ______ ____
ROOT
ATOM      1  N   UNL     1      -0.971   0.287   5.162  0.00  0.00    -0.191 N 
ENDROOT
BRANCH   1   2
ATOM      2  C   UNL     1       0.045   0.203   6.122  0.00  0.00    +0.095 A 
ATOM      3  C   UNL     1      -0.021   0.973   7.273  0.00  0.00    +0.048 A 
ATOM      4  C   UNL     1       0.984   0.888   8.220  0.00  0.00    +0.043 A 
ATOM      5  C   UNL     1       2.055   0.036   8.021  0.00  0.00    +0.024 A 
ATOM      6  C   UNL     1       2.127  -0.734   6.875  0.00  0.00    +0.049 A 
ATOM      7  C   UNL     1       1.121  -0.659   5.925  0.00  0.00    +0.143 A 
ATOM      8 CL   UNL     1       0.901   1.853   9.661  0.00  0.00    -0.083 Cl
BRANCH   7   9
ATOM      9  O   UNL     1       1.188  -1.421   4.801  0.00  0.00    -0.493 OA
ATOM     10  C   UNL     1       2.320  -2.282   4.666  0.00  0.00    +0.277 C 
ENDBRANCH   7   9
ENDBRANCH   1   2
BRANCH   1  11
ATOM     11  S   UNL     1      -2.223  -0.797   5.186  0.00  0.00    +0.075 S 
ATOM     12  O   UNL     1      -2.315  -1.283   6.518  0.00  0.00    -0.150 OA
ATOM     13  O   UNL     1      -3.315  -0.170   4.526  0.00  0.00    -0.150 OA
BRANCH  11  18
ATOM     14  C   UNL     1      -0.596  -5.482   1.750  0.00  0.00    +0.046 C 
ATOM     15  C   UNL     1      -1.002  -4.311   2.608  0.00  0.00    -0.020 A 
ATOM     16  C   UNL     1      -1.669  -3.240   2.044  0.00  0.00    +0.007 A 
ATOM     17  C   UNL     1      -2.046  -2.169   2.832  0.00  0.00    +0.029 A 
ATOM     18  C   UNL     1      -1.748  -2.165   4.182  0.00  0.00    +0.111 A 
ATOM     19  C   UNL     1      -1.081  -3.236   4.745  0.00  0.00    +0.061 A 
ATOM     20  C   UNL     1      -0.708  -4.310   3.958  0.00  0.00    +0.131 A 
BRANCH  20  21
ATOM     21  N   UNL     1       0.006  -5.457   4.562  0.00  0.00    +0.057 N 
ATOM     22  O   UNL     1      -0.225  -6.589   4.176  0.00  0.00    -0.126 OA
ATOM     23  O   UNL     1       0.825  -5.270   5.444  0.00  0.00    -0.126 OA
ENDBRANCH  20  21
ENDBRANCH  11  18
ENDBRANCH   1  11
BRANCH   1  24
ATOM     24  C   UNL     1      -0.926   1.333   4.138  0.00  0.00    +0.227 C 
BRANCH  24  25
ATOM     25  C   UNL     1      -0.073   0.870   2.985  0.00  0.00    +0.232 C 
ATOM     26  O   UNL     1       0.446  -0.225   3.015  0.00  0.00    -0.274 OA
ATOM     27  N   UNL     1       0.112   1.674   1.919  0.00  0.00    -0.311 N 
ATOM     28  H   UNL     1      -0.303   2.550   1.894  0.00  0.00    +0.149 HD
BRANCH  27  29
ATOM     29  C   UNL     1       0.941   1.224   0.798  0.00  0.00    +0.076 C 
ATOM     30  C   UNL     1       2.423   1.588   1.044  0.00  0.00    +0.026 C 
ATOM     31  C   UNL     1       2.797   2.539  -0.134  0.00  0.00    -0.009 C 
ATOM     32  C   UNL     1       2.821   1.614  -1.389  0.00  0.00    +0.004 C 
ATOM     33  C   UNL     1       1.339   1.251  -1.636  0.00  0.00    +0.005 C 
ATOM     34  C   UNL     1       0.559   1.990  -0.506  0.00  0.00    +0.010 C 
ATOM     35  C   UNL     1       1.433   3.284  -0.349  0.00  0.00    +0.009 C 
ENDBRANCH  27  29
ENDBRANCH  24  25
ENDBRANCH   1  24
TORSDOF 8
