REMARK  Name = ZINC01884073
REMARK  8 active torsions:
REMARK  status: ('A' for Active; 'I' for Inactive)
REMARK    1  A    between atoms: C_1  and  C_2
REMARK    2  A    between atoms: C_5  and  C_17
REMARK    3  A    between atoms: C_7  and  N_8
REMARK    4  A    between atoms: C_9  and  C_10
REMARK    5  A    between atoms: C_15  and  O_16
REMARK    6  A    between atoms: C_21  and  N_26
REMARK    7  A    between atoms: C_27  and  C_28
REMARK    8  A    between atoms: C_33  and  O_34
REMARK                            x       y       z     vdW  Elec       q    Type
REMARK                         _______ _______ _______ _____ _____    ______ ____
ROOT
ATOM      1  C   UNL     1      -0.526  -4.221  -0.043  0.00  0.00    +0.228 A 
ATOM      2  N   UNL     1      -0.547  -4.961  -1.123  0.00  0.00    -0.209 NA
ATOM      3  C   UNL     1      -0.830  -6.242  -0.770  0.00  0.00    +0.112 A 
ATOM      4  C   UNL     1      -0.976  -7.427  -1.490  0.00  0.00    +0.059 A 
ATOM      5  C   UNL     1      -1.275  -8.607  -0.818  0.00  0.00    +0.066 A 
ATOM      6  C   UNL     1      -1.428  -8.603   0.575  0.00  0.00    +0.031 A 
ATOM      7  C   UNL     1      -1.285  -7.434   1.286  0.00  0.00    +0.050 A 
ATOM      8  C   UNL     1      -0.986  -6.250   0.627  0.00  0.00    +0.156 A 
ATOM      9  O   UNL     1      -0.784  -4.978   1.040  0.00  0.00    -0.435 OA
ENDROOT
BRANCH   1  14
ATOM     10  C   UNL     1       0.544   1.443   0.029  0.00  0.00    +0.046 C 
ATOM     11  C   UNL     1       0.264  -0.038   0.014  0.00  0.00    -0.025 A 
ATOM     12  C   UNL     1       0.260  -0.726  -1.183  0.00  0.00    +0.006 A 
ATOM     13  C   UNL     1       0.005  -2.083  -1.206  0.00  0.00    +0.013 A 
ATOM     14  C   UNL     1      -0.252  -2.769  -0.016  0.00  0.00    +0.039 A 
ATOM     15  C   UNL     1      -0.249  -2.082   1.195  0.00  0.00    +0.041 A 
ATOM     16  C   UNL     1       0.015  -0.713   1.212  0.00  0.00    +0.067 A 
BRANCH  16  17
ATOM     17  N   UNL     1       0.025  -0.030   2.398  0.00  0.00    -0.255 NA
ATOM     18  C   UNL     1       0.684  -0.505   3.418  0.00  0.00    +0.123 C 
BRANCH  18  19
ATOM     19  C   UNL     1       0.598   0.163   4.725  0.00  0.00    +0.034 A 
ATOM     20  C   UNL     1       1.308  -0.339   5.821  0.00  0.00    +0.013 A 
ATOM     21  C   UNL     1       1.222   0.292   7.042  0.00  0.00    +0.001 A 
ATOM     22  C   UNL     1       0.435   1.423   7.191  0.00  0.00    +0.004 A 
ATOM     23  C   UNL     1      -0.271   1.930   6.118  0.00  0.00    +0.046 A 
ATOM     24  C   UNL     1      -0.193   1.312   4.880  0.00  0.00    +0.125 A 
BRANCH  24  25
ATOM     25  O   UNL     1      -0.882   1.813   3.823  0.00  0.00    -0.506 OA
ATOM     26  H   UNL     1      -1.775   1.452   3.729  0.00  0.00    +0.292 HD
ENDBRANCH  24  25
ENDBRANCH  18  19
ENDBRANCH  16  17
ENDBRANCH   1  14
BRANCH   5  27
ATOM     27  N   UNL     1      -1.421  -9.775  -1.518  0.00  0.00    -0.255 NA
ATOM     28  C   UNL     1      -0.860 -10.869  -1.085  0.00  0.00    +0.123 C 
BRANCH  28  29
ATOM     29  C   UNL     1      -1.016 -12.123  -1.836  0.00  0.00    +0.034 A 
ATOM     30  C   UNL     1      -0.421 -13.300  -1.373  0.00  0.00    +0.013 A 
ATOM     31  C   UNL     1      -0.572 -14.472  -2.082  0.00  0.00    +0.001 A 
ATOM     32  C   UNL     1      -1.310 -14.489  -3.254  0.00  0.00    +0.004 A 
ATOM     33  C   UNL     1      -1.903 -13.333  -3.724  0.00  0.00    +0.046 A 
ATOM     34  C   UNL     1      -1.768 -12.147  -3.021  0.00  0.00    +0.125 A 
BRANCH  34  35
ATOM     35  O   UNL     1      -2.356 -11.012  -3.478  0.00  0.00    -0.506 OA
ATOM     36  H   UNL     1      -1.799 -10.495  -4.077  0.00  0.00    +0.292 HD
ENDBRANCH  34  35
ENDBRANCH  28  29
ENDBRANCH   5  27
TORSDOF 7
