REMARK  Name = ZINC05417592
REMARK  4 active torsions:
REMARK  status: ('A' for Active; 'I' for Inactive)
REMARK    1  A    between atoms: C_1  and  C_2
REMARK    2  A    between atoms: C_2  and  C_3
REMARK    3  A    between atoms: C_3  and  C_4
REMARK    4  A    between atoms: C_6  and  C_10
REMARK                            x       y       z     vdW  Elec       q    Type
REMARK                         _______ _______ _______ _____ _____    ______ ____
ROOT
ATOM      1  C   UNL     1       2.386   0.210  -0.020  0.00  0.00    +0.069 C 
ATOM      2  N   UNL     1       1.343  -0.542  -0.014  0.00  0.00    -0.278 NA
ATOM      3  C   UNL     1       0.002  -0.004   0.002  0.00  0.00    +0.113 C 
ATOM      4  C   UNL     1      -0.019   1.541   0.011  0.00  0.00    +0.102 C 
ATOM      5  S   UNL     1       1.783   1.886  -0.005  0.00  0.00    -0.109 S 
ATOM      6  C   UNL     1      -0.721  -0.515   1.250  0.00  0.00    +0.033 C 
ENDROOT
BRANCH   1   7
ATOM      7  C   UNL     1       3.825  -0.236  -0.036  0.00  0.00    +0.062 C 
BRANCH   7   9
ATOM      8  C   UNL     1       5.347  -2.218  -0.063  0.00  0.00    +0.004 C 
ATOM      9  C   UNL     1       3.885  -1.765  -0.046  0.00  0.00    +0.003 C 
ENDBRANCH   7   9
ENDBRANCH   1   7
TORSDOF 2
