REMARK  Name = ZINC34774408
REMARK  8 active torsions:
REMARK  status: ('A' for Active; 'I' for Inactive)
REMARK    1  A    between atoms: C_1  and  C_2
REMARK    2  A    between atoms: C_2  and  C_3
REMARK    3  A    between atoms: C_2  and  C_4
REMARK    4  A    between atoms: C_4  and  S_5
REMARK    5  A    between atoms: S_5  and  C_6
REMARK    6  A    between atoms: C_10  and  C_15
REMARK    7  A    between atoms: N_24  and  C_27
REMARK    8  A    between atoms: C_27  and  C_28
REMARK                            x       y       z     vdW  Elec       q    Type
REMARK                         _______ _______ _______ _____ _____    ______ ____
ROOT
ATOM      1  C   UNL     1      -3.290  -2.794   0.342  0.00  0.00    +0.191 A 
ATOM      2  N   UNL     1      -3.644  -4.073   0.315  0.00  0.00    -0.206 NA
ATOM      3  C   UNL     1      -4.899  -4.457   0.476  0.00  0.00    +0.134 A 
ATOM      4  C   UNL     1      -5.907  -3.477   0.686  0.00  0.00    +0.055 A 
ATOM      5  C   UNL     1      -7.343  -3.649   0.888  0.00  0.00    +0.002 A 
ATOM      6  C   UNL     1      -8.111  -2.550   1.069  0.00  0.00    +0.056 A 
ATOM      7  S   UNL     1      -6.942  -1.206   0.980  0.00  0.00    -0.076 S 
ATOM      8  C   UNL     1      -5.461  -2.140   0.703  0.00  0.00    +0.115 A 
ATOM      9  N   UNL     1      -4.187  -1.837   0.538  0.00  0.00    -0.215 NA
ATOM     10  N   UNL     1      -5.228  -5.801   0.442  0.00  0.00    -0.318 N 
ATOM     11  C   UNL     1      -5.250  -6.541  -0.829  0.00  0.00    +0.088 C 
ATOM     12  C   UNL     1      -4.427  -7.822  -0.659  0.00  0.00    -0.059 C 
ATOM     13  N   UNL     1      -4.933  -8.579   0.492  0.00  0.00    +0.384 N 
ATOM     14  C   UNL     1      -4.727  -7.811   1.726  0.00  0.00    -0.059 C 
ATOM     15  C   UNL     1      -5.560  -6.530   1.675  0.00  0.00    +0.088 C 
ATOM     16  H   UNL     1      -5.919  -8.757   0.369  0.00  0.00    -0.081 HD
ENDROOT
BRANCH   5  17
ATOM     17  C   UNL     1      -7.948  -5.002   0.893  0.00  0.00    -0.017 A 
ATOM     18  C   UNL     1      -7.842  -5.820  -0.231  0.00  0.00    +0.008 A 
ATOM     19  C   UNL     1      -8.407  -7.079  -0.220  0.00  0.00    +0.001 A 
ATOM     20  C   UNL     1      -9.078  -7.529   0.903  0.00  0.00    +0.000 A 
ATOM     21  C   UNL     1      -9.186  -6.722   2.022  0.00  0.00    +0.001 A 
ATOM     22  C   UNL     1      -8.620  -5.463   2.024  0.00  0.00    +0.008 A 
ENDBRANCH   5  17
BRANCH   1  23
ATOM     23  S   UNL     1      -1.597  -2.360   0.119  0.00  0.00    -0.086 S 
BRANCH  23  24
ATOM     24  C   UNL     1      -1.589  -0.550   0.238  0.00  0.00    +0.080 C 
BRANCH  24  26
ATOM     25  C   UNL     1      -0.169   1.496   0.035  0.00  0.00    +0.008 C 
ATOM     26  C   UNL     1      -0.160  -0.034   0.060  0.00  0.00    -0.007 C 
ATOM     27  C   UNL     1       0.707  -0.519   1.224  0.00  0.00    +0.008 C 
ENDBRANCH  24  26
ENDBRANCH  23  24
ENDBRANCH   1  23
BRANCH  13  28
ATOM     28  C   UNL     1      -4.216  -9.858   0.589  0.00  0.00    -0.043 C 
BRANCH  28  29
ATOM     29  C   UNL     1      -4.817 -10.689   1.694  0.00  0.00    -0.064 A 
ATOM     30  C   UNL     1      -4.332 -10.578   2.983  0.00  0.00    +0.003 A 
ATOM     31  C   UNL     1      -4.883 -11.339   3.997  0.00  0.00    +0.020 A 
ATOM     32  C   UNL     1      -5.920 -12.212   3.720  0.00  0.00    +0.041 A 
ATOM     33  C   UNL     1      -6.405 -12.323   2.430  0.00  0.00    +0.020 A 
ATOM     34  C   UNL     1      -5.857 -11.557   1.418  0.00  0.00    +0.003 A 
ATOM     35 CL   UNL     1      -6.612 -13.169   4.993  0.00  0.00    -0.084 Cl
ENDBRANCH  28  29
ENDBRANCH  13  28
TORSDOF 6
