REMARK  Name = ZINC40760786
REMARK  10 active torsions:
REMARK  status: ('A' for Active; 'I' for Inactive)
REMARK    1  A    between atoms: C_1  and  C_2
REMARK    2  A    between atoms: C_5  and  C_8
REMARK    3  A    between atoms: C_8  and  N_9
REMARK    4  A    between atoms: C_11  and  N_27
REMARK    5  A    between atoms: C_12  and  N_16
REMARK    6  A    between atoms: N_16  and  C_17
REMARK    7  A    between atoms: C_19  and  C_25
REMARK    8  A    between atoms: C_19  and  C_26
REMARK    9  A    between atoms: C_21  and  C_23
REMARK   10  A    between atoms: C_21  and  C_24
REMARK                            x       y       z     vdW  Elec       q    Type
REMARK                         _______ _______ _______ _____ _____    ______ ____
ROOT
ATOM      1  N   UNL     1       1.296  -4.835   0.291  0.00  0.00    -0.323 N 
ATOM      2  C   UNL     1       1.560  -6.199   0.315  0.00  0.00    +0.145 A 
ATOM      3  C   UNL     1       2.874  -6.669   0.248  0.00  0.00    +0.105 A 
ATOM      4  C   UNL     1       3.083  -8.048   0.277  0.00  0.00    +0.145 A 
ATOM      5  N   UNL     1       2.030  -8.858   0.367  0.00  0.00    -0.219 NA
ATOM      6  C   UNL     1       0.807  -8.374   0.428  0.00  0.00    +0.225 A 
ATOM      7  N   UNL     1       0.566  -7.079   0.409  0.00  0.00    -0.219 NA
ATOM      8  H   UNL     1       2.027  -4.201   0.222  0.00  0.00    +0.148 HD
ENDROOT
BRANCH   3   9
ATOM      9  N   UNL     1       3.955  -5.777   0.153  0.00  0.00    -0.353 N 
ATOM     10  H   UNL     1       3.794  -4.820   0.134  0.00  0.00    +0.143 HD
ATOM     11  H   UNL     1       4.862  -6.117   0.107  0.00  0.00    +0.143 HD
ENDBRANCH   3   9
BRANCH   4  12
ATOM     12  N   UNL     1       4.370  -8.568   0.212  0.00  0.00    -0.325 N 
ATOM     13  H   UNL     1       5.132  -7.971   0.147  0.00  0.00    +0.148 HD
BRANCH  12  14
ATOM     14  C   UNL     1       4.577 -10.022   0.244  0.00  0.00    +0.069 C 
ATOM     15  C   UNL     1       4.657 -10.487   1.699  0.00  0.00    +0.009 C 
ATOM     16  C   UNL     1       4.885 -11.997   1.749  0.00  0.00    -0.072 C 
ATOM     17  N   UNL     1       6.045 -12.402   0.969  0.00  0.00    +0.386 N 
ATOM     18  C   UNL     1       6.184 -11.854  -0.371  0.00  0.00    -0.072 C 
ATOM     19  C   UNL     1       5.902 -10.357  -0.440  0.00  0.00    +0.009 C 
ATOM     20  C   UNL     1       5.306 -12.598  -1.381  0.00  0.00    -0.010 C 
ATOM     21  C   UNL     1       7.653 -12.065  -0.809  0.00  0.00    -0.010 C 
ATOM     22  C   UNL     1       3.618 -12.737   1.322  0.00  0.00    -0.010 C 
ATOM     23  C   UNL     1       5.160 -12.371   3.224  0.00  0.00    -0.010 C 
ATOM     24  H   UNL     1       6.887 -12.168   1.501  0.00  0.00    -0.084 HD
ATOM     25  H   UNL     1       6.046 -13.423   0.901  0.00  0.00    -0.084 HD
ENDBRANCH  12  14
ENDBRANCH   4  12
BRANCH   1  26
ATOM     26  C   UNL     1      -0.085  -4.355   0.368  0.00  0.00    +0.138 C 
BRANCH  26  31
ATOM     27  C   UNL     1      -0.134   1.421   0.193  0.00  0.00    +0.044 C 
ATOM     28  C   UNL     1      -0.121  -0.085   0.238  0.00  0.00    -0.050 A 
ATOM     29  C   UNL     1      -0.194  -0.813  -0.935  0.00  0.00    +0.003 A 
ATOM     30  C   UNL     1      -0.182  -2.195  -0.893  0.00  0.00    +0.005 A 
ATOM     31  C   UNL     1      -0.097  -2.849   0.322  0.00  0.00    -0.030 A 
ATOM     32  C   UNL     1      -0.023  -2.121   1.495  0.00  0.00    +0.005 A 
ATOM     33  C   UNL     1      -0.031  -0.739   1.453  0.00  0.00    +0.003 A 
ENDBRANCH  26  31
ENDBRANCH   1  26
TORSDOF 5
