REMARK  Name = ZINC63375605
REMARK  9 active torsions:
REMARK  status: ('A' for Active; 'I' for Inactive)
REMARK    1  A    between atoms: C_1  and  C_2
REMARK    2  A    between atoms: C_5  and  C_8
REMARK    3  A    between atoms: N_26  and  C_29
REMARK    4  A    between atoms: C_32  and  C_35
REMARK    5  A    between atoms: N_37  and  C_38
REMARK    6  A    between atoms: C_38  and  C_39
REMARK    7  A    between atoms: C_39  and  C_40
REMARK    8  A    between atoms: C_40  and  C_41
REMARK    9  A    between atoms: C_40  and  C_42
REMARK                            x       y       z     vdW  Elec       q    Type
REMARK                         _______ _______ _______ _____ _____    ______ ____
ROOT
ATOM      1  C   UNL     1       0.046  -4.301  -0.042  0.00  0.00    +0.135 C 
ATOM      2  C   UNL     1       1.476  -4.790   0.227  0.00  0.00    +0.131 C 
ATOM      3  C   UNL     1       1.750  -4.581   1.711  0.00  0.00    -0.034 C 
ATOM      4  C   UNL     1       2.828  -3.807   1.787  0.00  0.00    -0.001 A 
ATOM      5  C   UNL     1       3.599  -3.315   2.940  0.00  0.00    +0.010 A 
ATOM      6  C   UNL     1       4.662  -2.517   2.654  0.00  0.00    +0.001 A 
ATOM      7  C   UNL     1       5.029  -2.163   1.352  0.00  0.00    +0.002 A 
ATOM      8  C   UNL     1       4.381  -2.574   0.233  0.00  0.00    +0.026 A 
ATOM      9  C   UNL     1       3.248  -3.422   0.406  0.00  0.00    +0.043 A 
ATOM     10  N   UNL     1       2.460  -3.971  -0.486  0.00  0.00    -0.375 N 
ATOM     11  C   UNL     1       0.863  -5.133   2.801  0.00  0.00    +0.065 C 
ATOM     12  C   UNL     1      -0.363  -5.743   2.099  0.00  0.00    +0.169 C 
ATOM     13  N   UNL     1      -0.803  -4.804   1.044  0.00  0.00    -0.264 N 
ATOM     14  C   UNL     1      -2.083  -4.505   1.299  0.00  0.00    +0.317 C 
ATOM     15  O   UNL     1      -2.784  -3.842   0.560  0.00  0.00    -0.252 OA
ATOM     16  N   UNL     1      -2.502  -5.022   2.462  0.00  0.00    -0.193 N 
ATOM     17  C   UNL     1      -1.533  -5.792   3.058  0.00  0.00    +0.248 C 
ATOM     18  O   UNL     1      -1.588  -6.380   4.117  0.00  0.00    -0.273 OA
ATOM     19  H   UNL     1       2.512  -3.857  -1.448  0.00  0.00    +0.160 HD
ENDROOT
BRANCH   1  24
ATOM     20  C   UNL     1      -0.075   1.476  -0.114  0.00  0.00    +0.044 C 
ATOM     21  C   UNL     1      -0.044  -0.030  -0.096  0.00  0.00    -0.050 A 
ATOM     22  C   UNL     1      -0.038  -0.737  -1.284  0.00  0.00    +0.004 A 
ATOM     23  C   UNL     1      -0.009  -2.118  -1.267  0.00  0.00    +0.006 A 
ATOM     24  C   UNL     1       0.015  -2.794  -0.061  0.00  0.00    -0.025 A 
ATOM     25  C   UNL     1       0.011  -2.088   1.127  0.00  0.00    +0.006 A 
ATOM     26  C   UNL     1      -0.014  -0.706   1.110  0.00  0.00    +0.004 A 
ENDBRANCH   1  24
BRANCH  16  27
ATOM     27  C   UNL     1      -3.775  -4.814   3.001  0.00  0.00    +0.045 A 
ATOM     28  C   UNL     1      -4.160  -5.491   4.153  0.00  0.00    +0.025 A 
ATOM     29  C   UNL     1      -5.413  -5.288   4.686  0.00  0.00    +0.015 A 
ATOM     30  C   UNL     1      -6.298  -4.400   4.069  0.00  0.00    +0.037 A 
ATOM     31  C   UNL     1      -5.908  -3.721   2.912  0.00  0.00    +0.015 A 
ATOM     32  C   UNL     1      -4.651  -3.925   2.387  0.00  0.00    +0.025 A 
BRANCH  30  33
ATOM     33  C   UNL     1      -7.643  -4.180   4.638  0.00  0.00    +0.244 C 
ATOM     34  O   UNL     1      -7.981  -4.771   5.645  0.00  0.00    -0.270 OA
ATOM     35  N   UNL     1      -8.495  -3.323   4.041  0.00  0.00    -0.311 N 
ATOM     36  H   UNL     1      -8.225  -2.851   3.238  0.00  0.00    +0.149 HD
BRANCH  35  37
ATOM     37  C   UNL     1      -9.829  -3.104   4.606  0.00  0.00    +0.105 C 
BRANCH  37  38
ATOM     38  C   UNL     1     -10.588  -2.094   3.744  0.00  0.00    +0.022 C 
BRANCH  38  39
ATOM     39  C   UNL     1     -11.982  -1.866   4.333  0.00  0.00    -0.016 C 
ATOM     40  C   UNL     1     -11.852  -1.208   5.709  0.00  0.00    +0.007 C 
ATOM     41  C   UNL     1     -12.785  -0.953   3.405  0.00  0.00    +0.007 C 
ENDBRANCH  38  39
ENDBRANCH  37  38
ENDBRANCH  35  37
ENDBRANCH  30  33
ENDBRANCH  16  27
TORSDOF 6
