REMARK  Name = ZINC07406391
REMARK  9 active torsions:
REMARK  status: ('A' for Active; 'I' for Inactive)
REMARK    1  A    between atoms: C_1  and  N_55
REMARK    2  A    between atoms: C_2  and  N_55
REMARK    3  A    between atoms: C_3  and  C_5
REMARK    4  A    between atoms: C_3  and  C_27
REMARK    5  A    between atoms: C_3  and  N_55
REMARK    6  A    between atoms: C_5  and  N_6
REMARK    7  A    between atoms: C_7  and  C_9
REMARK    8  A    between atoms: N_18  and  C_20
REMARK    9  A    between atoms: C_20  and  C_21
REMARK                            x       y       z     vdW  Elec       q    Type
REMARK                         _______ _______ _______ _____ _____    ______ ____
ROOT
ATOM      1  C   UNL     1       7.420   1.272   1.557  0.00  0.00    +0.154 A 
ATOM      2  C   UNL     1       8.481   1.415   2.567  0.00  0.00    +0.020 A 
ATOM      3  C   UNL     1       8.223   1.785   3.883  0.00  0.00    +0.011 A 
ATOM      4  C   UNL     1       9.272   1.898   4.771  0.00  0.00    +0.001 A 
ATOM      5  C   UNL     1      10.577   1.648   4.367  0.00  0.00    +0.001 A 
ATOM      6  C   UNL     1      10.854   1.281   3.067  0.00  0.00    +0.014 A 
ATOM      7  C   UNL     1       9.809   1.161   2.155  0.00  0.00    +0.050 A 
ATOM      8  C   UNL     1      10.015   0.775   0.752  0.00  0.00    +0.275 A 
ATOM      9  O   UNL     1      11.132   0.541   0.328  0.00  0.00    -0.266 OA
ATOM     10  N   UNL     1       8.938   0.687  -0.054  0.00  0.00    -0.224 N 
ATOM     11  N   UNL     1       7.742   0.916   0.337  0.00  0.00    -0.163 NA
ENDROOT
BRANCH   1  13
ATOM     12  N   UNL     1       5.044   1.389   0.983  0.00  0.00    -0.311 N 
ATOM     13  C   UNL     1       6.009   1.522   1.914  0.00  0.00    +0.265 C 
ATOM     14  O   UNL     1       5.718   1.848   3.049  0.00  0.00    -0.268 OA
ATOM     15  H   UNL     1       5.276   1.129   0.078  0.00  0.00    +0.149 HD
BRANCH  12  16
ATOM     16  C   UNL     1       3.645   1.637   1.338  0.00  0.00    +0.097 C 
BRANCH  16  17
ATOM     17  C   UNL     1       2.760   1.417   0.109  0.00  0.00    +0.016 C 
BRANCH  17  18
ATOM     18  C   UNL     1       1.338   1.790   0.440  0.00  0.00    +0.093 A 
ATOM     19  C   UNL     1       0.320   0.929   0.615  0.00  0.00    +0.043 A 
ATOM     20  C   UNL     1      -0.828   1.704   0.901  0.00  0.00    +0.041 A 
ATOM     21  C   UNL     1      -0.439   2.992   0.894  0.00  0.00    +0.195 A 
ATOM     22  O   UNL     1       0.873   3.038   0.610  0.00  0.00    -0.469 OA
ENDBRANCH  17  18
BRANCH  17  25
ATOM     23  C   UNL     1       2.429   2.053  -2.204  0.00  0.00    -0.096 C 
ATOM     24  C   UNL     1       3.265   3.673  -0.610  0.00  0.00    -0.096 C 
ATOM     25  N   UNL     1       3.268   2.248  -1.003  0.00  0.00    +0.384 N 
ATOM     26  H   UNL     1       4.231   1.964  -1.219  0.00  0.00    -0.082 HD
ENDBRANCH  17  25
ENDBRANCH  16  17
ENDBRANCH  12  16
ENDBRANCH   1  13
BRANCH  10  27
ATOM     27  C   UNL     1       9.148   0.301  -1.452  0.00  0.00    +0.182 C 
BRANCH  27  28
ATOM     28  C   UNL     1       9.068  -1.198  -1.577  0.00  0.00    -0.026 A 
ATOM     29  C   UNL     1      10.210  -1.965  -1.441  0.00  0.00    +0.005 A 
ATOM     30  C   UNL     1      10.135  -3.341  -1.551  0.00  0.00    +0.000 A 
ATOM     31  C   UNL     1       8.920  -3.949  -1.808  0.00  0.00    +0.000 A 
ATOM     32  C   UNL     1       7.779  -3.182  -1.949  0.00  0.00    +0.000 A 
ATOM     33  C   UNL     1       7.853  -1.806  -1.834  0.00  0.00    +0.005 A 
ENDBRANCH  27  28
ENDBRANCH  10  27
TORSDOF 7
