REMARK  Name = ZINC04587775
REMARK  7 active torsions:
REMARK  status: ('A' for Active; 'I' for Inactive)
REMARK    1  A    between atoms: C_4  and  C_7
REMARK    2  A    between atoms: C_10  and  C_12
REMARK    3  A    between atoms: N_14  and  N_15
REMARK    4  A    between atoms: C_16  and  C_17
REMARK    5  A    between atoms: C_16  and  C_28
REMARK    6  A    between atoms: C_18  and  C_19
REMARK    7  A    between atoms: C_24  and  N_25
REMARK                            x       y       z     vdW  Elec       q    Type
REMARK                         _______ _______ _______ _____ _____    ______ ____
ROOT
ATOM      1  N   UNL     1       4.872  -2.639  -0.015  0.00  0.00    -0.180 NA
ATOM      2  C   UNL     1       4.940  -1.510  -0.770  0.00  0.00    +0.089 C 
ENDROOT
BRANCH   2   3
ATOM      3  C   UNL     1       3.992  -1.307  -1.879  0.00  0.00    +0.002 A 
ATOM      4  C   UNL     1       3.488  -0.028  -2.149  0.00  0.00    +0.010 A 
ATOM      5  C   UNL     1       2.601   0.153  -3.188  0.00  0.00    +0.001 A 
ATOM      6  C   UNL     1       2.208  -0.925  -3.964  0.00  0.00    +0.000 A 
ATOM      7  C   UNL     1       2.701  -2.194  -3.704  0.00  0.00    +0.001 A 
ATOM      8  C   UNL     1       3.589  -2.392  -2.669  0.00  0.00    +0.010 A 
ENDBRANCH   2   3
BRANCH   1  11
ATOM      9  C   UNL     1       3.872  -4.627   0.502  0.00  0.00    +0.236 C 
ATOM     10  O   UNL     1       4.787  -4.914   1.236  0.00  0.00    -0.274 OA
ATOM     11  N   UNL     1       3.883  -3.454  -0.162  0.00  0.00    -0.206 N 
ATOM     12  H   UNL     1       3.148  -3.223  -0.751  0.00  0.00    +0.177 HD
BRANCH   9  15
ATOM     13  C   UNL     1       2.762  -6.893   1.112  0.00  0.00    +0.032 C 
ATOM     14  C   UNL     1       2.989  -6.895  -0.401  0.00  0.00    +0.022 C 
ATOM     15  C   UNL     1       2.716  -5.579   0.331  0.00  0.00    +0.085 C 
BRANCH  13  19
ATOM     16  C   UNL     1       6.155  -7.583   3.615  0.00  0.00    +0.000 A 
ATOM     17  C   UNL     1       4.887  -7.547   4.164  0.00  0.00    +0.000 A 
ATOM     18  C   UNL     1       3.789  -7.324   3.354  0.00  0.00    +0.004 A 
ATOM     19  C   UNL     1       3.959  -7.137   1.995  0.00  0.00    -0.044 A 
ATOM     20  C   UNL     1       5.227  -7.178   1.445  0.00  0.00    +0.004 A 
ATOM     21  C   UNL     1       6.325  -7.396   2.256  0.00  0.00    +0.000 A 
ENDBRANCH  13  19
ENDBRANCH   9  15
ENDBRANCH   1  11
BRANCH   2  22
ATOM     22  C   UNL     1       5.907  -0.546  -0.495  0.00  0.00    +0.030 C 
ATOM     23  C   UNL     1       6.808  -0.740   0.560  0.00  0.00    +0.012 C 
BRANCH  23  24
ATOM     24  C   UNL     1       7.787   0.236   0.839  0.00  0.00    +0.005 A 
ATOM     25  C   UNL     1       8.033   1.280  -0.080  0.00  0.00    +0.010 A 
ATOM     26  C   UNL     1       8.983   2.219   0.202  0.00  0.00    +0.001 A 
ATOM     27  C   UNL     1       9.705   2.151   1.386  0.00  0.00    +0.002 A 
ATOM     28  C   UNL     1       9.473   1.130   2.297  0.00  0.00    +0.033 A 
ATOM     29  C   UNL     1       8.524   0.182   2.041  0.00  0.00    +0.133 A 
BRANCH  29  30
ATOM     30  N   UNL     1       8.274  -0.907   3.021  0.00  0.00    +0.057 N 
ATOM     31  O   UNL     1       9.061  -1.044   4.068  0.00  0.00    -0.126 OA
ATOM     32  O   UNL     1       7.264  -1.734   2.843  0.00  0.00    -0.126 OA
ENDBRANCH  29  30
ENDBRANCH  23  24
ENDBRANCH   2  22
TORSDOF 7
