REMARK  Name = ZINC38636925
REMARK  13 active torsions:
REMARK  status: ('A' for Active; 'I' for Inactive)
REMARK    1  A    between atoms: C_1  and  C_2
REMARK    2  A    between atoms: C_2  and  C_3
REMARK    3  A    between atoms: C_2  and  C_4
REMARK    4  A    between atoms: C_2  and  C_5
REMARK    5  A    between atoms: C_8  and  N_11
REMARK    6  A    between atoms: N_14  and  C_15
REMARK    7  A    between atoms: C_15  and  C_16
REMARK    8  A    between atoms: C_16  and  C_18
REMARK    9  A    between atoms: C_16  and  N_27
REMARK   10  A    between atoms: C_21  and  N_24
REMARK   11  A    between atoms: N_24  and  C_25
REMARK   12  A    between atoms: N_24  and  C_26
REMARK   13  A    between atoms: N_30  and  C_33
REMARK                            x       y       z     vdW  Elec       q    Type
REMARK                         _______ _______ _______ _____ _____    ______ ____
ROOT
ATOM      1  C   UNL     1       6.249  -1.743  -7.807  0.00  0.00    +0.104 C 
ENDROOT
BRANCH   1   2
ATOM      2  N   UNL     1       5.332  -1.823  -8.952  0.00  0.00    -0.297 NA
ATOM      3  C   UNL     1       6.063  -2.120 -10.192  0.00  0.00    +0.066 C 
ATOM      4  C   UNL     1       5.069  -2.254 -11.347  0.00  0.00    -0.064 C 
ATOM      5  N   UNL     1       4.314  -1.002 -11.491  0.00  0.00    +0.379 N 
ATOM      6  C   UNL     1       3.570  -0.731 -10.254  0.00  0.00    -0.064 C 
ATOM      7  C   UNL     1       4.552  -0.585  -9.090  0.00  0.00    +0.066 C 
ATOM      8  C   UNL     1       3.372  -1.124 -12.612  0.00  0.00    -0.096 C 
ATOM      9  H   UNL     1       4.954  -0.243 -11.672  0.00  0.00    -0.082 HD
ENDBRANCH   1   2
BRANCH   1  10
ATOM     10  C   UNL     1       7.542  -1.102  -8.242  0.00  0.00    -0.029 A 
ATOM     11  C   UNL     1       7.559   0.228  -8.620  0.00  0.00    +0.007 A 
ATOM     12  C   UNL     1       8.742   0.819  -9.019  0.00  0.00    +0.023 A 
ATOM     13  C   UNL     1       9.915   0.075  -9.040  0.00  0.00    +0.029 A 
ATOM     14  C   UNL     1       9.894  -1.261  -8.660  0.00  0.00    +0.023 A 
ATOM     15  C   UNL     1       8.708  -1.844  -8.257  0.00  0.00    +0.007 A 
BRANCH  13  16
ATOM     16  N   UNL     1      11.113   0.669  -9.444  0.00  0.00    -0.336 N 
ATOM     17  C   UNL     1      11.133   2.077  -9.845  0.00  0.00    +0.129 C 
ATOM     18  C   UNL     1      12.349  -0.117  -9.466  0.00  0.00    +0.129 C 
ENDBRANCH  13  16
ENDBRANCH   1  10
BRANCH   1  19
ATOM     19  C   UNL     1       5.610  -0.902  -6.700  0.00  0.00    +0.129 C 
BRANCH  19  23
ATOM     20  N   UNL     1       2.438  -1.513  -4.943  0.00  0.00    -0.269 N 
ATOM     21  C   UNL     1       3.581  -0.927  -5.350  0.00  0.00    +0.304 C 
ATOM     22  O   UNL     1       3.903   0.156  -4.899  0.00  0.00    -0.253 OA
ATOM     23  N   UNL     1       4.367  -1.540  -6.257  0.00  0.00    -0.297 N 
ATOM     24  H   UNL     1       2.210  -2.402  -5.258  0.00  0.00    +0.156 HD
ATOM     25  H   UNL     1       4.111  -2.403  -6.617  0.00  0.00    +0.150 HD
BRANCH  20  29
ATOM     26  C   UNL     1      -0.117   0.489  -2.331  0.00  0.00    -0.042 A 
ATOM     27  C   UNL     1       0.584   1.198  -3.290  0.00  0.00    +0.006 A 
ATOM     28  C   UNL     1       1.431   0.537  -4.157  0.00  0.00    +0.023 A 
ATOM     29  C   UNL     1       1.580  -0.841  -4.066  0.00  0.00    +0.035 A 
ATOM     30  C   UNL     1       0.876  -1.550  -3.102  0.00  0.00    +0.023 A 
ATOM     31  C   UNL     1       0.034  -0.882  -2.234  0.00  0.00    +0.006 A 
BRANCH  26  33
ATOM     32  C   UNL     1      -0.573   0.994   0.053  0.00  0.00    +0.015 C 
ATOM     33  C   UNL     1      -1.041   1.213  -1.387  0.00  0.00    -0.013 C 
ATOM     34  C   UNL     1      -2.463   0.672  -1.549  0.00  0.00    +0.015 C 
ATOM     35  C   UNL     1      -1.025   2.710  -1.705  0.00  0.00    +0.015 C 
ENDBRANCH  26  33
ENDBRANCH  20  29
ENDBRANCH  19  23
ENDBRANCH   1  19
TORSDOF 7
