REMARK  Name = ZINC09453924
REMARK  8 active torsions:
REMARK  status: ('A' for Active; 'I' for Inactive)
REMARK    1  A    between atoms: C_1  and  O_2
REMARK    2  A    between atoms: O_2  and  C_3
REMARK    3  A    between atoms: C_6  and  C_9
REMARK    4  A    between atoms: C_12  and  C_33
REMARK    5  A    between atoms: C_15  and  C_17
REMARK    6  A    between atoms: C_17  and  S_18
REMARK    7  A    between atoms: S_18  and  C_19
REMARK    8  A    between atoms: C_25  and  C_27
REMARK                            x       y       z     vdW  Elec       q    Type
REMARK                         _______ _______ _______ _____ _____    ______ ____
ROOT
ATOM      1  C   UNL     1       3.711  -0.707  -0.037  0.00  0.00    +0.137 C 
ATOM      2  C   UNL     1       4.345  -0.652  -1.441  0.00  0.00    +0.087 C 
ATOM      3  C   UNL     1       5.654   0.073  -1.222  0.00  0.00    +0.075 C 
ATOM      4  N   UNL     1       5.772   0.380   0.027  0.00  0.00    -0.180 NA
ATOM      5  N   UNL     1       4.697  -0.025   0.815  0.00  0.00    -0.184 N 
ATOM      6  C   UNL     1       4.580   0.175   2.143  0.00  0.00    +0.246 C 
ATOM      7  O   UNL     1       3.597  -0.222   2.732  0.00  0.00    -0.273 OA
ENDROOT
BRANCH   1  11
ATOM      8  C   UNL     1      -0.017   1.383   0.010  0.00  0.00    +0.120 A 
ATOM      9  C   UNL     1       1.177   2.091   0.002  0.00  0.00    +0.046 A 
ATOM     10  C   UNL     1       2.380   1.413  -0.013  0.00  0.00    +0.009 A 
ATOM     11  C   UNL     1       2.396   0.030  -0.021  0.00  0.00    -0.024 A 
ATOM     12  C   UNL     1       1.208  -0.677  -0.013  0.00  0.00    +0.009 A 
ATOM     13  C   UNL     1       0.002  -0.004   0.002  0.00  0.00    +0.046 A 
BRANCH   8  15
ATOM     14  C   UNL     1      -1.145   3.475   0.026  0.00  0.00    +0.277 C 
ATOM     15  O   UNL     1      -1.202   2.048   0.019  0.00  0.00    -0.495 OA
ENDBRANCH   8  15
ENDBRANCH   1  11
BRANCH   3  16
ATOM     16  C   UNL     1       6.637   0.380  -2.266  0.00  0.00    +0.035 A 
ATOM     17  C   UNL     1       7.851   1.035  -2.156  0.00  0.00    +0.017 A 
ATOM     18  C   UNL     1       8.607   1.205  -3.292  0.00  0.00    +0.008 A 
ATOM     19  C   UNL     1       8.143   0.729  -4.478  0.00  0.00    +0.046 A 
ATOM     20  S   UNL     1       6.583  -0.001  -4.010  0.00  0.00    -0.095 S 
ENDBRANCH   3  16
BRANCH   6  21
ATOM     21  C   UNL     1       5.671   0.892   2.896  0.00  0.00    +0.175 C 
BRANCH  21  22
ATOM     22  S   UNL     1       5.224   1.003   4.646  0.00  0.00    -0.078 S 
BRANCH  22  23
ATOM     23  C   UNL     1       6.632   1.860   5.269  0.00  0.00    +0.170 A 
ATOM     24  N   UNL     1       6.700   2.156   6.596  0.00  0.00    -0.302 N 
ATOM     25  H   UNL     1       5.977   1.895   7.188  0.00  0.00    +0.171 HD
ATOM     26  C   UNL     1       7.771   2.811   7.091  0.00  0.00    +0.253 A 
ATOM     27  O   UNL     1       7.840   3.080   8.280  0.00  0.00    -0.268 OA
ATOM     28  C   UNL     1       8.804   3.177   6.215  0.00  0.00    +0.098 A 
ATOM     29  C   UNL     1       8.685   2.852   4.872  0.00  0.00    +0.079 A 
ATOM     30  N   UNL     1       7.600   2.195   4.441  0.00  0.00    -0.223 NA
BRANCH  29  31
ATOM     31  C   UNL     1       9.757   3.224   3.919  0.00  0.00    +0.001 A 
ATOM     32  C   UNL     1      10.887   3.907   4.368  0.00  0.00    +0.010 A 
ATOM     33  C   UNL     1      11.884   4.247   3.477  0.00  0.00    +0.001 A 
ATOM     34  C   UNL     1      11.760   3.919   2.138  0.00  0.00    +0.000 A 
ATOM     35  C   UNL     1      10.639   3.246   1.686  0.00  0.00    +0.001 A 
ATOM     36  C   UNL     1       9.638   2.897   2.569  0.00  0.00    +0.010 A 
ENDBRANCH  29  31
ENDBRANCH  22  23
ENDBRANCH  21  22
ENDBRANCH   6  21
TORSDOF 7
