REMARK  Name = ZINC08066700
REMARK  5 active torsions:
REMARK  status: ('A' for Active; 'I' for Inactive)
REMARK    1  A    between atoms: C_4  and  C_7
REMARK    2  A    between atoms: C_7  and  N_8
REMARK    3  A    between atoms: C_18  and  C_20
REMARK    4  A    between atoms: C_20  and  S_21
REMARK    5  A    between atoms: S_21  and  C_22
REMARK                            x       y       z     vdW  Elec       q    Type
REMARK                         _______ _______ _______ _____ _____    ______ ____
ROOT
ATOM      1  N   UNL     1      -0.971   2.604   0.254  0.00  0.00    -0.245 N 
ATOM      2  C   UNL     1       0.168   1.822   0.408  0.00  0.00    +0.168 A 
ATOM      3  N   UNL     1       1.393   2.194   0.715  0.00  0.00    -0.229 NA
ATOM      4  C   UNL     1       2.393   1.323   0.824  0.00  0.00    +0.054 A 
ATOM      5  C   UNL     1       2.076   0.021   0.598  0.00  0.00    +0.014 A 
ATOM      6  S   UNL     1       0.342   0.101   0.237  0.00  0.00    -0.057 S 
ATOM      7  C   UNL     1       2.981  -1.163   0.646  0.00  0.00    +0.044 C 
ATOM      8  C   UNL     1       4.433  -0.659   0.638  0.00  0.00    +0.006 C 
ATOM      9  C   UNL     1       4.567   0.470   1.664  0.00  0.00    +0.006 C 
ATOM     10  C   UNL     1       3.823   1.714   1.178  0.00  0.00    +0.056 C 
ATOM     11  C   UNL     1      -2.145   2.029  -0.073  0.00  0.00    +0.232 C 
ATOM     12  O   UNL     1      -2.228   0.821  -0.147  0.00  0.00    -0.274 OA
ENDROOT
BRANCH   1  13
ATOM     13  C   UNL     1      -0.894   4.054   0.447  0.00  0.00    +0.150 C 
BRANCH  13  17
ATOM     14  C   UNL     1      -1.288   4.960   4.603  0.00  0.00    +0.000 A 
ATOM     15  C   UNL     1      -0.042   4.693   4.069  0.00  0.00    +0.000 A 
ATOM     16  C   UNL     1       0.086   4.400   2.724  0.00  0.00    +0.005 A 
ATOM     17  C   UNL     1      -1.033   4.374   1.914  0.00  0.00    -0.030 A 
ATOM     18  C   UNL     1      -2.279   4.646   2.446  0.00  0.00    +0.005 A 
ATOM     19  C   UNL     1      -2.408   4.934   3.792  0.00  0.00    +0.000 A 
ENDBRANCH  13  17
ENDBRANCH   1  13
BRANCH  11  20
ATOM     20  C   UNL     1      -3.354   2.886  -0.346  0.00  0.00    +0.172 C 
BRANCH  20  21
ATOM     21  S   UNL     1      -4.803   1.825  -0.601  0.00  0.00    -0.088 S 
BRANCH  21  22
ATOM     22  C   UNL     1      -6.115   2.960  -0.904  0.00  0.00    +0.160 A 
ATOM     23  N   UNL     1      -6.087   4.279  -0.945  0.00  0.00    -0.133 NA
ATOM     24  N   UNL     1      -7.242   4.980  -1.203  0.00  0.00    -0.125 NA
ATOM     25  C   UNL     1      -8.372   4.331  -1.408  0.00  0.00    +0.180 A 
ATOM     26  S   UNL     1      -7.837   2.635  -1.247  0.00  0.00    -0.025 S 
ATOM     27  N   UNL     1      -9.639   4.834  -1.681  0.00  0.00    -0.336 N 
ATOM     28  H   UNL     1      -9.778   5.792  -1.743  0.00  0.00    +0.144 HD
ATOM     29  H   UNL     1     -10.384   4.226  -1.811  0.00  0.00    +0.144 HD
ENDBRANCH  21  22
ENDBRANCH  20  21
ENDBRANCH  11  20
TORSDOF 5
