REMARK  Name = ZINC40755857
REMARK  8 active torsions:
REMARK  status: ('A' for Active; 'I' for Inactive)
REMARK    1  A    between atoms: C_1  and  N_2
REMARK    2  A    between atoms: N_2  and  C_3
REMARK    3  A    between atoms: C_8  and  C_9
REMARK    4  A    between atoms: C_9  and  O_11
REMARK    5  A    between atoms: O_11  and  C_12
REMARK    6  A    between atoms: C_14  and  N_30
REMARK    7  A    between atoms: C_15  and  N_19
REMARK    8  A    between atoms: N_19  and  C_20
REMARK                            x       y       z     vdW  Elec       q    Type
REMARK                         _______ _______ _______ _____ _____    ______ ____
ROOT
ATOM      1  C   UNL     1       1.183   0.232   0.625  0.00  0.00    +0.137 C 
ATOM      2  N   UNL     1      -0.080  -0.248   0.058  0.00  0.00    -0.287 N 
ATOM      3  C   UNL     1      -0.078  -0.985  -1.122  0.00  0.00    +0.128 A 
ATOM      4  C   UNL     1      -0.025  -0.341  -2.359  0.00  0.00    +0.104 A 
ATOM      5  C   UNL     1      -0.025  -1.128  -3.512  0.00  0.00    +0.145 A 
ATOM      6  N   UNL     1      -0.075  -2.452  -3.389  0.00  0.00    -0.221 NA
ATOM      7  C   UNL     1      -0.125  -3.020  -2.201  0.00  0.00    +0.200 A 
ATOM      8  N   UNL     1      -0.121  -2.314  -1.088  0.00  0.00    -0.333 N 
ATOM      9  H   UNL     1      -0.154  -2.771  -0.233  0.00  0.00    +0.168 HD
ENDROOT
BRANCH   2  10
ATOM     10  C   UNL     1      -1.281   0.033   0.700  0.00  0.00    +0.049 A 
ATOM     11  C   UNL     1      -2.073   1.089   0.268  0.00  0.00    +0.024 A 
ATOM     12  C   UNL     1      -3.264   1.366   0.906  0.00  0.00    +0.002 A 
ATOM     13  C   UNL     1      -3.680   0.596   1.981  0.00  0.00    +0.001 A 
ATOM     14  C   UNL     1      -2.909  -0.456   2.424  0.00  0.00    +0.017 A 
ATOM     15  C   UNL     1      -1.702  -0.753   1.784  0.00  0.00    +0.080 A 
BRANCH  15  16
ATOM     16  C   UNL     1      -0.875  -1.881   2.248  0.00  0.00    +0.341 C 
ATOM     17  O   UNL     1       0.164  -2.148   1.677  0.00  0.00    -0.245 OA
BRANCH  16  18
ATOM     18  O   UNL     1      -1.270  -2.615   3.307  0.00  0.00    -0.464 OA
ATOM     19  C   UNL     1      -0.419  -3.693   3.703  0.00  0.00    +0.280 C 
ENDBRANCH  16  18
ENDBRANCH  15  16
ENDBRANCH   2  10
BRANCH   4  20
ATOM     20  N   UNL     1       0.027   1.060  -2.442  0.00  0.00    -0.353 N 
ATOM     21  H   UNL     1       0.105   1.591  -1.634  0.00  0.00    +0.143 HD
ATOM     22  H   UNL     1      -0.015   1.496  -3.307  0.00  0.00    +0.143 HD
ENDBRANCH   4  20
BRANCH   5  23
ATOM     23  N   UNL     1       0.026  -0.538  -4.769  0.00  0.00    -0.322 N 
ATOM     24  H   UNL     1       0.063   0.428  -4.851  0.00  0.00    +0.148 HD
BRANCH  23  25
ATOM     25  C   UNL     1       0.026  -1.374  -5.972  0.00  0.00    +0.034 C 
ATOM     26  C   UNL     1      -1.253  -2.213  -6.009  0.00  0.00    +0.029 C 
ATOM     27  C   UNL     1      -1.254  -3.087  -7.265  0.00  0.00    -0.008 C 
ATOM     28  C   UNL     1      -1.192  -2.195  -8.507  0.00  0.00    +0.007 C 
ATOM     29  C   UNL     1       0.087  -1.357  -8.470  0.00  0.00    -0.008 C 
ATOM     30  C   UNL     1       0.087  -0.483  -7.214  0.00  0.00    +0.029 C 
ATOM     31  C   UNL     1       1.304  -2.284  -8.447  0.00  0.00    +0.007 C 
ATOM     32  C   UNL     1       1.242  -3.175  -7.205  0.00  0.00    -0.008 C 
ATOM     33  C   UNL     1      -0.037  -4.014  -7.242  0.00  0.00    +0.007 C 
ATOM     34  C   UNL     1       1.243  -2.301  -5.949  0.00  0.00    +0.029 C 
ENDBRANCH  23  25
ENDBRANCH   5  23
TORSDOF 6
