REMARK  Name = ZINC44713735
REMARK  9 active torsions:
REMARK  status: ('A' for Active; 'I' for Inactive)
REMARK    1  A    between atoms: C_1  and  C_2
REMARK    2  A    between atoms: C_3  and  C_9
REMARK    3  A    between atoms: C_4  and  C_8
REMARK    4  A    between atoms: C_9  and  C_11
REMARK    5  A    between atoms: C_9  and  N_12
REMARK    6  A    between atoms: C_13  and  C_15
REMARK    7  A    between atoms: C_26  and  C_28
REMARK    8  A    between atoms: C_31  and  O_34
REMARK    9  A    between atoms: O_34  and  C_35
REMARK                            x       y       z     vdW  Elec       q    Type
REMARK                         _______ _______ _______ _____ _____    ______ ____
ROOT
ATOM      1  C   UNL     1      -2.847  -1.811  -5.751  0.00  0.00    +0.100 C 
ATOM      2  C   UNL     1      -4.017  -1.951  -4.751  0.00  0.00    +0.121 C 
ATOM      3  N   UNL     1      -4.932  -0.835  -5.087  0.00  0.00    -0.296 N 
ATOM      4  C   UNL     1      -4.908  -0.770  -6.568  0.00  0.00    +0.115 C 
ATOM      5  C   UNL     1      -3.437  -1.039  -6.943  0.00  0.00    -0.004 C 
ATOM      6  C   UNL     1      -3.360  -1.885  -8.210  0.00  0.00    -0.010 C 
ATOM      7  C   UNL     1      -3.898  -1.074  -9.393  0.00  0.00    -0.082 C 
ATOM      8  N   UNL     1      -3.105   0.151  -9.550  0.00  0.00    +0.379 N 
ATOM      9  C   UNL     1      -3.259   1.002  -8.364  0.00  0.00    -0.082 C 
ATOM     10  C   UNL     1      -2.694   0.280  -7.138  0.00  0.00    -0.010 C 
ATOM     11  C   UNL     1      -5.630  -0.054  -4.238  0.00  0.00    +0.247 C 
ATOM     12  O   UNL     1      -5.466  -0.165  -3.038  0.00  0.00    -0.270 OA
ATOM     13  H   UNL     1      -2.132  -0.092  -9.664  0.00  0.00    -0.086 HD
ATOM     14  H   UNL     1      -3.422   0.653 -10.366  0.00  0.00    -0.086 HD
ENDROOT
BRANCH  11  15
ATOM     15  C   UNL     1      -6.591   0.934  -4.764  0.00  0.00    +0.037 A 
ATOM     16  C   UNL     1      -7.128   0.776  -6.045  0.00  0.00    +0.016 A 
ATOM     17  C   UNL     1      -8.025   1.700  -6.532  0.00  0.00    +0.047 A 
ATOM     18  C   UNL     1      -8.397   2.788  -5.752  0.00  0.00    +0.130 A 
ATOM     19  C   UNL     1      -7.866   2.949  -4.478  0.00  0.00    +0.047 A 
ATOM     20  C   UNL     1      -6.973   2.026  -3.981  0.00  0.00    +0.016 A 
BRANCH  18  21
ATOM     21  O   UNL     1      -9.281   3.697  -6.237  0.00  0.00    -0.406 OA
BRANCH  21  22
ATOM     22  C   UNL     1      -9.620   4.792  -5.383  0.00  0.00    +0.575 C 
ATOM     23  F   UNL     1      -8.464   5.518  -5.075  0.00  0.00    -0.133 F 
ATOM     24  F   UNL     1     -10.535   5.625  -6.034  0.00  0.00    -0.133 F 
ATOM     25  F   UNL     1     -10.191   4.303  -4.203  0.00  0.00    -0.133 F 
ENDBRANCH  21  22
ENDBRANCH  18  21
ENDBRANCH  11  15
BRANCH   1  27
ATOM     26  N   UNL     1      -0.450  -1.235  -5.544  0.00  0.00    -0.308 N 
ATOM     27  C   UNL     1      -1.716  -1.032  -5.129  0.00  0.00    +0.219 C 
ATOM     28  O   UNL     1      -1.946  -0.223  -4.255  0.00  0.00    -0.275 OA
ATOM     29  H   UNL     1      -0.267  -1.882  -6.243  0.00  0.00    +0.149 HD
BRANCH  26  30
ATOM     30  C   UNL     1       0.649  -0.478  -4.939  0.00  0.00    +0.104 C 
ATOM     31  C   UNL     1       0.794   0.868  -5.652  0.00  0.00    +0.033 C 
BRANCH  30  34
ATOM     32  C   UNL     1       1.709  -1.839  -7.548  0.00  0.00    +0.065 C 
ATOM     33  C   UNL     1       2.389  -1.847  -6.203  0.00  0.00    +0.038 A 
ATOM     34  C   UNL     1       1.930  -1.259  -5.074  0.00  0.00    +0.015 A 
ATOM     35  C   UNL     1       2.857  -1.504  -4.055  0.00  0.00    +0.065 A 
ATOM     36  N   UNL     1       3.836  -2.213  -4.554  0.00  0.00    -0.179 NA
ATOM     37  N   UNL     1       3.561  -2.448  -5.908  0.00  0.00    -0.281 N 
ATOM     38  H   UNL     1       4.116  -2.950  -6.524  0.00  0.00    +0.189 HD
ATOM     39  C   UNL     1       2.746  -1.031  -2.629  0.00  0.00    +0.068 C 
ENDBRANCH  30  34
ENDBRANCH  26  30
ENDBRANCH   1  27
TORSDOF 6
