REMARK  Name = ZINC33727050
REMARK  5 active torsions:
REMARK  status: ('A' for Active; 'I' for Inactive)
REMARK    1  A    between atoms: C_4  and  C_7
REMARK    2  A    between atoms: C_9  and  C_26
REMARK    3  A    between atoms: C_14  and  N_25
REMARK    4  A    between atoms: C_15  and  C_16
REMARK    5  A    between atoms: N_18  and  C_19
REMARK                            x       y       z     vdW  Elec       q    Type
REMARK                         _______ _______ _______ _____ _____    ______ ____
ROOT
ATOM      1  C   UNL     1      -4.765  -0.526   0.354  0.00  0.00    +0.075 C 
ATOM      2  C   UNL     1      -5.985  -1.116  -0.349  0.00  0.00    +0.138 C 
ATOM      3  C   UNL     1      -7.223  -0.371   0.077  0.00  0.00    +0.067 C 
ATOM      4  S   UNL     1      -8.600  -1.162   0.266  0.00  0.00    -0.039 S 
ATOM      5  N   UNL     1      -7.178   0.954   0.298  0.00  0.00    -0.300 N 
ATOM      6  C   UNL     1      -5.988   1.639   0.248  0.00  0.00    +0.094 C 
ATOM      7  C   UNL     1      -4.799   0.977   0.255  0.00  0.00    +0.058 C 
ATOM      8  H   UNL     1      -8.102   1.506   0.524  0.00  0.00    +0.154 HD
ENDROOT
BRANCH   1  12
ATOM      9  C   UNL     1      -4.813  -1.682   4.466  0.00  0.00    +0.000 A 
ATOM     10  C   UNL     1      -3.752  -2.047   3.658  0.00  0.00    +0.000 A 
ATOM     11  C   UNL     1      -3.737  -1.672   2.328  0.00  0.00    +0.004 A 
ATOM     12  C   UNL     1      -4.782  -0.934   1.805  0.00  0.00    -0.039 A 
ATOM     13  C   UNL     1      -5.840  -0.565   2.614  0.00  0.00    +0.004 A 
ATOM     14  C   UNL     1      -5.858  -0.943   3.944  0.00  0.00    +0.000 A 
ENDBRANCH   1  12
BRANCH   2  15
ATOM     15  C   UNL     1      -5.809  -0.987  -1.841  0.00  0.00    +0.221 C 
ATOM     16  O   UNL     1      -4.807  -0.474  -2.291  0.00  0.00    -0.275 OA
ATOM     17  N   UNL     1      -6.766  -1.443  -2.673  0.00  0.00    -0.329 N 
ATOM     18  H   UNL     1      -6.638  -1.349  -3.762  0.00  0.00    +0.145 HD
ATOM     19  H   UNL     1      -7.675  -1.909  -2.265  0.00  0.00    +0.145 HD
ENDBRANCH   2  15
BRANCH   7  20
ATOM     20  C   UNL     1      -3.598   1.698   0.163  0.00  0.00    +0.248 C 
ATOM     21  O   UNL     1      -3.623   2.900  -0.041  0.00  0.00    -0.270 OA
ATOM     22  N   UNL     1      -2.418   1.062   0.300  0.00  0.00    -0.282 N 
ATOM     23  H   UNL     1      -2.392  -0.033   0.401  0.00  0.00    +0.155 HD
BRANCH  22  24
ATOM     24  C   UNL     1      -1.226   1.795   0.315  0.00  0.00    +0.034 A 
ATOM     25  C   UNL     1      -1.191   3.054   0.900  0.00  0.00    +0.023 A 
ATOM     26  C   UNL     1      -0.011   3.772   0.917  0.00  0.00    +0.002 A 
ATOM     27  C   UNL     1       1.132   3.241   0.349  0.00  0.00    +0.000 A 
ATOM     28  C   UNL     1       1.099   1.990  -0.239  0.00  0.00    +0.002 A 
ATOM     29  C   UNL     1      -0.078   1.266  -0.260  0.00  0.00    +0.023 A 
ENDBRANCH  22  24
ENDBRANCH   7  20
BRANCH   6  30
ATOM     30  N   UNL     1      -5.999   3.009   0.189  0.00  0.00    -0.346 N 
ATOM     31  H   UNL     1      -5.051   3.565   0.148  0.00  0.00    +0.143 HD
ATOM     32  H   UNL     1      -6.956   3.552   0.183  0.00  0.00    +0.143 HD
ENDBRANCH   6  30
TORSDOF 5
