REMARK  Name = ZINC35344391
REMARK  10 active torsions:
REMARK  status: ('A' for Active; 'I' for Inactive)
REMARK    1  A    between atoms: C_1  and  C_2
REMARK    2  A    between atoms: C_5  and  C_8
REMARK    3  A    between atoms: C_14  and  C_16
REMARK    4  A    between atoms: C_16  and  C_18
REMARK    5  A    between atoms: C_16  and  N_21
REMARK    6  A    between atoms: C_18  and  C_19
REMARK    7  A    between atoms: C_18  and  C_20
REMARK    8  A    between atoms: N_21  and  S_22
REMARK    9  A    between atoms: S_22  and  C_25
REMARK   10  A    between atoms: C_28  and  C_31
REMARK                            x       y       z     vdW  Elec       q    Type
REMARK                         _______ _______ _______ _____ _____    ______ ____
ROOT
ATOM      1  C   UNL     1       1.176  -4.570  -0.666  0.00  0.00    +0.134 A 
ATOM      2  N   UNL     1       0.823  -5.490  -1.555  0.00  0.00    -0.140 NA
ATOM      3  N   UNL     1       0.681  -6.686  -1.170  0.00  0.00    -0.125 NA
ATOM      4  C   UNL     1       0.873  -7.043   0.086  0.00  0.00    +0.188 A 
ATOM      5  S   UNL     1       1.299  -5.579   0.804  0.00  0.00    -0.030 S 
ATOM      6  N   UNL     1       0.760  -8.301   0.664  0.00  0.00    -0.262 N 
ATOM      7  C   UNL     1       0.409  -9.361  -0.091  0.00  0.00    +0.238 C 
ATOM      8  O   UNL     1       0.115  -9.204  -1.257  0.00  0.00    -0.274 OA
ATOM      9  H   UNL     1       0.933  -8.417   1.611  0.00  0.00    +0.157 HD
ENDROOT
BRANCH   1  14
ATOM     10  C   UNL     1       2.078   1.072  -1.356  0.00  0.00    +0.044 C 
ATOM     11  C   UNL     1       1.841  -0.406  -1.175  0.00  0.00    -0.050 A 
ATOM     12  C   UNL     1       1.469  -1.181  -2.259  0.00  0.00    +0.004 A 
ATOM     13  C   UNL     1       1.251  -2.534  -2.100  0.00  0.00    +0.011 A 
ATOM     14  C   UNL     1       1.408  -3.120  -0.843  0.00  0.00    +0.009 A 
ATOM     15  C   UNL     1       1.784  -2.332   0.246  0.00  0.00    +0.011 A 
ATOM     16  C   UNL     1       2.003  -0.981   0.072  0.00  0.00    +0.004 A 
ENDBRANCH   1  14
BRANCH   7  17
ATOM     17  C   UNL     1       0.381 -10.741   0.514  0.00  0.00    +0.165 C 
BRANCH  17  18
ATOM     18  C   UNL     1      -0.980 -10.984   1.168  0.00  0.00    +0.010 C 
ATOM     19  C   UNL     1      -1.161 -10.020   2.342  0.00  0.00    +0.009 C 
ATOM     20  C   UNL     1      -2.089 -10.750   0.141  0.00  0.00    +0.009 C 
ENDBRANCH  17  18
BRANCH  17  21
ATOM     21  N   UNL     1       0.604 -11.739  -0.536  0.00  0.00    -0.178 NA
ATOM     22  H   UNL     1       0.253 -11.591  -1.428  0.00  0.00    +0.149 HD
BRANCH  21  23
ATOM     23  S   UNL     1       1.454 -13.119  -0.199  0.00  0.00    +0.059 S 
ATOM     24  O   UNL     1       1.475 -13.885  -1.395  0.00  0.00    -0.153 OA
ATOM     25  O   UNL     1       2.643 -12.712   0.465  0.00  0.00    -0.153 OA
BRANCH  23  26
ATOM     26  C   UNL     1       0.513 -14.039   0.972  0.00  0.00    +0.105 A 
ATOM     27  C   UNL     1       0.701 -13.832   2.326  0.00  0.00    +0.029 A 
ATOM     28  C   UNL     1      -0.038 -14.553   3.245  0.00  0.00    +0.005 A 
ATOM     29  C   UNL     1      -0.965 -15.482   2.810  0.00  0.00    -0.050 A 
ATOM     30  C   UNL     1      -1.154 -15.688   1.456  0.00  0.00    +0.005 A 
ATOM     31  C   UNL     1      -0.418 -14.964   0.537  0.00  0.00    +0.029 A 
ATOM     32  C   UNL     1      -1.770 -16.269   3.812  0.00  0.00    +0.044 C 
ENDBRANCH  23  26
ENDBRANCH  21  23
ENDBRANCH  17  21
ENDBRANCH   7  17
TORSDOF 6
