REMARK  Name = ZINC39061378
REMARK  2 active torsions:
REMARK  status: ('A' for Active; 'I' for Inactive)
REMARK    1  A    between atoms: C_1  and  C_2
REMARK    2  A    between atoms: C_2  and  C_9
REMARK                            x       y       z     vdW  Elec       q    Type
REMARK                         _______ _______ _______ _____ _____    ______ ____
ROOT
ATOM      1  C   UNL     1      -0.019   1.526   0.010  0.00  0.00    +0.019 C 
ATOM      2  C   UNL     1       0.002  -0.004   0.002  0.00  0.00    +0.023 C 
ATOM      3  C   UNL     1      -1.433  -0.534   0.013  0.00  0.00    +0.016 C 
ATOM      4  C   UNL     1      -2.149  -0.040   1.272  0.00  0.00    +0.038 C 
ATOM      5  C   UNL     1      -1.409  -0.547   2.511  0.00  0.00    +0.166 C 
ATOM      6  C   UNL     1       0.026  -0.018   2.500  0.00  0.00    +0.038 C 
ATOM      7  C   UNL     1       0.742  -0.511   1.242  0.00  0.00    +0.016 C 
ATOM      8  F   UNL     1      -2.064  -0.096   3.662  0.00  0.00    -0.246 F 
ENDROOT
BRANCH   2   9
ATOM      9  C   UNL     1       0.707  -0.490  -1.238  0.00  0.00    +0.229 C 
ATOM     10  O   UNL     1       1.148   0.305  -2.033  0.00  0.00    -0.300 OA
ENDBRANCH   2   9
TORSDOF 1
