REMARK  Name = ZINC59427745
REMARK  13 active torsions:
REMARK  status: ('A' for Active; 'I' for Inactive)
REMARK    1  A    between atoms: C_1  and  C_2
REMARK    2  A    between atoms: C_4  and  C_35
REMARK    3  A    between atoms: C_5  and  C_33
REMARK    4  A    between atoms: C_6  and  O_8
REMARK    5  A    between atoms: O_8  and  C_9
REMARK    6  A    between atoms: C_9  and  C_10
REMARK    7  A    between atoms: N_12  and  N_13
REMARK    8  A    between atoms: C_14  and  C_15
REMARK    9  A    between atoms: C_20  and  O_21
REMARK   10  A    between atoms: O_21  and  C_22
REMARK   11  A    between atoms: C_22  and  C_23
REMARK   12  A    between atoms: C_35  and  O_36
REMARK   13  A    between atoms: O_36  and  C_37
REMARK                            x       y       z     vdW  Elec       q    Type
REMARK                         _______ _______ _______ _____ _____    ______ ____
ROOT
ATOM      1  N   UNL     1      -0.439  -2.901   7.178  0.00  0.00    -0.188 NA
ATOM      2  C   UNL     1      -0.263  -2.349   8.340  0.00  0.00    +0.142 C 
ENDROOT
BRANCH   2   3
ATOM      3  C   UNL     1      -0.119  -3.190   9.541  0.00  0.00    +0.036 A 
ATOM      4  C   UNL     1      -0.046  -2.602  10.806  0.00  0.00    +0.013 A 
ATOM      5  C   UNL     1       0.088  -3.395  11.926  0.00  0.00    +0.001 A 
ATOM      6  C   UNL     1       0.152  -4.773  11.803  0.00  0.00    +0.004 A 
ATOM      7  C   UNL     1       0.082  -5.367  10.557  0.00  0.00    +0.046 A 
ATOM      8  C   UNL     1      -0.059  -4.585   9.421  0.00  0.00    +0.130 A 
BRANCH   8   9
ATOM      9  O   UNL     1      -0.133  -5.168   8.197  0.00  0.00    -0.487 OA
BRANCH   9  10
ATOM     10  C   UNL     1      -0.199  -6.596   8.161  0.00  0.00    +0.265 C 
BRANCH  10  11
ATOM     11  C   UNL     1      -0.064  -7.069   6.737  0.00  0.00    -0.003 A 
ATOM     12  C   UNL     1       0.226  -6.182   5.746  0.00  0.00    +0.007 A 
ATOM     13  C   UNL     1       0.354  -6.601   4.423  0.00  0.00    +0.001 A 
ATOM     14  C   UNL     1       0.193  -7.909   4.083  0.00  0.00    +0.008 A 
ATOM     15  C   UNL     1      -0.107  -8.854   5.079  0.00  0.00    -0.018 A 
ATOM     16  C   UNL     1      -0.232  -8.429   6.426  0.00  0.00    -0.011 A 
ATOM     17  C   UNL     1      -0.526  -9.375   7.423  0.00  0.00    +0.009 A 
ATOM     18  C   UNL     1      -0.682 -10.684   7.084  0.00  0.00    +0.001 A 
ATOM     19  C   UNL     1      -0.553 -11.103   5.761  0.00  0.00    +0.001 A 
ATOM     20  C   UNL     1      -0.282 -10.213   4.767  0.00  0.00    +0.008 A 
ENDBRANCH  10  11
ENDBRANCH   9  10
ENDBRANCH   8   9
ENDBRANCH   2   3
BRANCH   1  23
ATOM     21  C   UNL     1      -0.752  -2.663   4.830  0.00  0.00    +0.270 C 
ATOM     22  O   UNL     1      -0.949  -3.857   4.748  0.00  0.00    -0.270 OA
ATOM     23  N   UNL     1      -0.446  -2.111   6.021  0.00  0.00    -0.204 N 
ATOM     24  H   UNL     1      -0.230  -1.167   6.077  0.00  0.00    +0.177 HD
BRANCH  21  25
ATOM     25  C   UNL     1      -0.848  -1.796   3.601  0.00  0.00    +0.328 C 
BRANCH  25  26
ATOM     26  O   UNL     1      -1.182  -2.607   2.472  0.00  0.00    -0.466 OA
BRANCH  26  32
ATOM     27  C   UNL     1      -1.012   1.472   0.037  0.00  0.00    +0.066 C 
ATOM     28  C   UNL     1      -1.236  -0.018   0.062  0.00  0.00    +0.042 A 
ATOM     29  C   UNL     1      -1.555  -0.677  -1.112  0.00  0.00    +0.030 A 
ATOM     30  C   UNL     1      -1.760  -2.045  -1.090  0.00  0.00    +0.002 A 
ATOM     31  C   UNL     1      -1.635  -2.717   0.132  0.00  0.00    +0.118 A 
ATOM     32  C   UNL     1      -1.308  -1.978   1.279  0.00  0.00    +0.234 A 
ATOM     33  N   UNL     1      -1.118  -0.672   1.202  0.00  0.00    -0.217 NA
BRANCH  31  34
ATOM     34  C   UNL     1      -1.837  -4.132   0.210  0.00  0.00    +0.105 C 
ATOM     35  N   UNL     1      -1.997  -5.255   0.272  0.00  0.00    -0.191 NA
ENDBRANCH  31  34
BRANCH  30  36
ATOM     36  C   UNL     1      -2.109  -2.794  -2.350  0.00  0.00    +0.196 C 
BRANCH  36  37
ATOM     37  O   UNL     1      -2.174  -1.879  -3.446  0.00  0.00    -0.378 OA
ATOM     38  C   UNL     1      -2.500  -2.490  -4.695  0.00  0.00    +0.194 C 
ENDBRANCH  36  37
ENDBRANCH  30  36
ENDBRANCH  26  32
ENDBRANCH  25  26
ENDBRANCH  21  25
ENDBRANCH   1  23
TORSDOF 11
