REMARK  Name = ZINC16791072
REMARK  12 active torsions:
REMARK  status: ('A' for Active; 'I' for Inactive)
REMARK    1  A    between atoms: C_1  and  C_2
REMARK    2  A    between atoms: C_2  and  C_3
REMARK    3  A    between atoms: C_3  and  C_4
REMARK    4  A    between atoms: C_4  and  C_5
REMARK    5  A    between atoms: C_5  and  C_7
REMARK    6  A    between atoms: C_5  and  C_9
REMARK    7  A    between atoms: C_7  and  C_8
REMARK    8  A    between atoms: C_9  and  N_10
REMARK    9  A    between atoms: C_14  and  C_15
REMARK   10  A    between atoms: N_17  and  C_29
REMARK   11  A    between atoms: C_19  and  C_20
REMARK   12  A    between atoms: C_23  and  N_26
REMARK                            x       y       z     vdW  Elec       q    Type
REMARK                         _______ _______ _______ _____ _____    ______ ____
ROOT
ATOM      1  C   UNL     1      -4.895   5.238   0.702  0.00  0.00    +0.022 A 
ATOM      2  C   UNL     1      -6.259   5.354   0.504  0.00  0.00    +0.123 A 
ATOM      3  N   UNL     1      -6.652   4.321  -0.266  0.00  0.00    -0.239 N 
ATOM      4  N   UNL     1      -5.549   3.525  -0.584  0.00  0.00    -0.166 NA
ATOM      5  C   UNL     1      -4.473   4.037  -0.029  0.00  0.00    +0.100 A 
ENDROOT
BRANCH   1  10
ATOM      6  N   UNL     1      -4.710   9.196   3.426  0.00  0.00    -0.255 N 
ATOM      7  C   UNL     1      -3.931   8.243   2.942  0.00  0.00    +0.258 C 
ATOM      8  O   UNL     1      -2.736   8.217   3.171  0.00  0.00    -0.269 OA
ATOM      9  C   UNL     1      -4.582   7.216   2.108  0.00  0.00    +0.077 C 
ATOM     10  C   UNL     1      -4.041   6.138   1.483  0.00  0.00    +0.032 C 
ATOM     11  S   UNL     1      -6.279   7.776   2.150  0.00  0.00    -0.061 S 
ATOM     12  C   UNL     1      -6.035   9.217   3.176  0.00  0.00    +0.121 C 
ATOM     13  S   UNL     1      -7.201  10.350   3.713  0.00  0.00    -0.027 S 
BRANCH   6  14
ATOM     14  C   UNL     1      -4.121  10.249   4.257  0.00  0.00    +0.118 C 
BRANCH  14  15
ATOM     15  C   UNL     1      -4.283   9.883   5.734  0.00  0.00    +0.007 C 
BRANCH  15  16
ATOM     16  C   UNL     1      -3.778  11.036   6.603  0.00  0.00    +0.002 C 
ATOM     17  C   UNL     1      -4.676  12.258   6.402  0.00  0.00    +0.004 C 
ENDBRANCH  15  16
BRANCH  15  18
ATOM     18  C   UNL     1      -3.472   8.622   6.038  0.00  0.00    +0.005 C 
BRANCH  18  19
ATOM     19  C   UNL     1      -3.732   8.185   7.481  0.00  0.00    +0.000 C 
BRANCH  19  21
ATOM     20  C   UNL     1      -3.182   6.487   9.229  0.00  0.00    +0.004 C 
ATOM     21  C   UNL     1      -2.922   6.923   7.786  0.00  0.00    -0.003 C 
ENDBRANCH  19  21
ENDBRANCH  18  19
ENDBRANCH  15  18
ENDBRANCH  14  15
ENDBRANCH   6  14
ENDBRANCH   1  10
BRANCH   5  22
ATOM     22  C   UNL     1      -3.094   3.500  -0.119  0.00  0.00    +0.003 A 
ATOM     23  C   UNL     1      -2.881   2.123  -0.158  0.00  0.00    +0.012 A 
ATOM     24  C   UNL     1      -1.595   1.629  -0.242  0.00  0.00    +0.033 A 
ATOM     25  C   UNL     1      -0.519   2.497  -0.286  0.00  0.00    +0.126 A 
ATOM     26  C   UNL     1      -0.724   3.864  -0.243  0.00  0.00    +0.033 A 
ATOM     27  C   UNL     1      -2.006   4.370  -0.165  0.00  0.00    +0.012 A 
BRANCH  25  28
ATOM     28  N   UNL     1       0.858   1.960  -0.375  0.00  0.00    +0.056 N 
ATOM     29  O   UNL     1       1.041   0.757  -0.408  0.00  0.00    -0.126 OA
ATOM     30  O   UNL     1       1.807   2.723  -0.419  0.00  0.00    -0.126 OA
ENDBRANCH  25  28
ENDBRANCH   5  22
BRANCH   3  31
ATOM     31  C   UNL     1      -7.967   4.082  -0.684  0.00  0.00    +0.065 A 
ATOM     32  C   UNL     1      -8.988   4.942  -0.299  0.00  0.00    +0.028 A 
ATOM     33  C   UNL     1     -10.283   4.706  -0.717  0.00  0.00    +0.002 A 
ATOM     34  C   UNL     1     -10.566   3.608  -1.509  0.00  0.00    +0.000 A 
ATOM     35  C   UNL     1      -9.553   2.747  -1.890  0.00  0.00    +0.002 A 
ATOM     36  C   UNL     1      -8.255   2.980  -1.479  0.00  0.00    +0.028 A 
ENDBRANCH   3  31
TORSDOF 10
