REMARK  Name = ZINC64815940
REMARK  10 active torsions:
REMARK  status: ('A' for Active; 'I' for Inactive)
REMARK    1  A    between atoms: C_1  and  C_2
REMARK    2  A    between atoms: C_2  and  C_26
REMARK    3  A    between atoms: C_7  and  C_9
REMARK    4  A    between atoms: N_16  and  C_17
REMARK    5  A    between atoms: C_20  and  O_24
REMARK    6  A    between atoms: O_24  and  C_25
REMARK    7  A    between atoms: N_28  and  C_29
REMARK    8  A    between atoms: C_29  and  C_30
REMARK    9  A    between atoms: C_29  and  C_31
REMARK   10  A    between atoms: C_29  and  C_32
REMARK                            x       y       z     vdW  Elec       q    Type
REMARK                         _______ _______ _______ _____ _____    ______ ____
ROOT
ATOM      1  C   UNL     1      -0.493   1.426  -0.212  0.00  0.00    +0.044 C 
ATOM      2  C   UNL     1      -0.180  -0.066  -0.078  0.00  0.00    +0.135 C 
ATOM      3  C   UNL     1      -1.489  -0.828   0.126  0.00  0.00    +0.179 C 
ATOM      4  N   UNL     1      -1.984  -0.588   1.487  0.00  0.00    -0.256 N 
ATOM      5  C   UNL     1      -1.115  -0.342   2.528  0.00  0.00    +0.125 A 
ATOM      6  C   UNL     1      -1.868  -0.188   3.656  0.00  0.00    +0.063 A 
ATOM      7  C   UNL     1      -3.205  -0.340   3.225  0.00  0.00    +0.100 A 
ATOM      8  N   UNL     1      -3.183  -0.570   1.924  0.00  0.00    -0.170 NA
ATOM      9  C   UNL     1       0.339  -0.272   2.314  0.00  0.00    +0.270 C 
ATOM     10  O   UNL     1       1.123  -0.232   3.243  0.00  0.00    -0.268 OA
ATOM     11  N   UNL     1       0.756  -0.254   1.025  0.00  0.00    -0.250 N 
ENDROOT
BRANCH  11  12
ATOM     12  C   UNL     1       2.118  -0.420   0.745  0.00  0.00    +0.039 A 
ATOM     13  C   UNL     1       2.844   0.622   0.182  0.00  0.00    +0.027 A 
ATOM     14  C   UNL     1       4.187   0.457  -0.094  0.00  0.00    +0.049 A 
ATOM     15  C   UNL     1       4.811  -0.748   0.191  0.00  0.00    +0.138 A 
ATOM     16  C   UNL     1       4.087  -1.790   0.753  0.00  0.00    +0.084 A 
ATOM     17  C   UNL     1       2.744  -1.625   1.035  0.00  0.00    +0.047 A 
ATOM     18 CL   UNL     1       4.870  -3.298   1.108  0.00  0.00    -0.080 Cl
BRANCH  15  19
ATOM     19  O   UNL     1       6.134  -0.908  -0.082  0.00  0.00    -0.494 OA
ATOM     20  C   UNL     1       6.817   0.205  -0.660  0.00  0.00    +0.277 C 
ENDBRANCH  15  19
ENDBRANCH  11  12
BRANCH   7  21
ATOM     21  C   UNL     1      -4.412  -0.256   4.076  0.00  0.00    +0.039 A 
ATOM     22  C   UNL     1      -5.727  -0.399   3.725  0.00  0.00    +0.018 A 
ATOM     23  C   UNL     1      -6.692  -0.277   4.702  0.00  0.00    +0.008 A 
ATOM     24  C   UNL     1      -6.310  -0.021   5.979  0.00  0.00    +0.046 A 
ATOM     25  S   UNL     1      -4.532   0.050   5.831  0.00  0.00    -0.095 S 
ENDBRANCH   7  21
BRANCH   2  26
ATOM     26  C   UNL     1       0.466  -0.544  -1.352  0.00  0.00    +0.239 C 
ATOM     27  O   UNL     1       0.360   0.110  -2.368  0.00  0.00    -0.273 OA
ATOM     28  N   UNL     1       1.162  -1.698  -1.364  0.00  0.00    -0.309 N 
ATOM     29  H   UNL     1       1.190  -2.255  -0.570  0.00  0.00    +0.149 HD
BRANCH  28  30
ATOM     30  C   UNL     1       1.876  -2.111  -2.574  0.00  0.00    +0.026 C 
ATOM     31  C   UNL     1       2.876  -1.024  -2.972  0.00  0.00    +0.031 C 
ATOM     32  C   UNL     1       2.624  -3.418  -2.304  0.00  0.00    +0.031 C 
ATOM     33  C   UNL     1       0.874  -2.322  -3.711  0.00  0.00    +0.031 C 
ENDBRANCH  28  30
ENDBRANCH   2  26
TORSDOF 5
