REMARK  Name = ZINC38810789
REMARK  6 active torsions:
REMARK  status: ('A' for Active; 'I' for Inactive)
REMARK    1  A    between atoms: C_3  and  N_8
REMARK    2  A    between atoms: C_6  and  N_7
REMARK    3  A    between atoms: N_9  and  C_10
REMARK    4  A    between atoms: C_11  and  S_22
REMARK    5  A    between atoms: C_16  and  N_21
REMARK    6  A    between atoms: C_19  and  O_20
REMARK                            x       y       z     vdW  Elec       q    Type
REMARK                         _______ _______ _______ _____ _____    ______ ____
ROOT
ATOM      1  C   UNL     1       4.794   0.117  -0.021  0.00  0.00    +0.155 A 
ATOM      2  C   UNL     1       6.007  -0.570   0.179  0.00  0.00    +0.151 A 
ATOM      3  C   UNL     1       6.052  -1.925   0.149  0.00  0.00    +0.040 A 
ATOM      4  C   UNL     1       4.879  -2.669  -0.085  0.00  0.00    -0.012 A 
ATOM      5  C   UNL     1       4.912  -4.073  -0.118  0.00  0.00    +0.010 A 
ATOM      6  C   UNL     1       3.769  -4.775  -0.345  0.00  0.00    +0.023 A 
ATOM      7  C   UNL     1       2.550  -4.118  -0.547  0.00  0.00    +0.025 A 
ATOM      8  C   UNL     1       2.482  -2.742  -0.521  0.00  0.00    +0.035 A 
ATOM      9  C   UNL     1       3.649  -1.996  -0.288  0.00  0.00    +0.028 A 
ATOM     10  C   UNL     1       3.614  -0.588  -0.249  0.00  0.00    +0.154 A 
ENDROOT
BRANCH   2  11
ATOM     11  S   UNL     1       7.485   0.343   0.473  0.00  0.00    +0.142 S 
ATOM     12  O   UNL     1       7.591   0.523   1.912  0.00  0.00    -0.140 OA
ATOM     13  O   UNL     1       8.583  -0.450  -0.058  0.00  0.00    -0.140 OA
ATOM     14  O   UNL     1       7.343   1.611  -0.225  0.00  0.00    -0.043 OA
ENDBRANCH   2  11
BRANCH   7  15
ATOM     15  N   UNL     1       1.392  -4.864  -0.778  0.00  0.00    -0.358 N 
ATOM     16  H   UNL     1       1.435  -5.833  -0.798  0.00  0.00    +0.142 HD
ATOM     17  H   UNL     1       0.545  -4.413  -0.919  0.00  0.00    +0.142 HD
ENDBRANCH   7  15
BRANCH   1  19
ATOM     18  N   UNL     1       5.102   2.103   1.095  0.00  0.00    -0.149 NA
ATOM     19  N   UNL     1       4.773   1.480   0.014  0.00  0.00    -0.144 NA
BRANCH  18  22
ATOM     20  C   UNL     1       5.815   1.253   4.571  0.00  0.00    +0.025 A 
ATOM     21  C   UNL     1       5.847   1.914   3.363  0.00  0.00    +0.031 A 
ATOM     22  C   UNL     1       5.073   1.450   2.294  0.00  0.00    +0.086 A 
ATOM     23  C   UNL     1       4.270   0.316   2.456  0.00  0.00    +0.031 A 
ATOM     24  C   UNL     1       4.243  -0.339   3.667  0.00  0.00    +0.025 A 
ATOM     25  C   UNL     1       5.014   0.126   4.728  0.00  0.00    +0.025 A 
BRANCH  25  26
ATOM     26  N   UNL     1       4.984  -0.540   5.952  0.00  0.00    -0.358 N 
ATOM     27  H   UNL     1       5.521  -0.217   6.693  0.00  0.00    +0.142 HD
ATOM     28  H   UNL     1       4.427  -1.326   6.063  0.00  0.00    +0.142 HD
ENDBRANCH  25  26
ENDBRANCH  18  22
ENDBRANCH   1  19
BRANCH  10  29
ATOM     29  O   UNL     1       2.445   0.074  -0.437  0.00  0.00    -0.504 OA
ATOM     30  H   UNL     1       2.288   0.342  -1.353  0.00  0.00    +0.292 HD
ENDBRANCH  10  29
TORSDOF 6
