REMARK  Name = ZINC41000999
REMARK  13 active torsions:
REMARK  status: ('A' for Active; 'I' for Inactive)
REMARK    1  A    between atoms: C_1  and  C_2
REMARK    2  A    between atoms: C_2  and  C_3
REMARK    3  A    between atoms: C_3  and  C_4
REMARK    4  A    between atoms: C_4  and  S_5
REMARK    5  A    between atoms: S_5  and  C_6
REMARK    6  A    between atoms: C_11  and  C_21
REMARK    7  A    between atoms: C_13  and  C_17
REMARK    8  A    between atoms: C_14  and  C_16
REMARK    9  A    between atoms: C_17  and  O_19
REMARK   10  A    between atoms: O_19  and  C_20
REMARK   11  A    between atoms: C_25  and  O_27
REMARK   12  A    between atoms: O_27  and  C_28
REMARK   13  A    between atoms: C_28  and  C_29
REMARK                            x       y       z     vdW  Elec       q    Type
REMARK                         _______ _______ _______ _____ _____    ______ ____
ROOT
ATOM      1  C   UNL     1       1.988  -4.426   2.346  0.00  0.00    +0.210 A 
ATOM      2  N   UNL     1       1.364  -5.088   1.361  0.00  0.00    -0.187 NA
ATOM      3  C   UNL     1       1.325  -6.361   1.647  0.00  0.00    +0.219 A 
ATOM      4  N   UNL     1       1.931  -6.542   2.846  0.00  0.00    -0.220 N 
ATOM      5  N   UNL     1       2.357  -5.285   3.273  0.00  0.00    -0.141 NA
ATOM      6  C   UNL     1       2.068  -7.844   3.494  0.00  0.00    +0.179 C 
ATOM      7  C   UNL     1       1.718  -8.931   2.513  0.00  0.00    +0.082 C 
ATOM      8  C   UNL     1       1.121  -8.690   1.335  0.00  0.00    +0.020 C 
ATOM      9  N   UNL     1       0.790  -7.422   0.929  0.00  0.00    -0.287 N 
ATOM     10  C   UNL     1       0.801  -9.851   0.429  0.00  0.00    +0.061 C 
ATOM     11  H   UNL     1       0.206  -7.272   0.169  0.00  0.00    +0.155 HD
ENDROOT
BRANCH   6  12
ATOM     12  C   UNL     1       1.138  -7.917   4.677  0.00  0.00    -0.015 A 
ATOM     13  C   UNL     1      -0.226  -7.782   4.493  0.00  0.00    +0.006 A 
ATOM     14  C   UNL     1      -1.082  -7.848   5.577  0.00  0.00    +0.004 A 
ATOM     15  C   UNL     1      -0.576  -8.049   6.847  0.00  0.00    +0.045 A 
ATOM     16  C   UNL     1       0.792  -8.184   7.034  0.00  0.00    +0.121 A 
ATOM     17  C   UNL     1       1.648  -8.123   5.944  0.00  0.00    +0.051 A 
BRANCH  16  18
ATOM     18  O   UNL     1       1.292  -8.382   8.282  0.00  0.00    -0.487 OA
BRANCH  18  19
ATOM     19  C   UNL     1       0.351  -8.439   9.356  0.00  0.00    +0.266 C 
BRANCH  19  20
ATOM     20  C   UNL     1       1.083  -8.662  10.654  0.00  0.00    +0.008 A 
ATOM     21  C   UNL     1       2.462  -8.770  10.661  0.00  0.00    +0.008 A 
ATOM     22  C   UNL     1       3.134  -8.975  11.851  0.00  0.00    +0.000 A 
ATOM     23  C   UNL     1       2.428  -9.071  13.036  0.00  0.00    +0.001 A 
ATOM     24  C   UNL     1       1.050  -8.964  13.031  0.00  0.00    +0.020 A 
ATOM     25  C   UNL     1       0.377  -8.753  11.840  0.00  0.00    +0.047 A 
ATOM     26 CL   UNL     1      -1.353  -8.611  11.834  0.00  0.00    -0.083 Cl
ENDBRANCH  19  20
ENDBRANCH  18  19
ENDBRANCH  16  18
ENDBRANCH   6  12
BRANCH   7  27
ATOM     27  C   UNL     1       2.034 -10.267   2.847  0.00  0.00    +0.339 C 
ATOM     28  O   UNL     1       3.188 -10.649   2.799  0.00  0.00    -0.245 OA
BRANCH  27  29
ATOM     29  O   UNL     1       1.056 -11.119   3.219  0.00  0.00    -0.465 OA
ATOM     30  C   UNL     1       1.447 -12.454   3.543  0.00  0.00    +0.280 C 
ENDBRANCH  27  29
ENDBRANCH   7  27
BRANCH   1  31
ATOM     31  S   UNL     1       2.276  -2.688   2.390  0.00  0.00    -0.084 S 
BRANCH  31  32
ATOM     32  C   UNL     1       1.538  -2.083   0.848  0.00  0.00    +0.077 C 
BRANCH  32  33
ATOM     33  C   UNL     1       1.719  -0.566   0.757  0.00  0.00    +0.011 C 
BRANCH  33  35
ATOM     34  C   UNL     1       1.277   1.461  -0.635  0.00  0.00    +0.004 C 
ATOM     35  C   UNL     1       1.096  -0.055  -0.544  0.00  0.00    -0.003 C 
ENDBRANCH  33  35
ENDBRANCH  32  33
ENDBRANCH  31  32
ENDBRANCH   1  31
TORSDOF 10
