REMARK  Name = ZINC00350995
REMARK  2 active torsions:
REMARK  status: ('A' for Active; 'I' for Inactive)
REMARK    1  A    between atoms: C_3  and  C_6
REMARK    2  A    between atoms: C_14  and  C_16
REMARK                            x       y       z     vdW  Elec       q    Type
REMARK                         _______ _______ _______ _____ _____    ______ ____
ROOT
ATOM      1  C   UNL     1      -0.581   3.909  -2.014  0.00  0.00    +0.282 C 
ATOM      2  O   UNL     1      -0.130   3.472  -3.057  0.00  0.00    -0.267 OA
ATOM      3  N   UNL     1      -0.770   3.085  -0.965  0.00  0.00    -0.292 N 
ATOM      4  C   UNL     1      -0.593   1.633  -1.113  0.00  0.00    +0.127 C 
ATOM      5  C   UNL     1       0.423   1.154  -0.068  0.00  0.00    +0.127 C 
ATOM      6  N   UNL     1       0.040   1.691   1.245  0.00  0.00    -0.291 N 
ATOM      7  C   UNL     1      -0.140   3.143   1.391  0.00  0.00    +0.127 C 
ATOM      8  C   UNL     1      -1.156   3.621   0.347  0.00  0.00    +0.127 C 
ATOM      9  C   UNL     1      -0.147   0.867   2.295  0.00  0.00    +0.320 C 
ATOM     10  O   UNL     1       0.001  -0.330   2.161  0.00  0.00    -0.266 OA
ENDROOT
BRANCH   1  13
ATOM     11  C   UNL     1      -1.142   7.504  -2.307  0.00  0.00    +0.042 A 
ATOM     12  C   UNL     1      -0.645   6.298  -2.825  0.00  0.00    +0.054 A 
ATOM     13  C   UNL     1      -0.918   5.331  -1.900  0.00  0.00    +0.189 A 
ATOM     14  O   UNL     1      -1.558   5.913  -0.864  0.00  0.00    -0.458 OA
ATOM     15  C   UNL     1      -1.690   7.225  -1.104  0.00  0.00    +0.196 A 
ENDBRANCH   1  13
BRANCH   9  16
ATOM     16  C   UNL     1      -0.539   1.432   3.636  0.00  0.00    +0.470 C 
ATOM     17  F   UNL     1      -0.673   0.390   4.560  0.00  0.00    -0.162 F 
ATOM     18  F   UNL     1       0.449   2.320   4.075  0.00  0.00    -0.162 F 
ATOM     19  F   UNL     1      -1.757   2.110   3.518  0.00  0.00    -0.162 F 
ENDBRANCH   9  16
TORSDOF 2
