REMARK  Name = ZINC63515481
REMARK  12 active torsions:
REMARK  status: ('A' for Active; 'I' for Inactive)
REMARK    1  A    between atoms: C_1  and  C_2
REMARK    2  A    between atoms: C_2  and  O_3
REMARK    3  A    between atoms: O_3  and  C_4
REMARK    4  A    between atoms: C_6  and  C_33
REMARK    5  A    between atoms: C_9  and  S_10
REMARK    6  A    between atoms: S_10  and  N_13
REMARK    7  A    between atoms: N_13  and  C_14
REMARK    8  A    between atoms: C_14  and  C_15
REMARK    9  A    between atoms: C_15  and  C_16
REMARK   10  A    between atoms: C_19  and  O_27
REMARK   11  A    between atoms: C_24  and  C_26
REMARK   12  A    between atoms: O_27  and  C_28
REMARK                            x       y       z     vdW  Elec       q    Type
REMARK                         _______ _______ _______ _____ _____    ______ ____
ROOT
ATOM      1  C   UNL     1       3.090   0.764   1.929  0.00  0.00    +0.110 C 
ENDROOT
BRANCH   1   2
ATOM      2  N   UNL     1       3.397  -0.213   2.977  0.00  0.00    -0.190 NA
ATOM      3  H   UNL     1       4.300  -0.557   3.070  0.00  0.00    +0.148 HD
BRANCH   2   4
ATOM      4  S   UNL     1       2.205  -0.730   4.003  0.00  0.00    +0.062 S 
ATOM      5  O   UNL     1       2.818  -1.626   4.919  0.00  0.00    -0.153 OA
ATOM      6  O   UNL     1       1.104  -1.109   3.188  0.00  0.00    -0.153 OA
BRANCH   4  12
ATOM      7  C   UNL     1       2.565   1.295   5.803  0.00  0.00    +0.147 A 
ATOM      8  C   UNL     1       2.151   2.399   6.535  0.00  0.00    +0.052 A 
ATOM      9  C   UNL     1       0.858   2.867   6.405  0.00  0.00    -0.029 A 
ATOM     10  C   UNL     1      -0.025   2.236   5.547  0.00  0.00    +0.046 A 
ATOM     11  C   UNL     1       0.386   1.135   4.817  0.00  0.00    +0.052 A 
ATOM     12  C   UNL     1       1.680   0.667   4.939  0.00  0.00    +0.148 A 
ATOM     13 CL   UNL     1      -1.649   2.826   5.386  0.00  0.00    -0.083 Cl
ATOM     14  C   UNL     1       0.409   4.066   7.200  0.00  0.00    +0.045 C 
BRANCH   7  15
ATOM     15  O   UNL     1       3.837   0.833   5.930  0.00  0.00    -0.490 OA
BRANCH  15  17
ATOM     16  C   UNL     1       6.071   0.871   6.850  0.00  0.00    +0.048 C 
ATOM     17  C   UNL     1       4.660   1.461   6.914  0.00  0.00    +0.226 C 
ENDBRANCH  15  17
ENDBRANCH   7  15
ENDBRANCH   4  12
ENDBRANCH   2   4
ENDBRANCH   1   2
BRANCH   1  18
ATOM     18  C   UNL     1       4.390   1.382   1.411  0.00  0.00    +0.050 C 
BRANCH  18  19
ATOM     19  C   UNL     1       4.074   2.384   0.330  0.00  0.00    -0.037 C 
ATOM     20  C   UNL     1       2.849   2.713  -0.140  0.00  0.00    +0.003 A 
ATOM     21  C   UNL     1       1.497   2.257   0.199  0.00  0.00    +0.056 A 
ATOM     22  C   UNL     1       0.433   2.779  -0.457  0.00  0.00    +0.131 A 
ATOM     23  C   UNL     1       0.574   3.752  -1.462  0.00  0.00    +0.048 A 
ATOM     24  C   UNL     1       1.776   4.233  -1.843  0.00  0.00    +0.029 A 
ATOM     25  C   UNL     1       2.996   3.738  -1.199  0.00  0.00    +0.043 A 
ATOM     26  N   UNL     1       4.261   4.031  -1.376  0.00  0.00    -0.378 N 
ATOM     27  C   UNL     1       5.061   3.228  -0.444  0.00  0.00    +0.103 C 
ATOM     28  C   UNL     1       5.837   4.139   0.509  0.00  0.00    +0.035 C 
ATOM     29  H   UNL     1       4.609   4.673  -2.014  0.00  0.00    +0.160 HD
BRANCH  22  30
ATOM     30  O   UNL     1      -0.814   2.346  -0.132  0.00  0.00    -0.406 OA
BRANCH  30  31
ATOM     31  C   UNL     1      -1.905   2.898  -0.873  0.00  0.00    +0.575 C 
ATOM     32  F   UNL     1      -1.745   2.601  -2.230  0.00  0.00    -0.133 F 
ATOM     33  F   UNL     1      -3.107   2.348  -0.413  0.00  0.00    -0.133 F 
ATOM     34  F   UNL     1      -1.932   4.286  -0.699  0.00  0.00    -0.133 F 
ENDBRANCH  30  31
ENDBRANCH  22  30
ENDBRANCH  18  19
ENDBRANCH   1  18
TORSDOF 9
