REMARK  Name = ZINC59488245
REMARK  11 active torsions:
REMARK  status: ('A' for Active; 'I' for Inactive)
REMARK    1  A    between atoms: C_1  and  C_2
REMARK    2  A    between atoms: C_2  and  O_3
REMARK    3  A    between atoms: O_3  and  C_4
REMARK    4  A    between atoms: C_6  and  C_12
REMARK    5  A    between atoms: C_9  and  O_10
REMARK    6  A    between atoms: N_13  and  N_14
REMARK    7  A    between atoms: C_15  and  C_17
REMARK    8  A    between atoms: N_19  and  C_20
REMARK    9  A    between atoms: C_20  and  C_21
REMARK   10  A    between atoms: C_21  and  C_22
REMARK   11  A    between atoms: C_21  and  C_23
REMARK                            x       y       z     vdW  Elec       q    Type
REMARK                         _______ _______ _______ _____ _____    ______ ____
ROOT
ATOM      1  C   UNL     1      -0.210  -4.964   0.447  0.00  0.00    +0.138 C 
ATOM      2  N   UNL     1      -0.107  -6.249   0.288  0.00  0.00    -0.187 NA
ENDROOT
BRANCH   1   5
ATOM      3  C   UNL     1       0.777  -1.811  -1.336  0.00  0.00    +0.163 A 
ATOM      4  C   UNL     1       0.244  -2.665  -0.389  0.00  0.00    +0.059 A 
ATOM      5  C   UNL     1       0.355  -4.048  -0.559  0.00  0.00    -0.001 A 
ATOM      6  C   UNL     1       1.004  -4.561  -1.686  0.00  0.00    +0.027 A 
ATOM      7  C   UNL     1       1.532  -3.702  -2.627  0.00  0.00    +0.059 A 
ATOM      8  C   UNL     1       1.417  -2.329  -2.460  0.00  0.00    +0.172 A 
ATOM      9  I   UNL     1       2.505  -4.471  -4.316  0.00  0.00    -0.040 I 
BRANCH   8  10
ATOM     10  O   UNL     1       1.935  -1.486  -3.393  0.00  0.00    -0.503 OA
ATOM     11  H   UNL     1       2.854  -1.235  -3.229  0.00  0.00    +0.292 HD
ENDBRANCH   8  10
BRANCH   3  12
ATOM     12  O   UNL     1       0.671  -0.465  -1.174  0.00  0.00    -0.489 OA
BRANCH  12  14
ATOM     13  C   UNL     1      -0.019   1.526   0.010  0.00  0.00    +0.048 C 
ATOM     14  C   UNL     1       0.002  -0.004   0.002  0.00  0.00    +0.226 C 
ENDBRANCH  12  14
ENDBRANCH   3  12
ENDBRANCH   1   5
BRANCH   2  15
ATOM     15  N   UNL     1      -0.644  -7.119   1.245  0.00  0.00    -0.199 N 
ATOM     16  C   UNL     1      -0.537  -8.453   1.079  0.00  0.00    +0.318 C 
ATOM     17  O   UNL     1       0.026  -8.899   0.100  0.00  0.00    -0.263 OA
ATOM     18  H   UNL     1      -1.094  -6.763   2.027  0.00  0.00    +0.178 HD
BRANCH  16  19
ATOM     19  C   UNL     1      -1.109  -9.379   2.098  0.00  0.00    +0.301 C 
ATOM     20  O   UNL     1      -1.672  -8.933   3.077  0.00  0.00    -0.265 OA
ATOM     21  N   UNL     1      -1.002 -10.713   1.933  0.00  0.00    -0.307 N 
ATOM     22  H   UNL     1      -0.552 -11.069   1.151  0.00  0.00    +0.149 HD
BRANCH  21  23
ATOM     23  C   UNL     1      -1.564 -11.623   2.933  0.00  0.00    +0.107 C 
BRANCH  23  24
ATOM     24  C   UNL     1      -1.307 -13.070   2.508  0.00  0.00    -0.000 C 
ATOM     25  C   UNL     1       0.198 -13.343   2.513  0.00  0.00    +0.009 C 
ATOM     26  C   UNL     1      -2.001 -14.020   3.486  0.00  0.00    +0.009 C 
ENDBRANCH  23  24
ENDBRANCH  21  23
ENDBRANCH  16  19
ENDBRANCH   2  15
TORSDOF 8
