REMARK  Name = ZINC32951379
REMARK  5 active torsions:
REMARK  status: ('A' for Active; 'I' for Inactive)
REMARK    1  A    between atoms: C_6  and  C_7
REMARK    2  A    between atoms: C_9  and  O_18
REMARK    3  A    between atoms: C_12  and  N_17
REMARK    4  A    between atoms: O_18  and  C_19
REMARK    5  A    between atoms: C_19  and  C_20
REMARK                            x       y       z     vdW  Elec       q    Type
REMARK                         _______ _______ _______ _____ _____    ______ ____
ROOT
ATOM      1  C   UNL     1      -1.207   3.391   0.032  0.00  0.00    +0.075 A 
ATOM      2  C   UNL     1      -0.032   4.154   0.025  0.00  0.00    +0.074 A 
ATOM      3  C   UNL     1       1.185   3.527   0.009  0.00  0.00    +0.132 A 
ATOM      4  C   UNL     1       1.209   2.112   0.002  0.00  0.00    +0.044 A 
ATOM      5  C   UNL     1       2.420   1.407  -0.014  0.00  0.00    +0.036 A 
ATOM      6  C   UNL     1       2.402   0.028  -0.021  0.00  0.00    +0.025 A 
ATOM      7  C   UNL     1       1.189  -0.668  -0.013  0.00  0.00    +0.025 A 
ATOM      8  C   UNL     1       0.002  -0.004   0.002  0.00  0.00    +0.030 A 
ATOM      9  C   UNL     1      -0.017   1.402   0.010  0.00  0.00    +0.075 A 
ATOM     10  N   UNL     1      -1.175   2.071   0.019  0.00  0.00    -0.246 NA
ENDROOT
BRANCH   1  16
ATOM     11  C   UNL     1      -2.575   5.475   0.062  0.00  0.00    +0.011 A 
ATOM     12  C   UNL     1      -3.798   6.114   0.072  0.00  0.00    +0.020 A 
ATOM     13  C   UNL     1      -4.968   5.374   0.079  0.00  0.00    +0.041 A 
ATOM     14  C   UNL     1      -4.918   3.990   0.071  0.00  0.00    +0.020 A 
ATOM     15  C   UNL     1      -3.700   3.342   0.055  0.00  0.00    +0.011 A 
ATOM     16  C   UNL     1      -2.519   4.082   0.048  0.00  0.00    +0.001 A 
ATOM     17 CL   UNL     1      -6.504   6.183   0.099  0.00  0.00    -0.084 Cl
ENDBRANCH   1  16
BRANCH   6  18
ATOM     18  N   UNL     1       3.607  -0.680  -0.037  0.00  0.00    -0.358 N 
ATOM     19  H   UNL     1       3.599  -1.780  -0.043  0.00  0.00    +0.142 HD
ATOM     20  H   UNL     1       4.564  -0.137  -0.044  0.00  0.00    +0.142 HD
ENDBRANCH   6  18
BRANCH   3  21
ATOM     21  O   UNL     1       2.337   4.242   0.003  0.00  0.00    -0.482 OA
BRANCH  21  22
ATOM     22  C   UNL     1       2.217   5.666   0.011  0.00  0.00    +0.324 C 
BRANCH  22  23
ATOM     23  C   UNL     1       3.590   6.287   0.002  0.00  0.00    +0.248 C 
ATOM     24  O   UNL     1       4.575   5.580  -0.011  0.00  0.00    -0.272 OA
ATOM     25  N   UNL     1       3.723   7.628   0.008  0.00  0.00    -0.327 N 
ATOM     26  H   UNL     1       4.726   8.081   0.001  0.00  0.00    +0.145 HD
ATOM     27  H   UNL     1       2.830   8.270   0.019  0.00  0.00    +0.145 HD
ENDBRANCH  22  23
ENDBRANCH  21  22
ENDBRANCH   3  21
TORSDOF 5
