REMARK  Name = ZINC13495960
REMARK  15 active torsions:
REMARK  status: ('A' for Active; 'I' for Inactive)
REMARK    1  A    between atoms: C_1  and  C_2
REMARK    2  A    between atoms: C_2  and  C_3
REMARK    3  A    between atoms: C_3  and  C_5
REMARK    4  A    between atoms: C_3  and  N_73
REMARK    5  A    between atoms: N_9  and  C_10
REMARK    6  A    between atoms: C_10  and  C_11
REMARK    7  A    between atoms: C_16  and  C_17
REMARK    8  A    between atoms: C_16  and  N_73
REMARK    9  A    between atoms: C_17  and  C_18
REMARK   10  A    between atoms: C_22  and  C_24
REMARK   11  A    between atoms: C_25  and  C_26
REMARK   12  A    between atoms: C_25  and  N_73
REMARK   13  A    between atoms: C_30  and  O_38
REMARK   14  A    between atoms: O_38  and  C_39
REMARK   15  A    between atoms: C_39  and  C_40
REMARK                            x       y       z     vdW  Elec       q    Type
REMARK                         _______ _______ _______ _____ _____    ______ ____
ROOT
ATOM      1  N   UNL     1      -0.050   1.266   0.783  0.00  0.00    +0.389 N 
ATOM      2  H   UNL     1      -0.629   1.346   1.627  0.00  0.00    -0.080 HD
ENDROOT
BRANCH   1   3
ATOM      3  C   UNL     1       0.279  -0.158   0.561  0.00  0.00    +0.003 C 
BRANCH   3   4
ATOM      4  C   UNL     1       0.778  -0.748   1.854  0.00  0.00    +0.139 A 
ATOM      5  N   UNL     1       1.819  -0.351   2.545  0.00  0.00    -0.115 NA
ATOM      6  N   UNL     1       1.916  -1.104   3.586  0.00  0.00    -0.023 NA
ATOM      7  N   UNL     1       0.969  -1.976   3.573  0.00  0.00    -0.044 NA
ATOM      8  N   UNL     1       0.247  -1.789   2.520  0.00  0.00    -0.223 N 
BRANCH   8   9
ATOM      9  C   UNL     1      -0.931  -2.566   2.125  0.00  0.00    +0.221 C 
BRANCH   9  10
ATOM     10  C   UNL     1      -0.493  -3.797   1.375  0.00  0.00    +0.126 A 
ATOM     11  C   UNL     1      -0.254  -5.005   1.916  0.00  0.00    +0.046 A 
ATOM     12  C   UNL     1       0.128  -5.860   0.858  0.00  0.00    +0.041 A 
ATOM     13  C   UNL     1       0.109  -5.122  -0.266  0.00  0.00    +0.195 A 
ATOM     14  O   UNL     1      -0.268  -3.873   0.053  0.00  0.00    -0.466 OA
ENDBRANCH   9  10
ENDBRANCH   8   9
ENDBRANCH   3   4
BRANCH   3  16
ATOM     15  C   UNL     1       1.569  -1.777  -0.837  0.00  0.00    +0.002 C 
ATOM     16  C   UNL     1       1.359  -0.296  -0.514  0.00  0.00    -0.011 C 
ENDBRANCH   3  16
ENDBRANCH   1   3
BRANCH   1  17
ATOM     17  C   UNL     1       1.190   2.047   0.976  0.00  0.00    -0.073 C 
BRANCH  17  18
ATOM     18  C   UNL     1       0.825   3.409   1.570  0.00  0.00    +0.016 C 
BRANCH  18  19
ATOM     19  C   UNL     1       2.068   4.253   1.691  0.00  0.00    -0.049 A 
ATOM     20  C   UNL     1       2.821   4.213   2.850  0.00  0.00    +0.003 A 
ATOM     21  C   UNL     1       3.962   4.984   2.959  0.00  0.00    +0.001 A 
ATOM     22  C   UNL     1       4.347   5.802   1.913  0.00  0.00    +0.003 A 
ATOM     23  C   UNL     1       3.592   5.846   0.756  0.00  0.00    -0.050 A 
ATOM     24  C   UNL     1       2.452   5.071   0.645  0.00  0.00    +0.007 A 
ATOM     25  C   UNL     1       4.011   6.737  -0.385  0.00  0.00    +0.044 C 
ENDBRANCH  18  19
ENDBRANCH  17  18
ENDBRANCH   1  17
BRANCH   1  26
ATOM     26  C   UNL     1      -0.807   1.796  -0.370  0.00  0.00    -0.037 C 
BRANCH  26  27
ATOM     27  C   UNL     1      -2.235   1.323  -0.269  0.00  0.00    +0.001 A 
ATOM     28  C   UNL     1      -3.162   2.100   0.344  0.00  0.00    +0.017 A 
ATOM     29  C   UNL     1      -4.541   1.615   0.421  0.00  0.00    +0.002 A 
ATOM     30  C   UNL     1      -5.541   2.375   1.037  0.00  0.00    +0.055 A 
ATOM     31  C   UNL     1      -6.830   1.885   1.097  0.00  0.00    +0.121 A 
ATOM     32  C   UNL     1      -7.136   0.641   0.549  0.00  0.00    +0.047 A 
ATOM     33  C   UNL     1      -6.160  -0.117  -0.059  0.00  0.00    +0.030 A 
ATOM     34  C   UNL     1      -4.855   0.359  -0.131  0.00  0.00    +0.049 A 
ATOM     35  N   UNL     1      -3.863  -0.386  -0.737  0.00  0.00    -0.322 N 
ATOM     36  H   UNL     1      -4.080  -1.251  -1.118  0.00  0.00    +0.169 HD
ATOM     37  C   UNL     1      -2.600   0.071  -0.808  0.00  0.00    +0.251 A 
ATOM     38  O   UNL     1      -1.750  -0.613  -1.351  0.00  0.00    -0.268 OA
BRANCH  31  39
ATOM     39  O   UNL     1      -7.805   2.619   1.695  0.00  0.00    -0.492 OA
BRANCH  39  40
ATOM     40  C   UNL     1      -9.117   2.054   1.723  0.00  0.00    +0.225 C 
ATOM     41  C   UNL     1     -10.073   3.018   2.430  0.00  0.00    +0.048 C 
ENDBRANCH  39  40
ENDBRANCH  31  39
ENDBRANCH  26  27
ENDBRANCH   1  26
TORSDOF 12
