REMARK  Name = ZINC36051489
REMARK  10 active torsions:
REMARK  status: ('A' for Active; 'I' for Inactive)
REMARK    1  A    between atoms: C_1  and  C_2
REMARK    2  A    between atoms: C_2  and  C_4
REMARK    3  A    between atoms: C_2  and  N_21
REMARK    4  A    between atoms: N_6  and  N_7
REMARK    5  A    between atoms: C_8  and  C_9
REMARK    6  A    between atoms: C_11  and  N_18
REMARK    7  A    between atoms: C_13  and  O_16
REMARK    8  A    between atoms: C_14  and  O_15
REMARK    9  A    between atoms: O_16  and  C_17
REMARK   10  A    between atoms: N_21  and  C_22
REMARK                            x       y       z     vdW  Elec       q    Type
REMARK                         _______ _______ _______ _____ _____    ______ ____
ROOT
ATOM      1  C   UNL     1       0.707  -0.490  -1.238  0.00  0.00    +0.252 C 
ATOM      2  O   UNL     1       1.704  -1.175  -1.140  0.00  0.00    -0.272 OA
ATOM      3  N   UNL     1       0.231  -0.164  -2.456  0.00  0.00    -0.205 N 
ATOM      4  H   UNL     1      -0.566   0.383  -2.534  0.00  0.00    +0.177 HD
ENDROOT
BRANCH   1   6
ATOM      5  C   UNL     1      -0.019   1.526   0.010  0.00  0.00    +0.038 C 
ATOM      6  C   UNL     1       0.002  -0.004   0.002  0.00  0.00    +0.155 C 
BRANCH   6   7
ATOM      7  N   UNL     1       0.711  -0.489   1.189  0.00  0.00    -0.333 N 
ATOM      8  H   UNL     1       1.654  -0.707   1.135  0.00  0.00    +0.147 HD
BRANCH   7   9
ATOM      9  C   UNL     1       0.029  -0.638   2.395  0.00  0.00    +0.035 A 
ATOM     10  C   UNL     1      -1.314  -0.336   2.477  0.00  0.00    +0.023 A 
ATOM     11  C   UNL     1      -2.004  -0.482   3.676  0.00  0.00    +0.002 A 
ATOM     12  C   UNL     1      -1.375  -0.925   4.800  0.00  0.00    +0.008 A 
ATOM     13  C   UNL     1      -0.007  -1.244   4.759  0.00  0.00    -0.016 A 
ATOM     14  C   UNL     1       0.705  -1.105   3.542  0.00  0.00    +0.003 A 
ATOM     15  C   UNL     1       2.071  -1.429   3.502  0.00  0.00    +0.010 A 
ATOM     16  C   UNL     1       2.691  -1.876   4.628  0.00  0.00    +0.001 A 
ATOM     17  C   UNL     1       1.990  -2.019   5.824  0.00  0.00    +0.001 A 
ATOM     18  C   UNL     1       0.668  -1.703   5.903  0.00  0.00    +0.008 A 
ENDBRANCH   7   9
ENDBRANCH   6   7
ENDBRANCH   1   6
BRANCH   3  19
ATOM     19  N   UNL     1       0.887  -0.616  -3.608  0.00  0.00    -0.188 NA
ATOM     20  C   UNL     1       0.428  -0.302  -4.781  0.00  0.00    +0.142 C 
BRANCH  20  21
ATOM     21  C   UNL     1       1.118  -0.777  -5.994  0.00  0.00    +0.042 A 
ATOM     22  C   UNL     1       0.630  -0.437  -7.259  0.00  0.00    +0.046 A 
ATOM     23  C   UNL     1       1.278  -0.883  -8.390  0.00  0.00    +0.130 A 
ATOM     24  C   UNL     1       2.412  -1.670  -8.282  0.00  0.00    +0.082 A 
ATOM     25  C   UNL     1       2.907  -2.016  -7.035  0.00  0.00    +0.164 A 
ATOM     26  C   UNL     1       2.268  -1.568  -5.885  0.00  0.00    +0.167 A 
BRANCH  23  27
ATOM     27  N   UNL     1       0.758  -0.521  -9.728  0.00  0.00    +0.057 N 
ATOM     28  O   UNL     1      -0.232   0.166  -9.826  0.00  0.00    -0.126 OA
ATOM     29  O   UNL     1       1.324  -0.911 -10.723  0.00  0.00    -0.126 OA
ENDBRANCH  23  27
BRANCH  26  30
ATOM     30  O   UNL     1       2.755  -1.900  -4.660  0.00  0.00    -0.503 OA
ATOM     31  H   UNL     1       2.395  -2.724  -4.304  0.00  0.00    +0.292 HD
ENDBRANCH  26  30
BRANCH  25  32
ATOM     32  O   UNL     1       4.022  -2.789  -6.936  0.00  0.00    -0.491 OA
ATOM     33  C   UNL     1       4.631  -3.208  -8.159  0.00  0.00    +0.277 C 
ENDBRANCH  25  32
ENDBRANCH  20  21
ENDBRANCH   3  19
TORSDOF 8
