REMARK  Name = ZINC39532133
REMARK  11 active torsions:
REMARK  status: ('A' for Active; 'I' for Inactive)
REMARK    1  A    between atoms: C_1  and  C_2
REMARK    2  A    between atoms: C_2  and  C_3
REMARK    3  A    between atoms: C_6  and  C_9
REMARK    4  A    between atoms: C_9  and  C_11
REMARK    5  A    between atoms: C_9  and  N_23
REMARK    6  A    between atoms: C_11  and  N_12
REMARK    7  A    between atoms: N_12  and  S_13
REMARK    8  A    between atoms: S_13  and  O_16
REMARK    9  A    between atoms: O_16  and  C_17
REMARK   10  A    between atoms: C_27  and  C_30
REMARK   11  A    between atoms: C_35  and  O_36
REMARK                            x       y       z     vdW  Elec       q    Type
REMARK                         _______ _______ _______ _____ _____    ______ ____
ROOT
ATOM      1  C   UNL     1       3.857  -1.741   4.995  0.00  0.00    -0.060 C 
ENDROOT
BRANCH   1   2
ATOM      2  N   UNL     1       3.405  -1.460   6.365  0.00  0.00    +0.381 N 
ATOM      3  C   UNL     1       3.316  -0.007   6.563  0.00  0.00    -0.098 C 
ATOM      4  C   UNL     1       2.845   0.285   7.989  0.00  0.00    -0.101 C 
ATOM      5  N   UNL     1       3.804  -0.282   8.947  0.00  0.00    +0.381 N 
ATOM      6  C   UNL     1       3.893  -1.735   8.749  0.00  0.00    -0.054 C 
ATOM      7  C   UNL     1       4.363  -2.027   7.323  0.00  0.00    -0.090 C 
ATOM      8  H   UNL     1       4.711   0.134   8.801  0.00  0.00    -0.085 HD
ATOM      9  H   UNL     1       3.493  -0.089   9.888  0.00  0.00    -0.085 HD
ATOM     10  H   UNL     1       2.497  -1.876   6.511  0.00  0.00    -0.081 HD
BRANCH   6  11
ATOM     11  C   UNL     1       4.876  -2.317   9.732  0.00  0.00    -0.022 A 
ATOM     12  C   UNL     1       5.892  -1.530  10.241  0.00  0.00    +0.005 A 
ATOM     13  C   UNL     1       6.795  -2.064  11.142  0.00  0.00    +0.000 A 
ATOM     14  C   UNL     1       6.683  -3.384  11.536  0.00  0.00    +0.004 A 
ATOM     15  C   UNL     1       5.669  -4.174  11.031  0.00  0.00    +0.045 A 
ATOM     16  C   UNL     1       4.758  -3.640  10.130  0.00  0.00    +0.118 A 
BRANCH  16  17
ATOM     17  O   UNL     1       3.756  -4.413   9.636  0.00  0.00    -0.507 OA
ATOM     18  H   UNL     1       4.012  -4.945   8.869  0.00  0.00    +0.292 HD
ENDBRANCH  16  17
ENDBRANCH   6  11
ENDBRANCH   1   2
BRANCH   1  22
ATOM     19  C   UNL     1       1.111  -0.025   2.209  0.00  0.00    -0.048 A 
ATOM     20  C   UNL     1       2.471   0.035   1.966  0.00  0.00    +0.004 A 
ATOM     21  C   UNL     1       3.359  -0.520   2.868  0.00  0.00    +0.002 A 
ATOM     22  C   UNL     1       2.888  -1.135   4.013  0.00  0.00    -0.063 A 
ATOM     23  C   UNL     1       1.529  -1.194   4.256  0.00  0.00    +0.002 A 
ATOM     24  C   UNL     1       0.640  -0.635   3.357  0.00  0.00    +0.004 A 
BRANCH  19  26
ATOM     25  C   UNL     1      -0.109   2.044   1.593  0.00  0.00    +0.009 C 
ATOM     26  C   UNL     1       0.143   0.580   1.225  0.00  0.00    +0.032 C 
ENDBRANCH  19  26
ENDBRANCH   1  22
BRANCH   1  27
ATOM     27  C   UNL     1       3.922  -3.254   4.780  0.00  0.00    -0.121 C 
BRANCH  27  28
ATOM     28  N   UNL     1       4.443  -3.535   3.440  0.00  0.00    +0.491 NA
BRANCH  28  29
ATOM     29  S   UNL     1       4.505  -5.094   2.885  0.00  0.00    +0.066 S 
ATOM     30  O   UNL     1       5.274  -5.829   3.828  0.00  0.00    -0.159 OA
ATOM     31  O   UNL     1       3.176  -5.455   2.539  0.00  0.00    -0.159 OA
BRANCH  29  32
ATOM     32  O   UNL     1       5.304  -5.079   1.590  0.00  0.00    -0.362 OA
BRANCH  32  33
ATOM     33  C   UNL     1       6.642  -4.916   1.767  0.00  0.00    +0.154 A 
ATOM     34  C   UNL     1       7.175  -3.642   1.897  0.00  0.00    +0.048 A 
ATOM     35  C   UNL     1       8.535  -3.478   2.077  0.00  0.00    +0.004 A 
ATOM     36  C   UNL     1       9.364  -4.583   2.128  0.00  0.00    +0.000 A 
ATOM     37  C   UNL     1       8.835  -5.854   1.998  0.00  0.00    +0.004 A 
ATOM     38  C   UNL     1       7.475  -6.023   1.824  0.00  0.00    +0.048 A 
ENDBRANCH  32  33
ENDBRANCH  29  32
ENDBRANCH  28  29
ENDBRANCH  27  28
ENDBRANCH   1  27
TORSDOF 10
