REMARK  Name = ZINC63437147
REMARK  8 active torsions:
REMARK  status: ('A' for Active; 'I' for Inactive)
REMARK    1  A    between atoms: C_1  and  O_2
REMARK    2  A    between atoms: O_2  and  C_3
REMARK    3  A    between atoms: C_6  and  C_9
REMARK    4  A    between atoms: C_9  and  C_11
REMARK    5  A    between atoms: C_9  and  N_23
REMARK    6  A    between atoms: N_13  and  C_14
REMARK    7  A    between atoms: C_24  and  C_26
REMARK    8  A    between atoms: C_26  and  C_27
REMARK                            x       y       z     vdW  Elec       q    Type
REMARK                         _______ _______ _______ _____ _____    ______ ____
ROOT
ATOM      1  C   UNL     1      -4.825  -2.661   0.074  0.00  0.00    +0.190 C 
ENDROOT
BRANCH   1   5
ATOM      2  C   UNL     1      -1.349  -0.175   0.097  0.00  0.00    +0.120 A 
ATOM      3  C   UNL     1      -2.611   0.396   0.031  0.00  0.00    +0.046 A 
ATOM      4  C   UNL     1      -3.733  -0.410   0.024  0.00  0.00    +0.009 A 
ATOM      5  C   UNL     1      -3.599  -1.784   0.082  0.00  0.00    -0.018 A 
ATOM      6  C   UNL     1      -2.342  -2.356   0.148  0.00  0.00    +0.009 A 
ATOM      7  C   UNL     1      -1.216  -1.555   0.150  0.00  0.00    +0.046 A 
BRANCH   2   9
ATOM      8  C   UNL     1      -0.455   2.027   0.048  0.00  0.00    +0.277 C 
ATOM      9  O   UNL     1      -0.243   0.615   0.104  0.00  0.00    -0.495 OA
ENDBRANCH   2   9
ENDBRANCH   1   5
BRANCH   1  10
ATOM     10  C   UNL     1      -5.138  -3.099   1.482  0.00  0.00    +0.242 C 
ATOM     11  O   UNL     1      -5.153  -4.279   1.760  0.00  0.00    -0.273 OA
ATOM     12  N   UNL     1      -5.402  -2.179   2.431  0.00  0.00    -0.284 N 
ATOM     13  H   UNL     1      -5.315  -1.235   2.228  0.00  0.00    +0.155 HD
BRANCH  12  14
ATOM     14  C   UNL     1      -5.801  -2.587   3.710  0.00  0.00    +0.037 A 
ATOM     15  C   UNL     1      -5.434  -1.842   4.822  0.00  0.00    +0.027 A 
ATOM     16  C   UNL     1      -5.827  -2.243   6.085  0.00  0.00    +0.051 A 
ATOM     17  C   UNL     1      -6.588  -3.390   6.245  0.00  0.00    +0.166 A 
ATOM     18  C   UNL     1      -6.958  -4.139   5.130  0.00  0.00    +0.168 A 
ATOM     19  C   UNL     1      -6.569  -3.733   3.865  0.00  0.00    +0.072 A 
ATOM     20  O   UNL     1      -7.696  -5.209   5.550  0.00  0.00    -0.453 OA
ATOM     21  C   UNL     1      -7.429  -5.332   6.959  0.00  0.00    +0.466 C 
ATOM     22  O   UNL     1      -7.095  -3.990   7.362  0.00  0.00    -0.453 OA
ENDBRANCH  12  14
ENDBRANCH   1  10
BRANCH   1  23
ATOM     23  N   UNL     1      -4.577  -3.840  -0.760  0.00  0.00    -0.300 N 
ATOM     24  C   UNL     1      -4.772  -3.775  -2.092  0.00  0.00    +0.216 C 
ATOM     25  O   UNL     1      -5.153  -2.742  -2.600  0.00  0.00    -0.276 OA
ATOM     26  H   UNL     1      -4.272  -4.666  -0.354  0.00  0.00    +0.150 HD
BRANCH  24  27
ATOM     27  C   UNL     1      -4.517  -4.987  -2.950  0.00  0.00    +0.124 C 
BRANCH  27  28
ATOM     28  C   UNL     1      -4.814  -4.649  -4.413  0.00  0.00    +0.112 C 
ATOM     29  C   UNL     1      -4.624  -5.873  -5.280  0.00  0.00    +0.007 C 
ATOM     30  C   UNL     1      -3.647  -5.559  -6.162  0.00  0.00    -0.004 A 
ATOM     31  C   UNL     1      -3.012  -6.311  -7.251  0.00  0.00    +0.010 A 
ATOM     32  C   UNL     1      -2.038  -5.717  -7.977  0.00  0.00    +0.001 A 
ATOM     33  C   UNL     1      -1.620  -4.404  -7.716  0.00  0.00    +0.002 A 
ATOM     34  C   UNL     1      -2.155  -3.651  -6.732  0.00  0.00    +0.026 A 
ATOM     35  C   UNL     1      -3.188  -4.175  -5.906  0.00  0.00    +0.043 A 
ATOM     36  N   UNL     1      -3.856  -3.652  -4.905  0.00  0.00    -0.377 N 
ATOM     37  H   UNL     1      -3.737  -2.757  -4.549  0.00  0.00    +0.160 HD
ENDBRANCH  27  28
ENDBRANCH  24  27
ENDBRANCH   1  23
TORSDOF 7
