REMARK  Name = ZINC59170456
REMARK  7 active torsions:
REMARK  status: ('A' for Active; 'I' for Inactive)
REMARK    1  A    between atoms: C_1  and  C_2
REMARK    2  A    between atoms: C_7  and  N_8
REMARK    3  A    between atoms: C_9  and  C_11
REMARK    4  A    between atoms: C_15  and  N_32
REMARK    5  A    between atoms: N_21  and  C_22
REMARK    6  A    between atoms: C_25  and  S_28
REMARK    7  A    between atoms: S_28  and  N_31
REMARK                            x       y       z     vdW  Elec       q    Type
REMARK                         _______ _______ _______ _____ _____    ______ ____
ROOT
ATOM      1  C   UNL     1      -0.226   0.032   4.819  0.00  0.00    +0.098 A 
ATOM      2  C   UNL     1      -0.193  -0.658   6.025  0.00  0.00    +0.030 A 
ATOM      3  C   UNL     1      -0.237   0.136   7.255  0.00  0.00    +0.020 A 
ATOM      4  C   UNL     1       0.058  -0.446   8.494  0.00  0.00    +0.044 A 
ATOM      5  C   UNL     1       0.014   0.316   9.628  0.00  0.00    +0.127 A 
ATOM      6  C   UNL     1      -0.321   1.661   9.561  0.00  0.00    +0.036 A 
ATOM      7  C   UNL     1      -0.617   2.253   8.349  0.00  0.00    +0.049 A 
ATOM      8  C   UNL     1      -0.580   1.499   7.186  0.00  0.00    +0.138 A 
ATOM      9  O   UNL     1      -0.874   2.061   5.988  0.00  0.00    -0.439 OA
ATOM     10  C   UNL     1      -0.297   1.505   4.889  0.00  0.00    +0.212 A 
ATOM     11  N   UNL     1       0.178   2.253   3.917  0.00  0.00    -0.325 N 
ATOM     12  H   UNL     1       0.686   1.847   3.197  0.00  0.00    +0.169 HD
ENDROOT
BRANCH  11  13
ATOM     13  C   UNL     1      -0.045   3.602   3.921  0.00  0.00    +0.042 A 
ATOM     14  C   UNL     1      -1.315   4.103   4.216  0.00  0.00    +0.027 A 
ATOM     15  C   UNL     1      -1.533   5.465   4.219  0.00  0.00    +0.030 A 
ATOM     16  C   UNL     1      -0.496   6.334   3.930  0.00  0.00    +0.105 A 
ATOM     17  C   UNL     1       0.765   5.846   3.636  0.00  0.00    +0.030 A 
ATOM     18  C   UNL     1       0.998   4.486   3.635  0.00  0.00    +0.027 A 
BRANCH  16  19
ATOM     19  S   UNL     1      -0.783   8.073   3.934  0.00  0.00    +0.056 S 
ATOM     20  O   UNL     1       0.210   8.651   3.099  0.00  0.00    -0.153 OA
ATOM     21  O   UNL     1      -2.174   8.255   3.703  0.00  0.00    -0.153 OA
BRANCH  19  22
ATOM     22  N   UNL     1      -0.484   8.614   5.470  0.00  0.00    -0.204 NA
ATOM     23  H   UNL     1      -0.206   7.990   6.159  0.00  0.00    +0.144 HD
ATOM     24  H   UNL     1      -0.587   9.556   5.681  0.00  0.00    +0.144 HD
ENDBRANCH  19  22
ENDBRANCH  16  19
ENDBRANCH  11  13
BRANCH   1  26
ATOM     25  N   UNL     1      -0.330   0.012   2.378  0.00  0.00    -0.281 N 
ATOM     26  C   UNL     1      -0.187  -0.676   3.529  0.00  0.00    +0.253 C 
ATOM     27  O   UNL     1      -0.025  -1.881   3.500  0.00  0.00    -0.270 OA
ATOM     28  H   UNL     1      -0.412   0.979   2.398  0.00  0.00    +0.155 HD
BRANCH  25  35
ATOM     29  C   UNL     1      -1.520   1.317   0.147  0.00  0.00    +0.045 C 
ATOM     30  C   UNL     1      -0.933  -0.067   0.042  0.00  0.00    -0.029 A 
ATOM     31  C   UNL     1      -0.957  -0.739  -1.165  0.00  0.00    +0.005 A 
ATOM     32  C   UNL     1      -0.419  -2.009  -1.263  0.00  0.00    +0.000 A 
ATOM     33  C   UNL     1       0.145  -2.611  -0.153  0.00  0.00    +0.002 A 
ATOM     34  C   UNL     1       0.172  -1.946   1.057  0.00  0.00    +0.023 A 
ATOM     35  C   UNL     1      -0.362  -0.667   1.157  0.00  0.00    +0.037 A 
ENDBRANCH  25  35
ENDBRANCH   1  26
BRANCH   5  36
ATOM     36  N   UNL     1       0.325  -0.298  10.938  0.00  0.00    +0.056 N 
ATOM     37  O   UNL     1       0.617  -1.470  11.002  0.00  0.00    -0.126 OA
ATOM     38  O   UNL     1       0.287   0.371  11.944  0.00  0.00    -0.126 OA
ENDBRANCH   5  36
TORSDOF 6
