REMARK  Name = ZINC09385192
REMARK  15 active torsions:
REMARK  status: ('A' for Active; 'I' for Inactive)
REMARK    1  A    between atoms: C_1  and  C_2
REMARK    2  A    between atoms: C_2  and  N_67
REMARK    3  A    between atoms: C_3  and  C_4
REMARK    4  A    between atoms: C_3  and  N_67
REMARK    5  A    between atoms: C_5  and  C_6
REMARK    6  A    between atoms: C_5  and  N_67
REMARK    7  A    between atoms: C_6  and  N_7
REMARK    8  A    between atoms: C_13  and  O_17
REMARK    9  A    between atoms: O_17  and  C_18
REMARK   10  A    between atoms: C_18  and  C_19
REMARK   11  A    between atoms: C_20  and  C_22
REMARK   12  A    between atoms: C_22  and  C_23
REMARK   13  A    between atoms: C_23  and  S_24
REMARK   14  A    between atoms: S_24  and  C_27
REMARK   15  A    between atoms: C_30  and  C_33
REMARK                            x       y       z     vdW  Elec       q    Type
REMARK                         _______ _______ _______ _____ _____    ______ ____
ROOT
ATOM      1  N   UNL     1       0.967   0.236   9.632  0.00  0.00    -0.252 N 
ATOM      2  C   UNL     1       0.311   0.539   8.449  0.00  0.00    +0.168 A 
ATOM      3  N   UNL     1       0.648   0.230   7.219  0.00  0.00    -0.224 NA
ATOM      4  C   UNL     1      -0.094   0.596   6.150  0.00  0.00    +0.081 A 
ATOM      5  C   UNL     1       0.155   0.329   4.784  0.00  0.00    +0.032 A 
ATOM      6  C   UNL     1      -0.704   0.774   3.814  0.00  0.00    +0.048 A 
ATOM      7  C   UNL     1      -1.847   1.500   4.134  0.00  0.00    +0.122 A 
ATOM      8  C   UNL     1      -2.118   1.784   5.464  0.00  0.00    +0.063 A 
ATOM      9  C   UNL     1      -1.263   1.335   6.440  0.00  0.00    +0.044 A 
ATOM     10  S   UNL     1      -1.208   1.450   8.212  0.00  0.00    -0.052 S 
ATOM     11  C   UNL     1       0.457   0.647  10.810  0.00  0.00    +0.223 C 
ATOM     12  O   UNL     1      -0.576   1.282  10.835  0.00  0.00    -0.275 OA
ENDROOT
BRANCH   1  13
ATOM     13  C   UNL     1       2.215  -0.530   9.602  0.00  0.00    +0.097 C 
BRANCH  13  14
ATOM     14  C   UNL     1       3.401   0.430   9.488  0.00  0.00    -0.059 C 
BRANCH  14  15
ATOM     15  N   UNL     1       4.652  -0.357   9.480  0.00  0.00    +0.380 N 
ATOM     16  H   UNL     1       4.650  -0.996  10.284  0.00  0.00    -0.082 HD
BRANCH  15  18
ATOM     17  C   UNL     1       4.726  -0.234   7.012  0.00  0.00    -0.017 C 
ATOM     18  C   UNL     1       4.742  -1.151   8.237  0.00  0.00    -0.082 C 
ENDBRANCH  15  18
BRANCH  15  19
ATOM     19  C   UNL     1       5.817   0.546   9.588  0.00  0.00    -0.082 C 
ATOM     20  C   UNL     1       7.052  -0.285   9.943  0.00  0.00    -0.017 C 
ENDBRANCH  15  19
ENDBRANCH  14  15
ENDBRANCH  13  14
ENDBRANCH   1  13
BRANCH   7  21
ATOM     21  O   UNL     1      -2.685   1.931   3.154  0.00  0.00    -0.492 OA
BRANCH  21  22
ATOM     22  C   UNL     1      -2.333   1.603   1.808  0.00  0.00    +0.225 C 
ATOM     23  C   UNL     1      -3.386   2.168   0.853  0.00  0.00    +0.048 C 
ENDBRANCH  21  22
ENDBRANCH   7  21
BRANCH  11  24
ATOM     24  C   UNL     1       1.171   0.319  12.096  0.00  0.00    +0.119 C 
BRANCH  24  25
ATOM     25  C   UNL     1       0.388   0.897  13.276  0.00  0.00    +0.181 C 
BRANCH  25  26
ATOM     26  S   UNL     1       1.247   0.501  14.824  0.00  0.00    -0.003 S 
ATOM     27  O   UNL     1       1.194  -0.898  15.069  0.00  0.00    -0.169 OA
ATOM     28  O   UNL     1       2.481   1.203  14.892  0.00  0.00    -0.169 OA
BRANCH  26  29
ATOM     29  C   UNL     1       0.252   1.217  16.090  0.00  0.00    +0.088 A 
ATOM     30  C   UNL     1       0.489   2.514  16.505  0.00  0.00    +0.027 A 
ATOM     31  C   UNL     1      -0.294   3.077  17.495  0.00  0.00    +0.005 A 
ATOM     32  C   UNL     1      -1.309   2.340  18.077  0.00  0.00    -0.050 A 
ATOM     33  C   UNL     1      -1.543   1.041  17.665  0.00  0.00    +0.005 A 
ATOM     34  C   UNL     1      -0.762   0.479  16.672  0.00  0.00    +0.027 A 
ATOM     35  C   UNL     1      -2.160   2.952  19.159  0.00  0.00    +0.044 C 
ENDBRANCH  26  29
ENDBRANCH  25  26
ENDBRANCH  24  25
ENDBRANCH  11  24
TORSDOF 11
