REMARK  Name = ZINC47133090
REMARK  12 active torsions:
REMARK  status: ('A' for Active; 'I' for Inactive)
REMARK    1  A    between atoms: C_1  and  C_2
REMARK    2  A    between atoms: C_2  and  C_3
REMARK    3  A    between atoms: C_3  and  C_4
REMARK    4  A    between atoms: C_4  and  C_5
REMARK    5  A    between atoms: C_5  and  O_6
REMARK    6  A    between atoms: O_6  and  C_7
REMARK    7  A    between atoms: C_10  and  C_14
REMARK    8  A    between atoms: N_16  and  C_17
REMARK    9  A    between atoms: N_16  and  C_29
REMARK   10  A    between atoms: C_17  and  C_18
REMARK   11  A    between atoms: C_21  and  C_23
REMARK   12  A    between atoms: C_26  and  C_28
REMARK                            x       y       z     vdW  Elec       q    Type
REMARK                         _______ _______ _______ _____ _____    ______ ____
ROOT
ATOM      1  C   UNL     1      -7.705  -6.901   0.011  0.00  0.00    +0.247 C 
ATOM      2  O   UNL     1      -8.070  -6.294   0.999  0.00  0.00    -0.270 OA
ATOM      3  N   UNL     1      -8.441  -6.856  -1.117  0.00  0.00    -0.286 N 
ENDROOT
BRANCH   1   7
ATOM      4  C   UNL     1      -4.111  -9.164   0.113  0.00  0.00    +0.157 A 
ATOM      5  C   UNL     1      -5.331  -9.789   0.348  0.00  0.00    +0.085 A 
ATOM      6  C   UNL     1      -6.499  -9.058   0.316  0.00  0.00    +0.036 A 
ATOM      7  C   UNL     1      -6.456  -7.687   0.046  0.00  0.00    +0.040 A 
ATOM      8  C   UNL     1      -5.229  -7.063  -0.189  0.00  0.00    +0.036 A 
ATOM      9  C   UNL     1      -4.064  -7.799  -0.150  0.00  0.00    +0.085 A 
ATOM     10 CL   UNL     1      -2.538  -7.023  -0.436  0.00  0.00    -0.080 Cl
ATOM     11 CL   UNL     1      -5.382 -11.491   0.681  0.00  0.00    -0.080 Cl
BRANCH   4  12
ATOM     12  O   UNL     1      -2.962  -9.887   0.145  0.00  0.00    -0.489 OA
BRANCH  12  13
ATOM     13  C   UNL     1      -2.300  -9.996   1.407  0.00  0.00    +0.229 C 
BRANCH  13  14
ATOM     14  C   UNL     1      -1.035 -10.841   1.248  0.00  0.00    +0.041 C 
BRANCH  14  15
ATOM     15  C   UNL     1      -0.326 -10.958   2.599  0.00  0.00    +0.003 C 
BRANCH  15  17
ATOM     16  C   UNL     1       1.648 -11.920   3.790  0.00  0.00    +0.004 C 
ATOM     17  C   UNL     1       0.939 -11.803   2.439  0.00  0.00    -0.003 C 
ENDBRANCH  15  17
ENDBRANCH  14  15
ENDBRANCH  13  14
ENDBRANCH  12  13
ENDBRANCH   4  12
ENDBRANCH   1   7
BRANCH   3  18
ATOM     18  C   UNL     1      -7.806  -6.515  -2.393  0.00  0.00    +0.099 C 
ATOM     19  C   UNL     1      -6.546  -7.373  -2.592  0.00  0.00    +0.047 C 
ATOM     20  C   UNL     1      -5.701  -6.808  -3.759  0.00  0.00    +0.168 C 
ATOM     21  S   UNL     1      -6.126  -5.019  -3.736  0.00  0.00    -0.029 S 
ATOM     22  O   UNL     1      -6.768  -4.679  -4.957  0.00  0.00    -0.174 OA
ATOM     23  O   UNL     1      -4.989  -4.279  -3.314  0.00  0.00    -0.174 OA
ATOM     24  C   UNL     1      -7.376  -5.020  -2.382  0.00  0.00    +0.188 C 
ENDBRANCH   3  18
BRANCH   3  25
ATOM     25  C   UNL     1      -9.876  -7.149  -1.068  0.00  0.00    +0.182 C 
BRANCH  25  26
ATOM     26  C   UNL     1     -10.640  -5.874  -0.819  0.00  0.00    +0.122 A 
ATOM     27  C   UNL     1     -11.115  -5.044  -1.765  0.00  0.00    +0.046 A 
ATOM     28  C   UNL     1     -11.761  -3.982  -1.091  0.00  0.00    +0.045 A 
ATOM     29  C   UNL     1     -11.642  -4.227   0.227  0.00  0.00    +0.109 A 
ATOM     30  O   UNL     1     -10.967  -5.377   0.385  0.00  0.00    -0.463 OA
BRANCH  29  31
ATOM     31  C   UNL     1     -12.180  -3.361   1.336  0.00  0.00    +0.058 C 
ATOM     32  C   UNL     1     -12.118  -3.917   2.760  0.00  0.00    +0.015 C 
ATOM     33  C   UNL     1     -11.174  -2.789   2.337  0.00  0.00    -0.003 C 
ATOM     34  C   UNL     1     -11.449  -1.391   2.895  0.00  0.00    +0.008 C 
ENDBRANCH  29  31
ENDBRANCH  25  26
ENDBRANCH   3  25
TORSDOF 10
