REMARK  Name = ZINC64345185
REMARK  7 active torsions:
REMARK  status: ('A' for Active; 'I' for Inactive)
REMARK    1  A    between atoms: C_1  and  C_2
REMARK    2  A    between atoms: C_6  and  S_8
REMARK    3  A    between atoms: S_8  and  N_11
REMARK    4  A    between atoms: N_11  and  C_12
REMARK    5  A    between atoms: C_12  and  C_13
REMARK    6  A    between atoms: C_12  and  C_14
REMARK    7  A    between atoms: C_12  and  C_15
REMARK                            x       y       z     vdW  Elec       q    Type
REMARK                         _______ _______ _______ _____ _____    ______ ____
ROOT
ATOM      1  N   UNL     1       1.733  -3.139   3.224  0.00  0.00    -0.180 NA
ATOM      2  H   UNL     1       2.006  -3.908   3.748  0.00  0.00    +0.149 HD
ENDROOT
BRANCH   1   3
ATOM      3  S   UNL     1       0.450  -3.257   2.185  0.00  0.00    +0.059 S 
ATOM      4  O   UNL     1      -0.110  -4.550   2.376  0.00  0.00    -0.153 OA
ATOM      5  O   UNL     1       0.910  -2.806   0.918  0.00  0.00    -0.153 OA
BRANCH   3  11
ATOM      6  C   UNL     1      -3.586  -1.916   5.223  0.00  0.00    +0.044 C 
ATOM      7  C   UNL     1      -2.612  -1.538   4.137  0.00  0.00    -0.049 A 
ATOM      8  C   UNL     1      -2.671  -0.281   3.563  0.00  0.00    +0.003 A 
ATOM      9  C   UNL     1      -1.777   0.066   2.567  0.00  0.00    +0.002 A 
ATOM     10  C   UNL     1      -0.824  -0.843   2.146  0.00  0.00    +0.028 A 
ATOM     11  C   UNL     1      -0.765  -2.099   2.721  0.00  0.00    +0.106 A 
ATOM     12  C   UNL     1      -1.656  -2.444   3.720  0.00  0.00    +0.032 A 
ENDBRANCH   3  11
ENDBRANCH   1   3
BRANCH   1  13
ATOM     13  C   UNL     1       2.457  -1.871   3.353  0.00  0.00    +0.059 C 
ATOM     14  C   UNL     1       2.564  -1.204   1.980  0.00  0.00    +0.034 C 
ATOM     15  C   UNL     1       1.703  -0.948   4.312  0.00  0.00    +0.034 C 
BRANCH  13  16
ATOM     16  C   UNL     1       3.839  -2.135   3.892  0.00  0.00    -0.023 A 
ATOM     17  C   UNL     1       4.403  -3.390   3.761  0.00  0.00    +0.009 A 
ATOM     18  C   UNL     1       5.671  -3.637   4.254  0.00  0.00    +0.050 A 
ATOM     19  C   UNL     1       6.380  -2.625   4.881  0.00  0.00    +0.166 A 
ATOM     20  C   UNL     1       5.811  -1.361   5.014  0.00  0.00    +0.167 A 
ATOM     21  C   UNL     1       4.543  -1.119   4.513  0.00  0.00    +0.055 A 
ATOM     22  O   UNL     1       6.699  -0.549   5.661  0.00  0.00    -0.453 OA
ATOM     23  C   UNL     1       7.647  -1.436   6.284  0.00  0.00    +0.466 C 
ATOM     24  O   UNL     1       7.623  -2.606   5.445  0.00  0.00    -0.453 OA
ENDBRANCH  13  16
ENDBRANCH   1  13
TORSDOF 4
