REMARK  Name = ZINC23330354
REMARK  19 active torsions:
REMARK  status: ('A' for Active; 'I' for Inactive)
REMARK    1  A    between atoms: C_1  and  C_2
REMARK    2  A    between atoms: C_2  and  O_3
REMARK    3  A    between atoms: O_3  and  C_4
REMARK    4  A    between atoms: C_4  and  C_5
REMARK    5  A    between atoms: C_5  and  C_6
REMARK    6  A    between atoms: C_6  and  N_7
REMARK    7  A    between atoms: C_11  and  S_26
REMARK    8  A    between atoms: C_15  and  S_16
REMARK    9  A    between atoms: S_16  and  C_17
REMARK   10  A    between atoms: C_17  and  C_18
REMARK   11  A    between atoms: C_18  and  N_19
REMARK   12  A    between atoms: N_19  and  C_20
REMARK   13  A    between atoms: N_19  and  C_23
REMARK   14  A    between atoms: C_20  and  C_21
REMARK   15  A    between atoms: C_20  and  C_22
REMARK   16  A    between atoms: C_23  and  C_24
REMARK   17  A    between atoms: C_23  and  C_25
REMARK   18  A    between atoms: S_26  and  N_29
REMARK   19  A    between atoms: C_33  and  C_36
REMARK                            x       y       z     vdW  Elec       q    Type
REMARK                         _______ _______ _______ _____ _____    ______ ____
ROOT
ATOM      1  N   UNL     1      -0.091   1.422  -0.192  0.00  0.00    -0.319 N 
ATOM      2  C   UNL     1      -0.078   0.037  -0.171  0.00  0.00    +0.070 A 
ATOM      3  C   UNL     1      -1.064  -0.935  -0.244  0.00  0.00    +0.030 A 
ATOM      4  C   UNL     1      -0.718  -2.270  -0.195  0.00  0.00    +0.030 A 
ATOM      5  C   UNL     1       0.612  -2.647  -0.073  0.00  0.00    +0.108 A 
ATOM      6  C   UNL     1       1.604  -1.695   0.001  0.00  0.00    +0.058 A 
ATOM      7  C   UNL     1       1.270  -0.339  -0.048  0.00  0.00    +0.092 A 
ATOM      8  N   UNL     1       2.002   0.804   0.001  0.00  0.00    -0.222 NA
ATOM      9  C   UNL     1       1.204   1.841  -0.084  0.00  0.00    +0.170 A 
ENDROOT
BRANCH   5  10
ATOM     10  S   UNL     1       1.034  -4.356  -0.013  0.00  0.00    +0.061 S 
ATOM     11  O   UNL     1      -0.025  -5.059  -0.649  0.00  0.00    -0.153 OA
ATOM     12  O   UNL     1       2.383  -4.457  -0.446  0.00  0.00    -0.153 OA
BRANCH  10  13
ATOM     13  N   UNL     1       1.013  -4.810   1.580  0.00  0.00    -0.176 NA
ATOM     14  C   UNL     1       2.227  -4.715   2.401  0.00  0.00    +0.109 C 
ATOM     15  C   UNL     1       2.497  -6.072   3.049  0.00  0.00    +0.017 C 
ATOM     16  C   UNL     1       1.252  -6.524   3.817  0.00  0.00    +0.006 C 
ATOM     17  C   UNL     1       0.079  -6.676   2.846  0.00  0.00    +0.002 C 
ATOM     18  C   UNL     1      -0.219  -5.320   2.197  0.00  0.00    +0.112 C 
ATOM     19  C   UNL     1      -1.156  -7.160   3.608  0.00  0.00    +0.009 C 
ENDBRANCH  10  13
ENDBRANCH   5  10
BRANCH   1  20
ATOM     20  C   UNL     1      -1.274   2.278  -0.313  0.00  0.00    +0.126 C 
BRANCH  20  21
ATOM     21  C   UNL     1      -1.819   2.596   1.081  0.00  0.00    +0.050 C 
BRANCH  21  22
ATOM     22  C   UNL     1      -3.054   3.489   0.954  0.00  0.00    +0.161 C 
BRANCH  22  23
ATOM     23  O   UNL     1      -3.563   3.786   2.256  0.00  0.00    -0.380 OA
BRANCH  23  25
ATOM     24  C   UNL     1      -5.178   4.871   3.689  0.00  0.00    +0.034 C 
ATOM     25  C   UNL     1      -4.724   4.620   2.250  0.00  0.00    +0.156 C 
ENDBRANCH  23  25
ENDBRANCH  22  23
ENDBRANCH  21  22
ENDBRANCH  20  21
ENDBRANCH   1  20
BRANCH   9  26
ATOM     26  S   UNL     1       1.726   3.524  -0.062  0.00  0.00    -0.090 S 
BRANCH  26  27
ATOM     27  C   UNL     1       3.514   3.297   0.099  0.00  0.00    +0.059 C 
BRANCH  27  28
ATOM     28  C   UNL     1       4.200   4.664   0.139  0.00  0.00    -0.067 C 
BRANCH  28  29
ATOM     29  N   UNL     1       5.658   4.481   0.113  0.00  0.00    +0.383 N 
ATOM     30  H   UNL     1       5.900   3.816  -0.730  0.00  0.00    -0.081 HD
BRANCH  29  31
ATOM     31  C   UNL     1       6.345   5.761  -0.111  0.00  0.00    -0.075 C 
ATOM     32  C   UNL     1       7.835   5.505  -0.343  0.00  0.00    -0.014 C 
ATOM     33  C   UNL     1       5.748   6.452  -1.339  0.00  0.00    -0.014 C 
ENDBRANCH  29  31
BRANCH  29  34
ATOM     34  C   UNL     1       6.131   3.838   1.346  0.00  0.00    -0.075 C 
ATOM     35  C   UNL     1       5.247   4.271   2.518  0.00  0.00    -0.014 C 
ATOM     36  C   UNL     1       6.060   2.318   1.188  0.00  0.00    -0.014 C 
ENDBRANCH  29  34
ENDBRANCH  28  29
ENDBRANCH  27  28
ENDBRANCH  26  27
ENDBRANCH   9  26
TORSDOF 13
