REMARK  Name = ZINC19892347
REMARK  14 active torsions:
REMARK  status: ('A' for Active; 'I' for Inactive)
REMARK    1  A    between atoms: C_1  and  C_2
REMARK    2  A    between atoms: C_2  and  O_3
REMARK    3  A    between atoms: O_3  and  C_4
REMARK    4  A    between atoms: C_4  and  C_5
REMARK    5  A    between atoms: C_5  and  O_6
REMARK    6  A    between atoms: O_6  and  C_7
REMARK    7  A    between atoms: C_7  and  C_9
REMARK    8  A    between atoms: C_10  and  C_39
REMARK    9  A    between atoms: C_14  and  C_16
REMARK   10  A    between atoms: C_26  and  C_29
REMARK   11  A    between atoms: C_32  and  O_37
REMARK   12  A    between atoms: C_33  and  O_35
REMARK   13  A    between atoms: O_35  and  C_36
REMARK   14  A    between atoms: O_37  and  C_38
REMARK                            x       y       z     vdW  Elec       q    Type
REMARK                         _______ _______ _______ _____ _____    ______ ____
ROOT
ATOM      1  C   UNL     1      -4.328   2.174   2.393  0.00  0.00    +0.065 C 
ATOM      2  C   UNL     1      -4.873   1.938   1.187  0.00  0.00    +0.016 C 
ATOM      3  N   UNL     1      -4.084   1.864   0.074  0.00  0.00    -0.321 N 
ATOM      4  C   UNL     1      -2.739   1.629   0.186  0.00  0.00    +0.016 C 
ATOM      5  C   UNL     1      -2.100   1.854   1.353  0.00  0.00    +0.024 C 
ATOM      6  C   UNL     1      -2.850   2.371   2.555  0.00  0.00    +0.092 C 
ATOM      7  C   UNL     1      -0.718   1.619   1.483  0.00  0.00    +0.162 C 
ATOM      8  O   UNL     1      -0.174   1.815   2.551  0.00  0.00    -0.292 OA
ATOM      9  C   UNL     1       0.098   1.128   0.318  0.00  0.00    +0.088 C 
ATOM     10  C   UNL     1      -0.549   1.610  -0.985  0.00  0.00    +0.032 C 
ATOM     11  C   UNL     1      -1.996   1.112  -1.020  0.00  0.00    +0.059 C 
ATOM     12  C   UNL     1      -6.363   1.754   1.062  0.00  0.00    +0.061 C 
ATOM     13  H   UNL     1      -4.527   1.993  -0.924  0.00  0.00    +0.152 HD
ENDROOT
BRANCH   6  14
ATOM     14  C   UNL     1      -2.563   3.841   2.722  0.00  0.00    -0.034 A 
ATOM     15  C   UNL     1      -1.974   4.303   3.885  0.00  0.00    +0.004 A 
ATOM     16  C   UNL     1      -1.711   5.651   4.040  0.00  0.00    +0.002 A 
ATOM     17  C   UNL     1      -2.036   6.539   3.031  0.00  0.00    +0.020 A 
ATOM     18  C   UNL     1      -2.625   6.078   1.867  0.00  0.00    +0.041 A 
ATOM     19  C   UNL     1      -2.883   4.727   1.711  0.00  0.00    +0.024 A 
ATOM     20 CL   UNL     1      -3.034   7.192   0.601  0.00  0.00    -0.084 Cl
ENDBRANCH   6  14
BRANCH  10  21
ATOM     21  C   UNL     1       0.207   1.052  -2.163  0.00  0.00    -0.040 A 
ATOM     22  C   UNL     1       0.318  -0.316  -2.327  0.00  0.00    +0.008 A 
ATOM     23  C   UNL     1       1.006  -0.832  -3.409  0.00  0.00    +0.049 A 
ATOM     24  C   UNL     1       1.597   0.022  -4.326  0.00  0.00    +0.161 A 
ATOM     25  C   UNL     1       1.491   1.399  -4.157  0.00  0.00    +0.162 A 
ATOM     26  C   UNL     1       0.795   1.910  -3.074  0.00  0.00    +0.053 A 
BRANCH  25  27
ATOM     27  O   UNL     1       2.069   2.242  -5.055  0.00  0.00    -0.491 OA
ATOM     28  C   UNL     1       1.919   3.643  -4.819  0.00  0.00    +0.277 C 
ENDBRANCH  25  27
BRANCH  24  29
ATOM     29  O   UNL     1       2.280  -0.484  -5.387  0.00  0.00    -0.491 OA
ATOM     30  C   UNL     1       2.347  -1.908  -5.496  0.00  0.00    +0.277 C 
ENDBRANCH  24  29
ENDBRANCH  10  21
BRANCH   1  31
ATOM     31  C   UNL     1      -5.165   2.238   3.532  0.00  0.00    +0.338 C 
ATOM     32  O   UNL     1      -6.374   2.186   3.402  0.00  0.00    -0.245 OA
BRANCH  31  33
ATOM     33  O   UNL     1      -4.623   2.356   4.762  0.00  0.00    -0.459 OA
BRANCH  33  34
ATOM     34  C   UNL     1      -5.528   2.414   5.867  0.00  0.00    +0.260 C 
BRANCH  34  35
ATOM     35  C   UNL     1      -4.735   2.546   7.169  0.00  0.00    +0.201 C 
BRANCH  35  36
ATOM     36  O   UNL     1      -4.043   3.797   7.180  0.00  0.00    -0.377 OA
BRANCH  36  38
ATOM     37  C   UNL     1      -2.575   5.382   8.263  0.00  0.00    +0.034 C 
ATOM     38  C   UNL     1      -3.268   4.021   8.359  0.00  0.00    +0.156 C 
ENDBRANCH  36  38
ENDBRANCH  35  36
ENDBRANCH  34  35
ENDBRANCH  33  34
ENDBRANCH  31  33
ENDBRANCH   1  31
TORSDOF 10
