REMARK  Name = ZINC28609130
REMARK  10 active torsions:
REMARK  status: ('A' for Active; 'I' for Inactive)
REMARK    1  A    between atoms: C_1  and  C_2
REMARK    2  A    between atoms: C_5  and  N_11
REMARK    3  A    between atoms: C_6  and  N_8
REMARK    4  A    between atoms: C_12  and  C_14
REMARK    5  A    between atoms: C_14  and  C_16
REMARK    6  A    between atoms: C_14  and  S_22
REMARK    7  A    between atoms: S_22  and  C_23
REMARK    8  A    between atoms: C_26  and  C_35
REMARK    9  A    between atoms: N_27  and  C_28
REMARK   10  A    between atoms: C_28  and  C_29
REMARK                            x       y       z     vdW  Elec       q    Type
REMARK                         _______ _______ _______ _____ _____    ______ ____
ROOT
ATOM      1  C   UNL     1      -3.579  -1.099  -0.046  0.00  0.00    +0.170 C 
ENDROOT
BRANCH   1   2
ATOM      2  C   UNL     1      -4.304  -1.093   1.275  0.00  0.00    -0.025 A 
ATOM      3  C   UNL     1      -3.691  -1.607   2.403  0.00  0.00    +0.005 A 
ATOM      4  C   UNL     1      -4.355  -1.597   3.615  0.00  0.00    +0.000 A 
ATOM      5  C   UNL     1      -5.636  -1.083   3.698  0.00  0.00    +0.000 A 
ATOM      6  C   UNL     1      -6.250  -0.574   2.569  0.00  0.00    +0.000 A 
ATOM      7  C   UNL     1      -5.585  -0.579   1.358  0.00  0.00    +0.005 A 
ENDBRANCH   1   2
BRANCH   1   9
ATOM      8  N   UNL     1      -2.361   1.053   0.002  0.00  0.00    -0.282 N 
ATOM      9  C   UNL     1      -2.312  -0.292   0.073  0.00  0.00    +0.235 C 
ATOM     10  O   UNL     1      -1.248  -0.853   0.234  0.00  0.00    -0.274 OA
ATOM     11  H   UNL     1      -3.332   1.566  -0.056  0.00  0.00    +0.155 HD
BRANCH   8  16
ATOM     12  C   UNL     1       2.440   4.076  -0.013  0.00  0.00    +0.044 C 
ATOM     13  C   UNL     1       1.166   3.271  -0.005  0.00  0.00    -0.048 A 
ATOM     14  C   UNL     1       1.125   2.038  -0.630  0.00  0.00    +0.005 A 
ATOM     15  C   UNL     1      -0.041   1.298  -0.626  0.00  0.00    +0.026 A 
ATOM     16  C   UNL     1      -1.176   1.797   0.002  0.00  0.00    +0.064 A 
ATOM     17  C   UNL     1      -1.130   3.033   0.633  0.00  0.00    +0.148 A 
ATOM     18  C   UNL     1       0.040   3.768   0.625  0.00  0.00    +0.038 A 
BRANCH  17  19
ATOM     19  N   UNL     1      -2.334   3.565   1.308  0.00  0.00    +0.058 N 
ATOM     20  O   UNL     1      -2.271   4.608   1.934  0.00  0.00    -0.126 OA
ATOM     21  O   UNL     1      -3.389   2.959   1.239  0.00  0.00    -0.126 OA
ENDBRANCH  17  19
ENDBRANCH   8  16
ENDBRANCH   1   9
BRANCH   1  22
ATOM     22  S   UNL     1      -3.168  -2.803  -0.500  0.00  0.00    -0.068 S 
BRANCH  22  23
ATOM     23  C   UNL     1      -4.788  -3.461  -0.715  0.00  0.00    +0.193 A 
ATOM     24  N   UNL     1      -5.921  -2.815  -0.558  0.00  0.00    -0.122 NA
ATOM     25  N   UNL     1      -6.909  -3.601  -0.798  0.00  0.00    -0.134 NA
ATOM     26  C   UNL     1      -6.471  -4.787  -1.112  0.00  0.00    +0.131 A 
ATOM     27  N   UNL     1      -5.104  -4.741  -1.070  0.00  0.00    -0.302 N 
ATOM     28  C   UNL     1      -7.313  -5.988  -1.457  0.00  0.00    +0.088 C 
BRANCH  27  29
ATOM     29  C   UNL     1      -4.173  -5.837  -1.349  0.00  0.00    +0.160 C 
BRANCH  29  30
ATOM     30  C   UNL     1      -3.882  -6.586  -0.074  0.00  0.00    -0.028 A 
ATOM     31  C   UNL     1      -2.821  -6.203   0.726  0.00  0.00    +0.005 A 
ATOM     32  C   UNL     1      -2.558  -6.887   1.898  0.00  0.00    +0.000 A 
ATOM     33  C   UNL     1      -3.348  -7.960   2.265  0.00  0.00    +0.000 A 
ATOM     34  C   UNL     1      -4.405  -8.346   1.462  0.00  0.00    +0.000 A 
ATOM     35  C   UNL     1      -4.673  -7.659   0.293  0.00  0.00    +0.005 A 
ENDBRANCH  29  30
ENDBRANCH  27  29
ENDBRANCH  22  23
ENDBRANCH   1  22
TORSDOF 8
