REMARK  Name = ZINC12661332
REMARK  13 active torsions:
REMARK  status: ('A' for Active; 'I' for Inactive)
REMARK    1  A    between atoms: C_1  and  C_2
REMARK    2  A    between atoms: C_13  and  C_14
REMARK    3  A    between atoms: C_13  and  O_15
REMARK    4  A    between atoms: N_21  and  O_22
REMARK    5  A    between atoms: O_22  and  C_23
REMARK    6  A    between atoms: C_23  and  C_24
REMARK    7  A    between atoms: N_26  and  C_27
REMARK    8  A    between atoms: C_27  and  C_29
REMARK    9  A    between atoms: C_27  and  C_36
REMARK   10  A    between atoms: C_29  and  C_30
REMARK   11  A    between atoms: C_36  and  O_38
REMARK   12  A    between atoms: O_38  and  C_39
REMARK   13  A    between atoms: C_42  and  C_43
REMARK                            x       y       z     vdW  Elec       q    Type
REMARK                         _______ _______ _______ _____ _____    ______ ____
ROOT
ATOM      1  C   UNL     1      10.316   5.404 -10.272  0.00  0.00    +0.014 C 
ATOM      2  C   UNL     1      10.511   3.957  -9.813  0.00  0.00    -0.000 C 
ATOM      3  C   UNL     1       9.161   3.295  -9.611  0.00  0.00    +0.010 C 
ATOM      4  C   UNL     1       8.361   4.180  -8.643  0.00  0.00    +0.005 C 
ATOM      5  C   UNL     1       9.100   4.356  -7.300  0.00  0.00    +0.006 C 
ATOM      6  C   UNL     1      10.517   4.907  -7.532  0.00  0.00    -0.003 C 
ATOM      7  C   UNL     1      11.241   3.933  -8.443  0.00  0.00    +0.001 C 
ATOM      8  C   UNL     1      12.666   4.329  -8.844  0.00  0.00    +0.007 C 
ATOM      9  C   UNL     1      12.893   3.530 -10.156  0.00  0.00    +0.035 C 
ATOM     10  C   UNL     1      11.488   3.247 -10.743  0.00  0.00    +0.069 C 
ATOM     11  C   UNL     1      11.210   1.742 -10.756  0.00  0.00    +0.042 C 
ATOM     12  C   UNL     1      11.239   4.995  -6.186  0.00  0.00    +0.008 C 
ATOM     13  C   UNL     1      10.527   6.011  -5.286  0.00  0.00    +0.032 C 
ATOM     14  C   UNL     1       9.069   5.605  -5.177  0.00  0.00    -0.058 C 
ATOM     15  C   UNL     1       8.516   5.522  -3.978  0.00  0.00    +0.031 C 
ATOM     16  C   UNL     1       7.111   5.090  -3.829  0.00  0.00    +0.102 C 
ATOM     17  N   UNL     1       6.556   5.016  -2.650  0.00  0.00    -0.085 NA
ATOM     18  C   UNL     1       6.348   4.751  -5.049  0.00  0.00    +0.027 C 
ATOM     19  C   UNL     1       6.916   4.875  -6.233  0.00  0.00    -0.014 C 
ATOM     20  C   UNL     1       8.311   5.353  -6.446  0.00  0.00    +0.011 C 
ATOM     21  C   UNL     1       8.241   6.672  -7.218  0.00  0.00    +0.020 C 
ENDROOT
BRANCH  10  22
ATOM     22  O   UNL     1      11.388   3.779 -12.066  0.00  0.00    -0.388 OA
ATOM     23  H   UNL     1      11.987   3.365 -12.703  0.00  0.00    +0.210 HD
ENDBRANCH  10  22
BRANCH  17  24
ATOM     24  O   UNL     1       5.206   4.606  -2.528  0.00  0.00    -0.384 OA
BRANCH  24  25
ATOM     25  C   UNL     1       4.729   4.569  -1.181  0.00  0.00    +0.358 C 
BRANCH  25  26
ATOM     26  C   UNL     1       3.290   4.123  -1.170  0.00  0.00    +0.254 C 
ATOM     27  O   UNL     1       2.728   3.861  -2.212  0.00  0.00    -0.272 OA
ATOM     28  N   UNL     1       2.627   4.014  -0.002  0.00  0.00    -0.299 N 
ATOM     29  H   UNL     1       3.077   4.223   0.832  0.00  0.00    +0.150 HD
BRANCH  28  30
ATOM     30  C   UNL     1       1.228   3.579   0.010  0.00  0.00    +0.186 C 
BRANCH  30  31
ATOM     31  C   UNL     1       1.170   2.073   0.002  0.00  0.00    +0.328 C 
ATOM     32  O   UNL     1       2.192   1.429  -0.011  0.00  0.00    -0.249 OA
BRANCH  31  33
ATOM     33  O   UNL     1      -0.018   1.448   0.010  0.00  0.00    -0.467 OA
ATOM     34  C   UNL     1       0.002  -0.004   0.002  0.00  0.00    +0.280 C 
ENDBRANCH  31  33
ENDBRANCH  30  31
BRANCH  30  35
ATOM     35  C   UNL     1       0.539   4.110   1.268  0.00  0.00    +0.069 C 
BRANCH  35  36
ATOM     36  C   UNL     1       0.489   5.615   1.216  0.00  0.00    -0.045 A 
ATOM     37  C   UNL     1       1.522   6.360   1.754  0.00  0.00    +0.004 A 
ATOM     38  C   UNL     1       1.478   7.741   1.702  0.00  0.00    +0.000 A 
ATOM     39  C   UNL     1       0.397   8.377   1.122  0.00  0.00    +0.000 A 
ATOM     40  C   UNL     1      -0.639   7.632   0.589  0.00  0.00    +0.000 A 
ATOM     41  C   UNL     1      -0.593   6.251   0.636  0.00  0.00    +0.004 A 
ENDBRANCH  35  36
ENDBRANCH  30  35
ENDBRANCH  28  30
ENDBRANCH  25  26
ENDBRANCH  24  25
ENDBRANCH  17  24
TORSDOF 9
