REMARK  Name = ZINC04839577
REMARK  1 active torsions:
REMARK  status: ('A' for Active; 'I' for Inactive)
REMARK    1  A    between atoms: C_17  and  C_19
REMARK                            x       y       z     vdW  Elec       q    Type
REMARK                         _______ _______ _______ _____ _____    ______ ____
ROOT
ATOM      1  C   UNL     1       1.193   1.786   0.000  0.00  0.00    +0.007 A 
ATOM      2  C   UNL     1      -0.013   1.076   0.008  0.00  0.00    +0.022 A 
ATOM      3  C   UNL     1      -1.202   1.734   0.017  0.00  0.00    +0.027 A 
ATOM      4  N   UNL     1      -1.239   3.084   0.110  0.00  0.00    -0.312 N 
ATOM      5  C   UNL     1      -0.089   3.797   0.026  0.00  0.00    +0.251 A 
ATOM      6  O   UNL     1      -0.137   5.016  -0.022  0.00  0.00    -0.268 OA
ATOM      7  C   UNL     1       1.153   3.150  -0.006  0.00  0.00    +0.070 A 
ATOM      8  C   UNL     1      -2.474   3.836   0.330  0.00  0.00    +0.130 C 
ATOM      9  C   UNL     1      -3.711   3.047  -0.060  0.00  0.00    +0.027 C 
ATOM     10  C   UNL     1      -3.635   1.637   0.527  0.00  0.00    +0.018 C 
ATOM     11  C   UNL     1      -2.457   0.906  -0.121  0.00  0.00    +0.054 C 
ATOM     12  C   UNL     1      -2.749   0.754  -1.623  0.00  0.00    +0.117 C 
ATOM     13  N   UNL     1      -2.913   2.106  -2.179  0.00  0.00    -0.293 N 
ATOM     14  C   UNL     1      -3.905   3.000  -1.569  0.00  0.00    +0.113 C 
ATOM     15  C   UNL     1      -2.168   2.516  -3.225  0.00  0.00    +0.320 C 
ATOM     16  O   UNL     1      -2.314   3.634  -3.673  0.00  0.00    -0.266 OA
ENDROOT
BRANCH  15  17
ATOM     17  C   UNL     1      -1.155   1.585  -3.839  0.00  0.00    +0.470 C 
ATOM     18  F   UNL     1      -0.512   2.230  -4.901  0.00  0.00    -0.162 F 
ATOM     19  F   UNL     1      -0.210   1.221  -2.873  0.00  0.00    -0.162 F 
ATOM     20  F   UNL     1      -1.802   0.438  -4.313  0.00  0.00    -0.162 F 
ENDBRANCH  15  17
TORSDOF 1
