REMARK  Name = ZINC49026820
REMARK  9 active torsions:
REMARK  status: ('A' for Active; 'I' for Inactive)
REMARK    1  A    between atoms: C_1  and  C_2
REMARK    2  A    between atoms: C_2  and  C_3
REMARK    3  A    between atoms: C_2  and  N_4
REMARK    4  A    between atoms: N_4  and  C_5
REMARK    5  A    between atoms: N_4  and  C_11
REMARK    6  A    between atoms: C_5  and  C_6
REMARK    7  A    between atoms: C_13  and  N_21
REMARK    8  A    between atoms: C_15  and  S_17
REMARK    9  A    between atoms: S_17  and  N_20
REMARK                            x       y       z     vdW  Elec       q    Type
REMARK                         _______ _______ _______ _____ _____    ______ ____
ROOT
ATOM      1  C   UNL     1      -2.326  -0.119   0.852  0.00  0.00    +0.034 A 
ATOM      2  C   UNL     1      -1.937   0.619   1.962  0.00  0.00    +0.046 A 
ATOM      3  C   UNL     1      -2.878   0.982   2.914  0.00  0.00    +0.028 A 
ATOM      4  C   UNL     1      -4.207   0.607   2.755  0.00  0.00    +0.051 A 
ATOM      5  C   UNL     1      -4.590  -0.127   1.649  0.00  0.00    +0.108 A 
ATOM      6  C   UNL     1      -3.657  -0.486   0.696  0.00  0.00    +0.051 A 
ENDROOT
BRANCH   5   7
ATOM      7  S   UNL     1      -6.276  -0.601   1.451  0.00  0.00    +0.056 S 
ATOM      8  O   UNL     1      -6.280  -1.747   0.611  0.00  0.00    -0.153 OA
ATOM      9  O   UNL     1      -6.852  -0.606   2.750  0.00  0.00    -0.153 OA
BRANCH   7  10
ATOM     10  N   UNL     1      -7.028   0.608   0.604  0.00  0.00    -0.204 NA
ATOM     11  H   UNL     1      -6.525   1.388   0.323  0.00  0.00    +0.144 HD
ATOM     12  H   UNL     1      -7.971   0.536   0.390  0.00  0.00    +0.144 HD
ENDBRANCH   7  10
ENDBRANCH   5   7
BRANCH   3  13
ATOM     13  N   UNL     1      -2.490   1.724   4.032  0.00  0.00    -0.358 N 
ATOM     14  H   UNL     1      -1.563   1.985   4.144  0.00  0.00    +0.142 HD
ATOM     15  H   UNL     1      -3.148   1.977   4.698  0.00  0.00    +0.142 HD
ENDBRANCH   3  13
BRANCH   1  16
ATOM     16  N   UNL     1      -1.382  -0.487  -0.109  0.00  0.00    -0.322 N 
BRANCH  16  18
ATOM     17  C   UNL     1       0.961  -1.183  -0.024  0.00  0.00    +0.027 C 
ATOM     18  C   UNL     1      -0.005   0.004  -0.009  0.00  0.00    +0.068 C 
ATOM     19  C   UNL     1       0.297   0.923  -1.194  0.00  0.00    +0.027 C 
ENDBRANCH  16  18
BRANCH  16  20
ATOM     20  C   UNL     1      -1.768  -1.363  -1.218  0.00  0.00    +0.147 C 
BRANCH  20  21
ATOM     21  C   UNL     1      -1.553  -2.800  -0.821  0.00  0.00    +0.007 A 
ATOM     22  C   UNL     1      -2.415  -3.660  -0.224  0.00  0.00    +0.013 A 
ATOM     23  C   UNL     1      -1.995  -4.948   0.049  0.00  0.00    +0.008 A 
ATOM     24  C   UNL     1      -0.734  -5.314  -0.288  0.00  0.00    +0.045 A 
ATOM     25  S   UNL     1      -0.098  -3.816  -1.021  0.00  0.00    -0.100 S 
ENDBRANCH  20  21
ENDBRANCH  16  20
ENDBRANCH   1  16
TORSDOF 7
