REMARK  Name = ZINC59471891
REMARK  10 active torsions:
REMARK  status: ('A' for Active; 'I' for Inactive)
REMARK    1  A    between atoms: C_1  and  C_2
REMARK    2  A    between atoms: C_5  and  S_8
REMARK    3  A    between atoms: S_8  and  N_11
REMARK    4  A    between atoms: N_11  and  C_12
REMARK    5  A    between atoms: N_11  and  C_29
REMARK    6  A    between atoms: C_12  and  C_13
REMARK    7  A    between atoms: N_15  and  C_16
REMARK    8  A    between atoms: C_16  and  C_17
REMARK    9  A    between atoms: C_17  and  O_18
REMARK   10  A    between atoms: O_18  and  C_19
REMARK                            x       y       z     vdW  Elec       q    Type
REMARK                         _______ _______ _______ _____ _____    ______ ____
ROOT
ATOM      1  N   UNL     1       1.651  -4.999  -0.034  0.00  0.00    -0.194 N 
ENDROOT
BRANCH   1   2
ATOM      2  C   UNL     1       2.284  -5.292  -1.244  0.00  0.00    +0.053 A 
ATOM      3  C   UNL     1       3.515  -4.721  -1.542  0.00  0.00    +0.025 A 
ATOM      4  C   UNL     1       4.140  -5.012  -2.738  0.00  0.00    +0.003 A 
ATOM      5  C   UNL     1       3.540  -5.871  -3.642  0.00  0.00    +0.020 A 
ATOM      6  C   UNL     1       2.314  -6.441  -3.350  0.00  0.00    +0.043 A 
ATOM      7  C   UNL     1       1.687  -6.158  -2.151  0.00  0.00    +0.044 A 
ATOM      8 CL   UNL     1       1.565  -7.518  -4.487  0.00  0.00    -0.083 Cl
ENDBRANCH   1   2
BRANCH   1   9
ATOM      9  S   UNL     1       0.149  -4.301  -0.033  0.00  0.00    +0.075 S 
ATOM     10  O   UNL     1      -0.501  -4.738   1.152  0.00  0.00    -0.150 OA
ATOM     11  O   UNL     1      -0.399  -4.515  -1.326  0.00  0.00    -0.150 OA
BRANCH   9  16
ATOM     12  C   UNL     1       0.950   1.653   0.536  0.00  0.00    +0.044 C 
ATOM     13  C   UNL     1       0.750   0.166   0.394  0.00  0.00    -0.050 A 
ATOM     14  C   UNL     1       0.708  -0.409  -0.863  0.00  0.00    +0.005 A 
ATOM     15  C   UNL     1       0.525  -1.773  -0.993  0.00  0.00    +0.029 A 
ATOM     16  C   UNL     1       0.384  -2.562   0.133  0.00  0.00    +0.109 A 
ATOM     17  C   UNL     1       0.427  -1.988   1.390  0.00  0.00    +0.029 A 
ATOM     18  C   UNL     1       0.614  -0.624   1.520  0.00  0.00    +0.005 A 
ENDBRANCH   9  16
ENDBRANCH   1   9
BRANCH   1  19
ATOM     19  C   UNL     1       2.315  -5.311   1.234  0.00  0.00    +0.227 C 
BRANCH  19  20
ATOM     20  C   UNL     1       2.043  -6.746   1.604  0.00  0.00    +0.232 C 
ATOM     21  O   UNL     1       1.361  -7.440   0.880  0.00  0.00    -0.274 OA
ATOM     22  N   UNL     1       2.557  -7.258   2.740  0.00  0.00    -0.311 N 
ATOM     23  H   UNL     1       3.102  -6.703   3.319  0.00  0.00    +0.149 HD
BRANCH  22  24
ATOM     24  C   UNL     1       2.292  -8.653   3.100  0.00  0.00    +0.145 C 
BRANCH  24  25
ATOM     25  C   UNL     1       2.985  -8.979   4.425  0.00  0.00    +0.247 C 
BRANCH  25  26
ATOM     26  O   UNL     1       2.402  -8.200   5.472  0.00  0.00    -0.490 OA
BRANCH  26  27
ATOM     27  C   UNL     1       2.907  -8.371   6.722  0.00  0.00    +0.121 A 
ATOM     28  C   UNL     1       3.955  -9.274   6.925  0.00  0.00    +0.046 A 
ATOM     29  C   UNL     1       4.481  -9.466   8.165  0.00  0.00    +0.012 A 
ATOM     30  C   UNL     1       3.968  -8.748   9.259  0.00  0.00    -0.018 A 
ATOM     31  C   UNL     1       4.488  -8.922  10.553  0.00  0.00    +0.008 A 
ATOM     32  C   UNL     1       3.968  -8.210  11.590  0.00  0.00    +0.001 A 
ATOM     33  C   UNL     1       2.923  -7.309  11.389  0.00  0.00    +0.001 A 
ATOM     34  C   UNL     1       2.394  -7.115  10.150  0.00  0.00    +0.008 A 
ATOM     35  C   UNL     1       2.906  -7.832   9.055  0.00  0.00    -0.014 A 
ATOM     36  C   UNL     1       2.388  -7.654   7.762  0.00  0.00    +0.054 A 
ENDBRANCH  26  27
ENDBRANCH  25  26
ENDBRANCH  24  25
ENDBRANCH  22  24
ENDBRANCH  19  20
ENDBRANCH   1  19
TORSDOF 9
