REMARK  Name = ZINC15015905
REMARK  12 active torsions:
REMARK  status: ('A' for Active; 'I' for Inactive)
REMARK    1  A    between atoms: C_1  and  C_2
REMARK    2  A    between atoms: C_6  and  N_8
REMARK    3  A    between atoms: N_8  and  C_9
REMARK    4  A    between atoms: C_9  and  C_11
REMARK    5  A    between atoms: C_9  and  C_23
REMARK    6  A    between atoms: C_17  and  C_22
REMARK    7  A    between atoms: C_20  and  O_21
REMARK    8  A    between atoms: C_25  and  O_32
REMARK    9  A    between atoms: C_26  and  O_31
REMARK   10  A    between atoms: C_27  and  O_29
REMARK   11  A    between atoms: O_29  and  C_30
REMARK   12  A    between atoms: O_32  and  C_33
REMARK                            x       y       z     vdW  Elec       q    Type
REMARK                         _______ _______ _______ _____ _____    ______ ____
ROOT
ATOM      1  C   UNL     1       0.069  -4.101   2.466  0.00  0.00    +0.136 C 
ENDROOT
BRANCH   1   2
ATOM      2  C   UNL     1      -0.405  -4.562   3.820  0.00  0.00    +0.021 A 
ATOM      3  C   UNL     1      -0.472  -3.650   4.870  0.00  0.00    +0.010 A 
ATOM      4  C   UNL     1      -0.896  -4.034   6.105  0.00  0.00    +0.010 A 
ATOM      5  C   UNL     1      -1.272  -5.369   6.329  0.00  0.00    +0.004 A 
ATOM      6  C   UNL     1      -1.716  -5.804   7.592  0.00  0.00    +0.012 A 
ATOM      7  C   UNL     1      -2.065  -7.117   7.735  0.00  0.00    +0.023 A 
ATOM      8  C   UNL     1      -1.976  -7.982   6.647  0.00  0.00    +0.039 A 
ATOM      9  N   UNL     1      -1.563  -7.573   5.472  0.00  0.00    -0.248 NA
ATOM     10  C   UNL     1      -1.206  -6.303   5.265  0.00  0.00    +0.113 A 
ATOM     11  C   UNL     1      -0.767  -5.867   3.997  0.00  0.00    +0.148 A 
ATOM     12  C   UNL     1      -2.366  -9.427   6.825  0.00  0.00    +0.065 C 
BRANCH  11  13
ATOM     13  O   UNL     1      -0.701  -6.741   2.960  0.00  0.00    -0.504 OA
ATOM     14  H   UNL     1       0.150  -7.194   2.882  0.00  0.00    +0.292 HD
ENDBRANCH  11  13
ENDBRANCH   1   2
BRANCH   1  15
ATOM     15  C   UNL     1       1.555  -4.322   2.351  0.00  0.00    -0.016 A 
ATOM     16  C   UNL     1       2.432  -3.426   2.932  0.00  0.00    +0.055 A 
ATOM     17  C   UNL     1       3.800  -3.626   2.828  0.00  0.00    +0.165 A 
ATOM     18  C   UNL     1       4.289  -4.730   2.140  0.00  0.00    +0.201 A 
ATOM     19  C   UNL     1       3.403  -5.630   1.558  0.00  0.00    +0.165 A 
ATOM     20  C   UNL     1       2.037  -5.425   1.670  0.00  0.00    +0.055 A 
BRANCH  19  21
ATOM     21  O   UNL     1       3.877  -6.711   0.883  0.00  0.00    -0.491 OA
ATOM     22  C   UNL     1       2.909  -7.593   0.311  0.00  0.00    +0.277 C 
ENDBRANCH  19  21
BRANCH  18  23
ATOM     23  O   UNL     1       5.631  -4.930   2.035  0.00  0.00    -0.501 OA
ATOM     24  H   UNL     1       6.007  -5.459   2.752  0.00  0.00    +0.292 HD
ENDBRANCH  18  23
BRANCH  17  25
ATOM     25  O   UNL     1       4.663  -2.743   3.399  0.00  0.00    -0.491 OA
ATOM     26  C   UNL     1       4.090  -1.632   4.090  0.00  0.00    +0.277 C 
ENDBRANCH  17  25
ENDBRANCH   1  15
BRANCH   1  27
ATOM     27  N   UNL     1      -0.226  -2.675   2.305  0.00  0.00    -0.320 N 
ATOM     28  H   UNL     1      -0.325  -2.109   3.086  0.00  0.00    +0.148 HD
BRANCH  27  34
ATOM     29  C   UNL     1      -1.074   1.183  -0.401  0.00  0.00    +0.063 C 
ATOM     30  C   UNL     1      -0.771  -0.290  -0.296  0.00  0.00    +0.014 A 
ATOM     31  C   UNL     1      -0.642  -1.042  -1.447  0.00  0.00    +0.021 A 
ATOM     32  C   UNL     1      -0.362  -2.398  -1.345  0.00  0.00    +0.005 A 
ATOM     33  C   UNL     1      -0.222  -2.950  -0.084  0.00  0.00    +0.041 A 
ATOM     34  C   UNL     1      -0.365  -2.133   1.032  0.00  0.00    +0.097 A 
ATOM     35  N   UNL     1      -0.626  -0.842   0.893  0.00  0.00    -0.347 N 
ATOM     36  H   UNL     1      -0.717  -0.290   1.685  0.00  0.00    +0.167 HD
ENDBRANCH  27  34
ENDBRANCH   1  27
TORSDOF 8
