REMARK  Name = ZINC41586429
REMARK  12 active torsions:
REMARK  status: ('A' for Active; 'I' for Inactive)
REMARK    1  A    between atoms: C_1  and  C_2
REMARK    2  A    between atoms: C_2  and  O_3
REMARK    3  A    between atoms: O_3  and  C_4
REMARK    4  A    between atoms: C_4  and  C_6
REMARK    5  A    between atoms: N_11  and  C_13
REMARK    6  A    between atoms: C_13  and  C_14
REMARK    7  A    between atoms: C_15  and  O_35
REMARK    8  A    between atoms: C_17  and  C_34
REMARK    9  A    between atoms: C_22  and  C_23
REMARK   10  A    between atoms: C_26  and  N_29
REMARK   11  A    between atoms: N_29  and  C_30
REMARK   12  A    between atoms: N_29  and  C_31
REMARK                            x       y       z     vdW  Elec       q    Type
REMARK                         _______ _______ _______ _____ _____    ______ ____
ROOT
ATOM      1  C   UNL     1       2.734  -6.429   4.838  0.00  0.00    +0.020 A 
ATOM      2  C   UNL     1       4.088  -6.720   4.892  0.00  0.00    +0.122 A 
ATOM      3  C   UNL     1       4.652  -7.255   6.046  0.00  0.00    +0.050 A 
ATOM      4  C   UNL     1       3.873  -7.498   7.142  0.00  0.00    -0.033 A 
ATOM      5  C   UNL     1       2.508  -7.210   7.102  0.00  0.00    +0.071 A 
ATOM      6  C   UNL     1       1.929  -6.666   5.945  0.00  0.00    +0.145 A 
ATOM      7  O   UNL     1       0.608  -6.469   6.147  0.00  0.00    -0.451 OA
ATOM      8  C   UNL     1       0.228  -6.842   7.391  0.00  0.00    +0.176 C 
ATOM      9  C   UNL     1      -1.029  -6.770   7.902  0.00  0.00    +0.058 C 
ATOM     10  C   UNL     1       1.419  -7.350   8.086  0.00  0.00    +0.232 C 
ATOM     11  O   UNL     1       1.492  -7.780   9.224  0.00  0.00    -0.283 OA
ATOM     12  C   UNL     1       4.486  -8.078   8.391  0.00  0.00    +0.045 C 
ENDROOT
BRANCH   9  13
ATOM     13  C   UNL     1      -2.102  -6.142   7.123  0.00  0.00    -0.021 A 
ATOM     14  C   UNL     1      -3.365  -5.946   7.698  0.00  0.00    +0.010 A 
ATOM     15  C   UNL     1      -4.361  -5.360   6.969  0.00  0.00    +0.023 A 
ATOM     16  C   UNL     1      -4.123  -4.960   5.657  0.00  0.00    +0.029 A 
ATOM     17  C   UNL     1      -2.870  -5.153   5.081  0.00  0.00    +0.023 A 
ATOM     18  C   UNL     1      -1.866  -5.732   5.804  0.00  0.00    +0.010 A 
BRANCH  16  19
ATOM     19  N   UNL     1      -5.141  -4.364   4.919  0.00  0.00    -0.336 N 
ATOM     20  C   UNL     1      -6.460  -4.160   5.522  0.00  0.00    +0.129 C 
ATOM     21  C   UNL     1      -4.894  -3.942   3.538  0.00  0.00    +0.129 C 
ENDBRANCH  16  19
ENDBRANCH   9  13
BRANCH   2  22
ATOM     22  O   UNL     1       4.871  -6.482   3.808  0.00  0.00    -0.506 OA
ATOM     23  H   UNL     1       5.261  -5.597   3.792  0.00  0.00    +0.292 HD
ENDBRANCH   2  22
BRANCH   1  24
ATOM     24  C   UNL     1       2.137  -5.851   3.581  0.00  0.00    -0.036 C 
BRANCH  24  29
ATOM     25  C   UNL     1       1.507  -2.292   2.569  0.00  0.00    +0.081 C 
ATOM     26  C   UNL     1       2.952  -1.786   2.597  0.00  0.00    +0.011 C 
ATOM     27  C   UNL     1       3.689  -2.439   3.770  0.00  0.00    -0.018 C 
ATOM     28  C   UNL     1       3.611  -3.961   3.630  0.00  0.00    -0.078 C 
ATOM     29  N   UNL     1       2.205  -4.384   3.636  0.00  0.00    +0.383 N 
ATOM     30  C   UNL     1       1.509  -3.819   2.475  0.00  0.00    -0.064 C 
ATOM     31  H   UNL     1       1.761  -4.061   4.483  0.00  0.00    -0.081 HD
BRANCH  25  32
ATOM     32  C   UNL     1       0.795  -1.715   1.373  0.00  0.00    +0.308 C 
ATOM     33  O   UNL     1       0.333  -2.449   0.532  0.00  0.00    -0.251 OA
BRANCH  32  34
ATOM     34  O   UNL     1       0.673  -0.384   1.242  0.00  0.00    -0.465 OA
BRANCH  34  36
ATOM     35  C   UNL     1      -0.054   1.623   0.109  0.00  0.00    +0.048 C 
ATOM     36  C   UNL     1      -0.015   0.093   0.084  0.00  0.00    +0.229 C 
ENDBRANCH  34  36
ENDBRANCH  32  34
ENDBRANCH  25  32
ENDBRANCH  24  29
ENDBRANCH   1  24
TORSDOF 8
