REMARK  Name = ZINC41834234
REMARK  9 active torsions:
REMARK  status: ('A' for Active; 'I' for Inactive)
REMARK    1  A    between atoms: C_1  and  C_2
REMARK    2  A    between atoms: C_2  and  C_3
REMARK    3  A    between atoms: C_3  and  C_4
REMARK    4  A    between atoms: C_3  and  C_11
REMARK    5  A    between atoms: C_3  and  N_14
REMARK    6  A    between atoms: N_14  and  C_15
REMARK    7  A    between atoms: C_15  and  C_16
REMARK    8  A    between atoms: C_15  and  C_17
REMARK    9  A    between atoms: C_15  and  C_18
REMARK                            x       y       z     vdW  Elec       q    Type
REMARK                         _______ _______ _______ _____ _____    ______ ____
ROOT
ATOM      1  C   UNL     1       1.648  -1.405  -1.452  0.00  0.00    +0.062 C 
ENDROOT
BRANCH   1   2
ATOM      2  C   UNL     1       2.819  -1.087  -2.345  0.00  0.00    -0.048 A 
ATOM      3  C   UNL     1       3.567   0.055  -2.124  0.00  0.00    +0.004 A 
ATOM      4  C   UNL     1       4.641   0.346  -2.943  0.00  0.00    +0.015 A 
ATOM      5  C   UNL     1       4.969  -0.504  -3.983  0.00  0.00    +0.018 A 
ATOM      6  C   UNL     1       4.220  -1.647  -4.204  0.00  0.00    +0.015 A 
ATOM      7  C   UNL     1       3.149  -1.940  -3.381  0.00  0.00    +0.004 A 
ATOM      8 BR   UNL     1       6.439  -0.106  -5.104  0.00  0.00    -0.050 Br
ENDBRANCH   1   2
BRANCH   1   9
ATOM      9  C   UNL     1       1.879  -2.730  -0.773  0.00  0.00    +0.350 C 
ATOM     10  O   UNL     1       1.218  -3.703  -1.095  0.00  0.00    -0.248 OA
ATOM     11  O   UNL     1       2.726  -2.830   0.098  0.00  0.00    -0.248 OA
ENDBRANCH   1   9
BRANCH   1  12
ATOM     12  N   UNL     1       1.507  -0.353  -0.436  0.00  0.00    +0.402 N 
ATOM     13  H   UNL     1       2.309  -0.366   0.175  0.00  0.00    -0.082 HD
ATOM     14  H   UNL     1       1.444   0.546  -0.890  0.00  0.00    -0.082 HD
BRANCH  12  15
ATOM     15  C   UNL     1       0.288  -0.591   0.349  0.00  0.00    +0.006 C 
ATOM     16  C   UNL     1       0.098  -2.095   0.553  0.00  0.00    -0.001 C 
ATOM     17  C   UNL     1       0.417   0.096   1.711  0.00  0.00    -0.001 C 
BRANCH  15  18
ATOM     18  C   UNL     1      -0.901  -0.029  -0.386  0.00  0.00    +0.199 C 
ATOM     19  O   UNL     1      -1.949  -0.639  -0.400  0.00  0.00    -0.278 OA
ATOM     20  N   UNL     1      -0.801   1.153  -1.027  0.00  0.00    -0.330 N 
ATOM     21  H   UNL     1       0.062   1.588  -1.110  0.00  0.00    +0.145 HD
ATOM     22  H   UNL     1      -1.591   1.568  -1.406  0.00  0.00    +0.145 HD
ENDBRANCH  15  18
ENDBRANCH  12  15
ENDBRANCH   1  12
BRANCH   1  24
ATOM     23  C   UNL     1       0.305  -0.268  -3.226  0.00  0.00    +0.003 C 
ATOM     24  C   UNL     1       0.371  -1.477  -2.292  0.00  0.00    +0.000 C 
ENDBRANCH   1  24
TORSDOF 6
