REMARK  Name = ZINC39695807
REMARK  6 active torsions:
REMARK  status: ('A' for Active; 'I' for Inactive)
REMARK    1  A    between atoms: C_1  and  C_2
REMARK    2  A    between atoms: C_10  and  C_12
REMARK    3  A    between atoms: C_12  and  C_13
REMARK    4  A    between atoms: C_12  and  N_14
REMARK    5  A    between atoms: C_15  and  C_17
REMARK    6  A    between atoms: C_27  and  C_29
REMARK                            x       y       z     vdW  Elec       q    Type
REMARK                         _______ _______ _______ _____ _____    ______ ____
ROOT
ATOM      1  C   UNL     1      -2.065  -8.351   1.383  0.00  0.00    +0.100 C 
ATOM      2  C   UNL     1      -3.213  -8.015   0.406  0.00  0.00    +0.121 C 
ATOM      3  N   UNL     1      -4.050  -9.237   0.376  0.00  0.00    -0.296 N 
ATOM      4  C   UNL     1      -4.064  -9.710   1.781  0.00  0.00    +0.115 C 
ATOM      5  C   UNL     1      -2.630  -9.463   2.284  0.00  0.00    -0.004 C 
ATOM      6  C   UNL     1      -1.797 -10.733   2.142  0.00  0.00    -0.010 C 
ATOM      7  C   UNL     1      -2.344 -11.805   3.089  0.00  0.00    -0.082 C 
ATOM      8  N   UNL     1      -2.290 -11.313   4.471  0.00  0.00    +0.379 N 
ATOM      9  C   UNL     1      -3.167 -10.145   4.621  0.00  0.00    -0.082 C 
ATOM     10  C   UNL     1      -2.655  -9.003   3.739  0.00  0.00    -0.010 C 
ATOM     11  C   UNL     1      -4.661  -9.794  -0.689  0.00  0.00    +0.247 C 
ATOM     12  O   UNL     1      -4.465  -9.350  -1.803  0.00  0.00    -0.270 OA
ATOM     13  H   UNL     1      -2.593 -12.042   5.098  0.00  0.00    -0.086 HD
ATOM     14  H   UNL     1      -1.342 -11.051   4.697  0.00  0.00    -0.086 HD
ENDROOT
BRANCH  11  15
ATOM     15  C   UNL     1      -5.572 -10.947  -0.501  0.00  0.00    +0.040 A 
ATOM     16  C   UNL     1      -6.139 -11.219   0.748  0.00  0.00    +0.033 A 
ATOM     17  C   UNL     1      -6.984 -12.304   0.879  0.00  0.00    +0.111 A 
ATOM     18  N   UNL     1      -7.255 -13.078  -0.153  0.00  0.00    -0.263 NA
ATOM     19  C   UNL     1      -6.742 -12.858  -1.347  0.00  0.00    +0.111 A 
ATOM     20  C   UNL     1      -5.893 -11.791  -1.568  0.00  0.00    +0.033 A 
ENDBRANCH  11  15
BRANCH   1  22
ATOM     21  N   UNL     1      -0.449  -6.992   2.671  0.00  0.00    -0.305 N 
ATOM     22  C   UNL     1      -1.705  -7.141   2.206  0.00  0.00    +0.219 C 
ATOM     23  O   UNL     1      -2.545  -6.302   2.450  0.00  0.00    -0.275 OA
ATOM     24  H   UNL     1       0.224  -7.664   2.476  0.00  0.00    +0.149 HD
BRANCH  21  25
ATOM     25  C   UNL     1      -0.099  -5.816   3.471  0.00  0.00    +0.136 C 
ATOM     26  C   UNL     1      -0.454  -6.072   4.937  0.00  0.00    +0.036 C 
BRANCH  25  36
ATOM     27  C   UNL     1       6.877  -3.239   3.180  0.00  0.00    +0.044 C 
ATOM     28  C   UNL     1       5.684  -4.158   3.132  0.00  0.00    -0.048 A 
ATOM     29  C   UNL     1       5.862  -5.502   2.836  0.00  0.00    +0.005 A 
ATOM     30  C   UNL     1       4.794  -6.352   2.787  0.00  0.00    +0.030 A 
ATOM     31  C   UNL     1       3.507  -5.868   3.037  0.00  0.00    +0.089 A 
ATOM     32  C   UNL     1       3.326  -4.508   3.337  0.00  0.00    +0.067 A 
ATOM     33  C   UNL     1       4.424  -3.660   3.387  0.00  0.00    +0.031 A 
ATOM     34  N   UNL     1       1.970  -4.337   3.531  0.00  0.00    -0.340 N 
ATOM     35  H   UNL     1       1.521  -3.506   3.754  0.00  0.00    +0.167 HD
ATOM     36  C   UNL     1       1.380  -5.550   3.352  0.00  0.00    +0.128 A 
ATOM     37  N   UNL     1       2.278  -6.446   3.063  0.00  0.00    -0.231 NA
ENDBRANCH  25  36
ENDBRANCH  21  25
ENDBRANCH   1  22
TORSDOF 4
