REMARK  Name = ZINC20357297
REMARK  13 active torsions:
REMARK  status: ('A' for Active; 'I' for Inactive)
REMARK    1  A    between atoms: C_1  and  C_2
REMARK    2  A    between atoms: C_6  and  O_8
REMARK    3  A    between atoms: O_8  and  C_9
REMARK    4  A    between atoms: C_9  and  C_10
REMARK    5  A    between atoms: C_13  and  S_18
REMARK    6  A    between atoms: N_14  and  C_15
REMARK    7  A    between atoms: C_15  and  C_16
REMARK    8  A    between atoms: S_18  and  C_19
REMARK    9  A    between atoms: C_19  and  C_20
REMARK   10  A    between atoms: N_22  and  C_23
REMARK   11  A    between atoms: C_24  and  C_28
REMARK   12  A    between atoms: C_28  and  O_30
REMARK   13  A    between atoms: O_30  and  C_31
REMARK                            x       y       z     vdW  Elec       q    Type
REMARK                         _______ _______ _______ _____ _____    ______ ____
ROOT
ATOM      1  C   UNL     1       0.965  -0.820   0.529  0.00  0.00    +0.172 A 
ATOM      2  N   UNL     1       0.594  -2.050   0.310  0.00  0.00    -0.130 NA
ATOM      3  N   UNL     1      -0.524  -2.067  -0.323  0.00  0.00    -0.122 NA
ATOM      4  C   UNL     1      -0.934  -0.838  -0.538  0.00  0.00    +0.192 A 
ATOM      5  N   UNL     1       0.002  -0.004   0.002  0.00  0.00    -0.299 N 
ENDROOT
BRANCH   1   6
ATOM      6  C   UNL     1       2.221  -0.378   1.235  0.00  0.00    +0.305 C 
BRANCH   6   7
ATOM      7  O   UNL     1       1.962  -0.253   2.634  0.00  0.00    -0.483 OA
BRANCH   7  13
ATOM      8  C   UNL     1       6.639   1.082   3.047  0.00  0.00    +0.044 C 
ATOM      9  C   UNL     1       5.291   0.799   3.659  0.00  0.00    -0.047 A 
ATOM     10  C   UNL     1       5.109   0.940   5.023  0.00  0.00    +0.005 A 
ATOM     11  C   UNL     1       3.874   0.681   5.588  0.00  0.00    +0.024 A 
ATOM     12  C   UNL     1       2.816   0.287   4.789  0.00  0.00    +0.083 A 
ATOM     13  C   UNL     1       2.999   0.140   3.421  0.00  0.00    +0.140 A 
ATOM     14  C   UNL     1       4.239   0.400   2.857  0.00  0.00    +0.050 A 
ATOM     15 CL   UNL     1       1.263  -0.030   5.498  0.00  0.00    -0.080 Cl
ENDBRANCH   7  13
ENDBRANCH   6   7
ENDBRANCH   1   6
BRANCH   5  16
ATOM     16  C   UNL     1      -0.018   1.461   0.010  0.00  0.00    +0.152 C 
BRANCH  16  17
ATOM     17  C   UNL     1      -0.723   1.947   1.250  0.00  0.00    -0.013 C 
ATOM     18  C   UNL     1      -0.122   2.782   2.060  0.00  0.00    +0.005 C 
ENDBRANCH  16  17
ENDBRANCH   5  16
BRANCH   4  19
ATOM     19  S   UNL     1      -2.412  -0.357  -1.368  0.00  0.00    -0.077 S 
BRANCH  19  20
ATOM     20  C   UNL     1      -3.090  -1.986  -1.772  0.00  0.00    +0.173 C 
BRANCH  20  21
ATOM     21  C   UNL     1      -4.395  -1.818  -2.508  0.00  0.00    +0.228 C 
ATOM     22  O   UNL     1      -4.824  -0.707  -2.736  0.00  0.00    -0.275 OA
ATOM     23  N   UNL     1      -5.085  -2.903  -2.912  0.00  0.00    -0.279 N 
ATOM     24  H   UNL     1      -4.696  -3.911  -2.705  0.00  0.00    +0.155 HD
BRANCH  23  25
ATOM     25  C   UNL     1      -6.285  -2.749  -3.588  0.00  0.00    +0.086 A 
ATOM     26  C   UNL     1      -7.129  -3.736  -4.085  0.00  0.00    +0.087 A 
ATOM     27  C   UNL     1      -8.329  -3.288  -4.753  0.00  0.00    +0.024 A 
ATOM     28  C   UNL     1      -8.521  -1.960  -4.845  0.00  0.00    +0.048 A 
ATOM     29  S   UNL     1      -7.092  -1.281  -4.027  0.00  0.00    -0.081 S 
BRANCH  26  30
ATOM     30  C   UNL     1      -6.819  -5.160  -3.936  0.00  0.00    +0.341 C 
ATOM     31  O   UNL     1      -5.801  -5.504  -3.366  0.00  0.00    -0.245 OA
BRANCH  30  32
ATOM     32  O   UNL     1      -7.662  -6.089  -4.431  0.00  0.00    -0.464 OA
ATOM     33  C   UNL     1      -7.291  -7.481  -4.247  0.00  0.00    +0.280 C 
ENDBRANCH  30  32
ENDBRANCH  26  30
ENDBRANCH  23  25
ENDBRANCH  20  21
ENDBRANCH  19  20
ENDBRANCH   4  19
TORSDOF 11
