REMARK  Name = ZINC40572039
REMARK  5 active torsions:
REMARK  status: ('A' for Active; 'I' for Inactive)
REMARK    1  A    between atoms: C_4  and  C_7
REMARK    2  A    between atoms: C_7  and  C_8
REMARK    3  A    between atoms: C_7  and  C_14
REMARK    4  A    between atoms: N_16  and  N_17
REMARK    5  A    between atoms: C_19  and  N_25
REMARK                            x       y       z     vdW  Elec       q    Type
REMARK                         _______ _______ _______ _____ _____    ______ ____
ROOT
ATOM      1  C   UNL     1       3.700  -1.661  -1.204  0.00  0.00    +0.241 C 
ATOM      2  O   UNL     1       3.810  -2.854  -1.013  0.00  0.00    -0.273 OA
ATOM      3  N   UNL     1       3.567  -1.190  -2.459  0.00  0.00    -0.235 N 
ATOM      4  H   UNL     1       3.479  -0.236  -2.612  0.00  0.00    +0.173 HD
ENDROOT
BRANCH   3   5
ATOM      5  N   UNL     1       3.557  -2.077  -3.544  0.00  0.00    -0.247 N 
ATOM      6  C   UNL     1       3.421  -1.591  -4.837  0.00  0.00    +0.160 A 
ATOM      7  C   UNL     1       3.403  -2.468  -5.929  0.00  0.00    +0.104 A 
ATOM      8  C   UNL     1       3.264  -1.929  -7.201  0.00  0.00    +0.155 A 
ATOM      9  N   UNL     1       3.154  -0.614  -7.336  0.00  0.00    -0.222 NA
ATOM     10  C   UNL     1       3.175   0.180  -6.286  0.00  0.00    +0.225 A 
ATOM     11  N   UNL     1       3.299  -0.286  -5.059  0.00  0.00    -0.218 NA
ATOM     12 CL   UNL     1       3.236  -2.962  -8.596  0.00  0.00    -0.060 Cl
ATOM     13  H   UNL     1       3.645  -3.031  -3.391  0.00  0.00    +0.172 HD
BRANCH   7  14
ATOM     14  N   UNL     1       3.522  -3.852  -5.743  0.00  0.00    -0.353 N 
ATOM     15  H   UNL     1       3.619  -4.214  -4.848  0.00  0.00    +0.143 HD
ATOM     16  H   UNL     1       3.508  -4.447  -6.509  0.00  0.00    +0.143 HD
ENDBRANCH   7  14
ENDBRANCH   3   5
BRANCH   1  17
ATOM     17  C   UNL     1       3.711  -0.707  -0.038  0.00  0.00    +0.136 C 
BRANCH  17  21
ATOM     18  C   UNL     1       0.035   1.467   0.061  0.00  0.00    +0.000 A 
ATOM     19  C   UNL     1       0.020   0.087  -0.022  0.00  0.00    +0.000 A 
ATOM     20  C   UNL     1       1.210  -0.617  -0.054  0.00  0.00    +0.005 A 
ATOM     21  C   UNL     1       2.414   0.060  -0.004  0.00  0.00    -0.031 A 
ATOM     22  C   UNL     1       2.429   1.440   0.079  0.00  0.00    +0.005 A 
ATOM     23  C   UNL     1       1.240   2.143   0.112  0.00  0.00    +0.000 A 
ENDBRANCH  17  21
BRANCH  17  24
ATOM     24  C   UNL     1       3.870  -1.483   1.245  0.00  0.00    -0.031 A 
ATOM     25  C   UNL     1       3.012  -2.528   1.531  0.00  0.00    +0.005 A 
ATOM     26  C   UNL     1       3.158  -3.240   2.707  0.00  0.00    +0.000 A 
ATOM     27  C   UNL     1       4.161  -2.906   3.597  0.00  0.00    +0.000 A 
ATOM     28  C   UNL     1       5.020  -1.861   3.310  0.00  0.00    +0.000 A 
ATOM     29  C   UNL     1       4.877  -1.153   2.132  0.00  0.00    +0.005 A 
ENDBRANCH  17  24
ENDBRANCH   1  17
TORSDOF 5
