REMARK  Name = ZINC53112760
REMARK  6 active torsions:
REMARK  status: ('A' for Active; 'I' for Inactive)
REMARK    1  A    between atoms: C_5  and  S_8
REMARK    2  A    between atoms: C_6  and  N_7
REMARK    3  A    between atoms: S_8  and  N_11
REMARK    4  A    between atoms: N_11  and  C_12
REMARK    5  A    between atoms: C_12  and  C_18
REMARK    6  A    between atoms: C_18  and  O_19
REMARK                            x       y       z     vdW  Elec       q    Type
REMARK                         _______ _______ _______ _____ _____    ______ ____
ROOT
ATOM      1  S   UNL     1       1.228  -3.148  -0.051  0.00  0.00    +0.062 S 
ATOM      2  O   UNL     1       2.611  -3.449  -0.179  0.00  0.00    -0.153 OA
ATOM      3  O   UNL     1       0.630  -2.026  -0.686  0.00  0.00    -0.153 OA
ENDROOT
BRANCH   1   8
ATOM      4  C   UNL     1      -0.398  -6.828  -0.254  0.00  0.00    +0.044 A 
ATOM      5  C   UNL     1      -1.031  -6.807  -1.482  0.00  0.00    +0.044 A 
ATOM      6  C   UNL     1      -0.975  -5.672  -2.272  0.00  0.00    +0.042 A 
ATOM      7  C   UNL     1      -0.286  -4.554  -1.834  0.00  0.00    +0.070 A 
ATOM      8  C   UNL     1       0.350  -4.570  -0.607  0.00  0.00    +0.144 A 
ATOM      9  C   UNL     1       0.295  -5.708   0.188  0.00  0.00    +0.054 A 
ATOM     10 CL   UNL     1      -0.218  -3.133  -2.828  0.00  0.00    -0.081 Cl
ATOM     11 CL   UNL     1      -1.897  -8.206  -2.036  0.00  0.00    -0.083 Cl
BRANCH   9  12
ATOM     12  N   UNL     1       0.935  -5.726   1.429  0.00  0.00    -0.356 N 
ATOM     13  H   UNL     1       0.936  -6.536   1.963  0.00  0.00    +0.142 HD
ATOM     14  H   UNL     1       1.379  -4.929   1.758  0.00  0.00    +0.142 HD
ENDBRANCH   9  12
ENDBRANCH   1   8
BRANCH   1  15
ATOM     15  N   UNL     1       0.928  -2.989   1.570  0.00  0.00    -0.182 NA
ATOM     16  H   UNL     1       1.610  -3.232   2.216  0.00  0.00    +0.149 HD
BRANCH  15  17
ATOM     17  C   UNL     1      -0.368  -2.482   2.029  0.00  0.00    +0.063 C 
ATOM     18  C   UNL     1      -0.498  -1.004   1.657  0.00  0.00    +0.026 C 
ATOM     19  C   UNL     1       0.626  -0.209   2.325  0.00  0.00    +0.002 C 
ATOM     20  C   UNL     1       0.526  -0.363   3.844  0.00  0.00    +0.000 C 
ATOM     21  C   UNL     1       0.656  -1.842   4.216  0.00  0.00    +0.002 C 
ATOM     22  C   UNL     1      -0.468  -2.636   3.547  0.00  0.00    +0.026 C 
BRANCH  17  23
ATOM     23  C   UNL     1      -1.492  -3.277   1.360  0.00  0.00    +0.179 C 
BRANCH  23  24
ATOM     24  O   UNL     1      -1.497  -3.007  -0.043  0.00  0.00    -0.393 OA
ATOM     25  H   UNL     1      -2.185  -3.478  -0.532  0.00  0.00    +0.209 HD
ENDBRANCH  23  24
ENDBRANCH  17  23
ENDBRANCH  15  17
ENDBRANCH   1  15
TORSDOF 6
