REMARK  Name = ZINC10751411
REMARK  10 active torsions:
REMARK  status: ('A' for Active; 'I' for Inactive)
REMARK    1  A    between atoms: C_1  and  C_2
REMARK    2  A    between atoms: N_11  and  C_12
REMARK    3  A    between atoms: C_12  and  C_13
REMARK    4  A    between atoms: C_13  and  C_14
REMARK    5  A    between atoms: C_14  and  N_63
REMARK    6  A    between atoms: C_15  and  N_63
REMARK    7  A    between atoms: C_16  and  N_63
REMARK    8  A    between atoms: C_17  and  C_19
REMARK    9  A    between atoms: N_24  and  S_26
REMARK   10  A    between atoms: S_26  and  C_29
REMARK                            x       y       z     vdW  Elec       q    Type
REMARK                         _______ _______ _______ _____ _____    ______ ____
ROOT
ATOM      1  C   UNL     1      -7.761  -1.285  -3.372  0.00  0.00    +0.044 C 
ATOM      2  C   UNL     1      -6.620  -0.406  -2.931  0.00  0.00    -0.049 A 
ATOM      3  C   UNL     1      -6.633   0.953  -3.213  0.00  0.00    +0.005 A 
ATOM      4  C   UNL     1      -5.607   1.775  -2.824  0.00  0.00    +0.029 A 
ATOM      5  C   UNL     1      -4.495   1.258  -2.118  0.00  0.00    +0.080 A 
ATOM      6  C   UNL     1      -4.516  -0.129  -1.849  0.00  0.00    +0.041 A 
ATOM      7  C   UNL     1      -5.548  -0.945  -2.243  0.00  0.00    +0.020 A 
ATOM      8  S   UNL     1      -2.989  -0.368  -0.975  0.00  0.00    -0.052 S 
ATOM      9  C   UNL     1      -2.436   1.331  -1.020  0.00  0.00    +0.168 A 
ATOM     10  N   UNL     1      -3.414   1.926  -1.663  0.00  0.00    -0.224 NA
ATOM     11  N   UNL     1      -1.275   1.881  -0.502  0.00  0.00    -0.250 N 
ATOM     12  C   UNL     1      -0.321   1.080   0.012  0.00  0.00    +0.226 C 
ATOM     13  O   UNL     1       0.650   1.565   0.555  0.00  0.00    -0.275 OA
ENDROOT
BRANCH  12  14
ATOM     14  C   UNL     1      -0.463  -0.417  -0.082  0.00  0.00    +0.091 C 
ATOM     15  C   UNL     1      -1.335  -0.920   1.070  0.00  0.00    +0.015 C 
ATOM     16  C   UNL     1      -1.507  -2.437   0.957  0.00  0.00    +0.018 C 
ATOM     17  C   UNL     1      -0.136  -3.111   1.059  0.00  0.00    +0.109 C 
ATOM     18  N   UNL     1       0.755  -2.528   0.046  0.00  0.00    -0.175 NA
ATOM     19  C   UNL     1       0.921  -1.069   0.009  0.00  0.00    +0.122 C 
BRANCH  18  20
ATOM     20  S   UNL     1       1.556  -3.497  -1.032  0.00  0.00    +0.067 S 
ATOM     21  O   UNL     1       2.696  -2.767  -1.464  0.00  0.00    -0.152 OA
ATOM     22  O   UNL     1       1.655  -4.779  -0.429  0.00  0.00    -0.152 OA
BRANCH  20  23
ATOM     23  C   UNL     1       0.513  -3.681  -2.440  0.00  0.00    +0.143 A 
ATOM     24  C   UNL     1       0.448  -2.920  -3.560  0.00  0.00    +0.036 A 
ATOM     25  C   UNL     1      -0.457  -3.257  -4.548  0.00  0.00    +0.010 A 
ATOM     26  C   UNL     1      -1.254  -4.339  -4.369  0.00  0.00    +0.047 A 
ATOM     27  S   UNL     1      -0.727  -4.924  -2.767  0.00  0.00    -0.077 S 
ENDBRANCH  20  23
ENDBRANCH  18  20
ENDBRANCH  12  14
BRANCH  11  28
ATOM     28  C   UNL     1      -1.084   3.334  -0.513  0.00  0.00    +0.114 C 
BRANCH  28  29
ATOM     29  C   UNL     1      -0.515   3.763  -1.867  0.00  0.00    +0.001 C 
BRANCH  29  30
ATOM     30  C   UNL     1      -0.361   5.285  -1.896  0.00  0.00    -0.078 C 
BRANCH  30  33
ATOM     31  C   UNL     1      -0.768   5.422  -4.279  0.00  0.00    -0.097 C 
ATOM     32  C   UNL     1       0.568   7.115  -3.180  0.00  0.00    -0.097 C 
ATOM     33  N   UNL     1       0.209   5.682  -3.201  0.00  0.00    +0.376 N 
ATOM     34  H   UNL     1       1.055   5.128  -3.377  0.00  0.00    -0.083 HD
ENDBRANCH  30  33
ENDBRANCH  29  30
ENDBRANCH  28  29
ENDBRANCH  11  28
TORSDOF 7
