REMARK  Name = ZINC35337809
REMARK  7 active torsions:
REMARK  status: ('A' for Active; 'I' for Inactive)
REMARK    1  A    between atoms: C_1  and  C_2
REMARK    2  A    between atoms: C_3  and  C_33
REMARK    3  A    between atoms: C_4  and  C_13
REMARK    4  A    between atoms: C_17  and  N_19
REMARK    5  A    between atoms: N_22  and  C_23
REMARK    6  A    between atoms: C_26  and  C_29
REMARK    7  A    between atoms: N_35  and  C_36
REMARK                            x       y       z     vdW  Elec       q    Type
REMARK                         _______ _______ _______ _____ _____    ______ ____
ROOT
ATOM      1  C   UNL     1      -1.151  -2.413  -1.833  0.00  0.00    -0.021 A 
ATOM      2  C   UNL     1      -0.211  -2.115  -2.803  0.00  0.00    +0.006 A 
ATOM      3  C   UNL     1      -0.487  -2.357  -4.136  0.00  0.00    +0.002 A 
ATOM      4  C   UNL     1      -1.704  -2.898  -4.503  0.00  0.00    +0.023 A 
ATOM      5  C   UNL     1      -2.650  -3.199  -3.533  0.00  0.00    +0.035 A 
ATOM      6  C   UNL     1      -2.367  -2.960  -2.194  0.00  0.00    +0.029 A 
ENDROOT
BRANCH   1  10
ATOM      7  C   UNL     1      -0.232   1.644   0.093  0.00  0.00    +0.064 C 
ATOM      8  C   UNL     1      -0.008   0.171  -0.138  0.00  0.00    +0.025 C 
ATOM      9  C   UNL     1      -1.064  -0.685  -0.079  0.00  0.00    +0.058 C 
ATOM     10  C   UNL     1      -0.847  -2.147  -0.382  0.00  0.00    +0.143 C 
ATOM     11  N   UNL     1       0.559  -2.488  -0.099  0.00  0.00    -0.300 N 
ATOM     12  C   UNL     1       0.842  -3.792   0.489  0.00  0.00    +0.109 C 
ATOM     13  C   UNL     1       2.083  -4.452  -0.094  0.00  0.00    +0.030 C 
ATOM     14  C   UNL     1       3.320  -3.620   0.276  0.00  0.00    +0.078 C 
ATOM     15  S   UNL     1       3.202  -2.042  -0.622  0.00  0.00    -0.092 S 
ATOM     16  C   UNL     1       1.524  -1.562  -0.363  0.00  0.00    +0.135 C 
ATOM     17  N   UNL     1       1.219  -0.271  -0.401  0.00  0.00    -0.341 N 
ATOM     18  H   UNL     1       1.912   0.371  -0.623  0.00  0.00    +0.167 HD
BRANCH   9  19
ATOM     19  C   UNL     1      -2.345  -0.213   0.260  0.00  0.00    +0.244 C 
ATOM     20  O   UNL     1      -2.513   0.970   0.504  0.00  0.00    -0.270 OA
ATOM     21  N   UNL     1      -3.386  -1.067   0.316  0.00  0.00    -0.315 N 
ATOM     22  C   UNL     1      -4.720  -0.575   0.670  0.00  0.00    +0.128 C 
ATOM     23  H   UNL     1      -3.252  -2.008   0.122  0.00  0.00    +0.149 HD
ENDBRANCH   9  19
ENDBRANCH   1  10
BRANCH   5  24
ATOM     24  N   UNL     1      -3.883  -3.748  -3.902  0.00  0.00    -0.269 N 
ATOM     25  C   UNL     1      -3.962  -4.575  -4.963  0.00  0.00    +0.308 C 
ATOM     26  O   UNL     1      -2.950  -4.921  -5.541  0.00  0.00    -0.252 OA
ATOM     27  N   UNL     1      -5.163  -5.021  -5.382  0.00  0.00    -0.269 N 
ATOM     28  H   UNL     1      -4.681  -3.532  -3.394  0.00  0.00    +0.156 HD
ATOM     29  H   UNL     1      -5.975  -4.688  -4.969  0.00  0.00    +0.156 HD
BRANCH  27  30
ATOM     30  C   UNL     1      -5.238  -5.964  -6.413  0.00  0.00    +0.035 A 
ATOM     31  C   UNL     1      -4.247  -6.926  -6.550  0.00  0.00    +0.024 A 
ATOM     32  C   UNL     1      -4.324  -7.856  -7.568  0.00  0.00    +0.014 A 
ATOM     33  C   UNL     1      -5.387  -7.828  -8.452  0.00  0.00    +0.055 A 
ATOM     34  C   UNL     1      -6.377  -6.871  -8.318  0.00  0.00    +0.014 A 
ATOM     35  C   UNL     1      -6.308  -5.943  -7.298  0.00  0.00    +0.024 A 
BRANCH  33  36
ATOM     36  C   UNL     1      -5.468  -8.843  -9.563  0.00  0.00    +0.417 C 
ATOM     37  F   UNL     1      -6.170  -9.968  -9.117  0.00  0.00    -0.166 F 
ATOM     38  F   UNL     1      -6.133  -8.283 -10.659  0.00  0.00    -0.166 F 
ATOM     39  F   UNL     1      -4.176  -9.221  -9.944  0.00  0.00    -0.166 F 
ENDBRANCH  33  36
ENDBRANCH  27  30
ENDBRANCH   5  24
TORSDOF 5
