REMARK  Name = ZINC38596278
REMARK  13 active torsions:
REMARK  status: ('A' for Active; 'I' for Inactive)
REMARK    1  A    between atoms: C_1  and  C_2
REMARK    2  A    between atoms: C_2  and  O_3
REMARK    3  A    between atoms: O_3  and  C_4
REMARK    4  A    between atoms: C_7  and  C_37
REMARK    5  A    between atoms: C_9  and  S_10
REMARK    6  A    between atoms: S_10  and  N_13
REMARK    7  A    between atoms: N_13  and  C_14
REMARK    8  A    between atoms: C_14  and  C_16
REMARK    9  A    between atoms: C_14  and  C_17
REMARK   10  A    between atoms: C_17  and  C_19
REMARK   11  A    between atoms: C_17  and  N_24
REMARK   12  A    between atoms: N_27  and  C_30
REMARK   13  A    between atoms: C_30  and  C_31
REMARK                            x       y       z     vdW  Elec       q    Type
REMARK                         _______ _______ _______ _____ _____    ______ ____
ROOT
ATOM      1  C   UNL     1      -0.542   1.596  -4.337  0.00  0.00    +0.112 C 
ENDROOT
BRANCH   1   2
ATOM      2  N   UNL     1      -1.198   2.726  -3.666  0.00  0.00    -0.297 NA
ATOM      3  C   UNL     1      -2.226   3.325  -4.529  0.00  0.00    +0.066 C 
ATOM      4  C   UNL     1      -2.925   4.457  -3.773  0.00  0.00    -0.063 C 
ATOM      5  N   UNL     1      -1.936   5.471  -3.385  0.00  0.00    +0.384 N 
ATOM      6  C   UNL     1      -0.930   4.864  -2.504  0.00  0.00    -0.063 C 
ATOM      7  C   UNL     1      -0.214   3.735  -3.249  0.00  0.00    +0.066 C 
ATOM      8  H   UNL     1      -1.484   5.834  -4.211  0.00  0.00    -0.081 HD
BRANCH   5   9
ATOM      9  C   UNL     1      -2.610   6.566  -2.675  0.00  0.00    -0.043 C 
BRANCH   9  10
ATOM     10  C   UNL     1      -1.618   7.663  -2.385  0.00  0.00    -0.064 A 
ATOM     11  C   UNL     1      -0.895   7.646  -1.207  0.00  0.00    +0.002 A 
ATOM     12  C   UNL     1       0.015   8.652  -0.940  0.00  0.00    +0.000 A 
ATOM     13  C   UNL     1       0.203   9.674  -1.852  0.00  0.00    +0.000 A 
ATOM     14  C   UNL     1      -0.519   9.690  -3.031  0.00  0.00    +0.000 A 
ATOM     15  C   UNL     1      -1.426   8.682  -3.299  0.00  0.00    +0.002 A 
ENDBRANCH   9  10
ENDBRANCH   5   9
ENDBRANCH   1   2
BRANCH   1  16
ATOM     16  C   UNL     1      -1.576   0.768  -5.054  0.00  0.00    +0.008 A 
ATOM     17  C   UNL     1      -1.507   0.187  -6.277  0.00  0.00    +0.013 A 
ATOM     18  C   UNL     1      -2.591  -0.536  -6.739  0.00  0.00    +0.008 A 
ATOM     19  C   UNL     1      -3.691  -0.643  -5.955  0.00  0.00    +0.045 A 
ATOM     20  S   UNL     1      -3.209   0.290  -4.511  0.00  0.00    -0.100 S 
ENDBRANCH   1  16
BRANCH   1  21
ATOM     21  C   UNL     1       0.172   0.730  -3.296  0.00  0.00    +0.095 C 
ATOM     22  C   UNL     1      -0.856   0.153  -2.321  0.00  0.00    +0.027 C 
BRANCH  21  23
ATOM     23  N   UNL     1       0.874  -0.365  -3.971  0.00  0.00    -0.185 NA
ATOM     24  H   UNL     1       0.489  -0.772  -4.762  0.00  0.00    +0.148 HD
BRANCH  23  25
ATOM     25  S   UNL     1       2.324  -0.906  -3.381  0.00  0.00    +0.062 S 
ATOM     26  O   UNL     1       3.130   0.244  -3.166  0.00  0.00    -0.153 OA
ATOM     27  O   UNL     1       2.731  -1.975  -4.224  0.00  0.00    -0.153 OA
BRANCH  25  33
ATOM     28  C   UNL     1       1.570  -0.802  -0.755  0.00  0.00    +0.147 A 
ATOM     29  C   UNL     1       1.321  -1.358   0.492  0.00  0.00    +0.048 A 
ATOM     30  C   UNL     1       1.517  -2.710   0.696  0.00  0.00    +0.007 A 
ATOM     31  C   UNL     1       1.962  -3.509  -0.341  0.00  0.00    -0.048 A 
ATOM     32  C   UNL     1       2.212  -2.958  -1.584  0.00  0.00    +0.035 A 
ATOM     33  C   UNL     1       2.012  -1.607  -1.795  0.00  0.00    +0.147 A 
ATOM     34  C   UNL     1       2.176  -4.984  -0.116  0.00  0.00    +0.044 C 
BRANCH  28  35
ATOM     35  O   UNL     1       1.377   0.528  -0.958  0.00  0.00    -0.490 OA
BRANCH  35  37
ATOM     36  C   UNL     1       0.763   2.758  -0.260  0.00  0.00    +0.048 C 
ATOM     37  C   UNL     1       0.922   1.295   0.158  0.00  0.00    +0.226 C 
ENDBRANCH  35  37
ENDBRANCH  28  35
ENDBRANCH  25  33
ENDBRANCH  23  25
ENDBRANCH  21  23
ENDBRANCH   1  21
TORSDOF 10
