REMARK  Name = ZINC39723885
REMARK  7 active torsions:
REMARK  status: ('A' for Active; 'I' for Inactive)
REMARK    1  A    between atoms: C_3  and  C_10
REMARK    2  A    between atoms: C_5  and  N_7
REMARK    3  A    between atoms: C_10  and  S_11
REMARK    4  A    between atoms: S_11  and  C_12
REMARK    5  A    between atoms: C_18  and  C_20
REMARK    6  A    between atoms: C_20  and  O_21
REMARK    7  A    between atoms: O_21  and  C_22
REMARK                            x       y       z     vdW  Elec       q    Type
REMARK                         _______ _______ _______ _____ _____    ______ ____
ROOT
ATOM      1  C   UNL     1       5.714   3.382   1.506  0.00  0.00    +0.160 A 
ATOM      2  N   UNL     1       6.345   3.776   0.410  0.00  0.00    -0.133 NA
ATOM      3  N   UNL     1       7.429   4.420   0.460  0.00  0.00    -0.125 NA
ATOM      4  C   UNL     1       8.002   4.741   1.608  0.00  0.00    +0.189 A 
ATOM      5  S   UNL     1       6.823   4.029   2.753  0.00  0.00    -0.024 S 
ATOM      6  N   UNL     1       9.181   5.438   1.856  0.00  0.00    -0.260 N 
ATOM      7  C   UNL     1       9.922   5.896   0.828  0.00  0.00    +0.256 C 
ATOM      8  O   UNL     1       9.561   5.702  -0.314  0.00  0.00    -0.272 OA
ATOM      9  H   UNL     1       9.470   5.593   2.769  0.00  0.00    +0.157 HD
ENDROOT
BRANCH   1  10
ATOM     10  S   UNL     1       4.208   2.483   1.684  0.00  0.00    -0.092 S 
BRANCH  10  11
ATOM     11  C   UNL     1       3.672   2.182  -0.022  0.00  0.00    +0.111 C 
BRANCH  11  14
ATOM     12  C   UNL     1      -0.017   1.378   0.010  0.00  0.00    +0.003 A 
ATOM     13  C   UNL     1       1.171   2.085   0.002  0.00  0.00    +0.004 A 
ATOM     14  C   UNL     1       2.377   1.411  -0.013  0.00  0.00    -0.035 A 
ATOM     15  C   UNL     1       2.396   0.028  -0.020  0.00  0.00    +0.037 A 
ATOM     16  C   UNL     1       1.209  -0.679  -0.012  0.00  0.00    +0.126 A 
ATOM     17  C   UNL     1       0.002  -0.004   0.002  0.00  0.00    +0.033 A 
BRANCH  16  18
ATOM     18  N   UNL     1       1.229  -2.159  -0.020  0.00  0.00    +0.056 N 
ATOM     19  O   UNL     1       2.284  -2.749  -0.035  0.00  0.00    -0.126 OA
ATOM     20  O   UNL     1       0.190  -2.778  -0.013  0.00  0.00    -0.126 OA
ENDBRANCH  16  18
ENDBRANCH  11  14
ENDBRANCH  10  11
ENDBRANCH   1  10
BRANCH   7  21
ATOM     21  C   UNL     1      11.199   6.651   1.096  0.00  0.00    +0.325 C 
BRANCH  21  22
ATOM     22  O   UNL     1      11.798   7.029  -0.145  0.00  0.00    -0.481 OA
BRANCH  22  23
ATOM     23  C   UNL     1      12.966   7.722  -0.080  0.00  0.00    +0.140 A 
ATOM     24  C   UNL     1      13.526   8.026   1.152  0.00  0.00    +0.048 A 
ATOM     25  C   UNL     1      14.713   8.730   1.216  0.00  0.00    +0.023 A 
ATOM     26  C   UNL     1      15.343   9.133   0.052  0.00  0.00    +0.043 A 
ATOM     27  C   UNL     1      14.788   8.831  -1.179  0.00  0.00    +0.043 A 
ATOM     28  C   UNL     1      13.603   8.121  -1.247  0.00  0.00    +0.084 A 
ATOM     29 CL   UNL     1      12.909   7.735  -2.791  0.00  0.00    -0.080 Cl
ATOM     30 CL   UNL     1      16.834  10.018   0.135  0.00  0.00    -0.083 Cl
ENDBRANCH  22  23
ENDBRANCH  21  22
ENDBRANCH   7  21
TORSDOF 7
