REMARK  Name = ZINC13065043
REMARK  11 active torsions:
REMARK  status: ('A' for Active; 'I' for Inactive)
REMARK    1  A    between atoms: C_1  and  C_2
REMARK    2  A    between atoms: C_2  and  C_3
REMARK    3  A    between atoms: C_3  and  C_5
REMARK    4  A    between atoms: C_3  and  N_75
REMARK    5  A    between atoms: N_9  and  C_10
REMARK    6  A    between atoms: C_16  and  C_17
REMARK    7  A    between atoms: C_16  and  N_75
REMARK    8  A    between atoms: C_26  and  C_27
REMARK    9  A    between atoms: C_26  and  N_75
REMARK   10  A    between atoms: C_32  and  C_40
REMARK   11  A    between atoms: C_33  and  C_39
REMARK                            x       y       z     vdW  Elec       q    Type
REMARK                         _______ _______ _______ _____ _____    ______ ____
ROOT
ATOM      1  N   UNL     1      -1.050   1.634  -1.438  0.00  0.00    +0.392 N 
ATOM      2  H   UNL     1      -2.062   1.509  -1.562  0.00  0.00    -0.080 HD
ENDROOT
BRANCH   1   3
ATOM      3  C   UNL     1      -0.356   1.183  -2.662  0.00  0.00    +0.003 C 
BRANCH   3   4
ATOM      4  C   UNL     1      -1.110   0.012  -3.238  0.00  0.00    +0.138 A 
ATOM      5  N   UNL     1      -1.633  -0.988  -2.571  0.00  0.00    -0.115 NA
ATOM      6  N   UNL     1      -2.194  -1.781  -3.417  0.00  0.00    -0.023 NA
ATOM      7  N   UNL     1      -2.037  -1.317  -4.607  0.00  0.00    -0.044 NA
ATOM      8  N   UNL     1      -1.373  -0.212  -4.539  0.00  0.00    -0.228 N 
BRANCH   8   9
ATOM      9  C   UNL     1      -0.981   0.638  -5.666  0.00  0.00    +0.111 C 
ATOM     10  C   UNL     1      -2.233   1.212  -6.332  0.00  0.00    +0.027 C 
ATOM     11  C   UNL     1      -1.823   2.100  -7.509  0.00  0.00    +0.002 C 
ATOM     12  C   UNL     1      -1.039   1.268  -8.526  0.00  0.00    +0.000 C 
ATOM     13  C   UNL     1       0.213   0.694  -7.860  0.00  0.00    +0.002 C 
ATOM     14  C   UNL     1      -0.197  -0.194  -6.683  0.00  0.00    +0.027 C 
ENDBRANCH   8   9
ENDBRANCH   3   4
BRANCH   3  16
ATOM     15  C   UNL     1       1.881   1.975  -1.879  0.00  0.00    +0.002 C 
ATOM     16  C   UNL     1       1.077   0.756  -2.337  0.00  0.00    -0.011 C 
ENDBRANCH   3  16
ENDBRANCH   1   3
BRANCH   1  17
ATOM     17  C   UNL     1      -0.770   3.065  -1.197  0.00  0.00    -0.041 C 
BRANCH  17  18
ATOM     18  C   UNL     1      -1.492   3.882  -2.237  0.00  0.00    -0.060 A 
ATOM     19  C   UNL     1      -0.822   4.300  -3.373  0.00  0.00    +0.005 A 
ATOM     20  C   UNL     1      -1.482   5.045  -4.333  0.00  0.00    +0.050 A 
ATOM     21  C   UNL     1      -2.812   5.385  -4.153  0.00  0.00    +0.166 A 
ATOM     22  C   UNL     1      -3.485   4.969  -3.007  0.00  0.00    +0.166 A 
ATOM     23  C   UNL     1      -2.820   4.218  -2.052  0.00  0.00    +0.051 A 
ATOM     24  O   UNL     1      -4.770   5.427  -3.065  0.00  0.00    -0.453 OA
ATOM     25  C   UNL     1      -4.763   6.469  -4.059  0.00  0.00    +0.466 C 
ATOM     26  O   UNL     1      -3.676   6.103  -4.929  0.00  0.00    -0.453 OA
ENDBRANCH  17  18
ENDBRANCH   1  17
BRANCH   1  27
ATOM     27  C   UNL     1      -0.606   0.831  -0.279  0.00  0.00    -0.036 C 
BRANCH  27  28
ATOM     28  C   UNL     1      -1.543   1.083   0.874  0.00  0.00    +0.001 A 
ATOM     29  C   UNL     1      -2.599   0.257   1.079  0.00  0.00    +0.017 A 
ATOM     30  C   UNL     1      -3.488   0.526   2.210  0.00  0.00    -0.001 A 
ATOM     31  C   UNL     1      -4.590  -0.294   2.477  0.00  0.00    +0.010 A 
ATOM     32  C   UNL     1      -5.403  -0.012   3.537  0.00  0.00    +0.004 A 
ATOM     33  C   UNL     1      -5.146   1.081   4.354  0.00  0.00    -0.046 A 
ATOM     34  C   UNL     1      -4.066   1.902   4.111  0.00  0.00    -0.024 A 
ATOM     35  C   UNL     1      -3.224   1.635   3.037  0.00  0.00    +0.052 A 
ATOM     36  N   UNL     1      -2.136   2.439   2.771  0.00  0.00    -0.322 N 
ATOM     37  H   UNL     1      -1.955   3.203   3.341  0.00  0.00    +0.169 HD
ATOM     38  C   UNL     1      -1.322   2.181   1.732  0.00  0.00    +0.251 A 
ATOM     39  O   UNL     1      -0.370   2.913   1.527  0.00  0.00    -0.268 OA
ATOM     40  C   UNL     1      -3.798   3.084   5.007  0.00  0.00    +0.046 C 
ATOM     41  C   UNL     1      -6.056   1.372   5.519  0.00  0.00    +0.044 C 
ENDBRANCH  27  28
ENDBRANCH   1  27
TORSDOF 8
