REMARK  Name = ZINC05273635
REMARK  9 active torsions:
REMARK  status: ('A' for Active; 'I' for Inactive)
REMARK    1  A    between atoms: C_3  and  O_35
REMARK    2  A    between atoms: C_6  and  C_7
REMARK    3  A    between atoms: C_16  and  O_34
REMARK    4  A    between atoms: C_17  and  C_18
REMARK    5  A    between atoms: C_20  and  O_33
REMARK    6  A    between atoms: C_22  and  O_32
REMARK    7  A    between atoms: C_24  and  O_31
REMARK    8  A    between atoms: C_26  and  C_29
REMARK    9  A    between atoms: C_29  and  O_30
REMARK                            x       y       z     vdW  Elec       q    Type
REMARK                         _______ _______ _______ _____ _____    ______ ____
ROOT
ATOM      1  C   UNL     1      -1.383  -0.451   0.253  0.00  0.00    +0.064 A 
ATOM      2  C   UNL     1      -2.203  -0.443  -0.831  0.00  0.00    +0.208 A 
ATOM      3  O   UNL     1      -3.322  -1.169  -0.895  0.00  0.00    -0.462 OA
ATOM      4  C   UNL     1      -3.877  -1.714   0.204  0.00  0.00    +0.148 A 
ATOM      5  C   UNL     1      -3.142  -1.812   1.399  0.00  0.00    +0.065 A 
ATOM      6  C   UNL     1      -1.760  -1.290   1.406  0.00  0.00    +0.200 A 
ATOM      7  O   UNL     1      -0.980  -1.535   2.309  0.00  0.00    -0.286 OA
ATOM      8  C   UNL     1      -3.709  -2.385   2.536  0.00  0.00    +0.019 A 
ATOM      9  C   UNL     1      -4.993  -2.851   2.490  0.00  0.00    +0.047 A 
ATOM     10  C   UNL     1      -5.734  -2.753   1.314  0.00  0.00    +0.126 A 
ATOM     11  C   UNL     1      -5.182  -2.189   0.176  0.00  0.00    +0.068 A 
ENDROOT
BRANCH   1  17
ATOM     12  C   UNL     1      -0.212   1.750   0.244  0.00  0.00    +0.012 A 
ATOM     13  C   UNL     1       0.945   2.500   0.264  0.00  0.00    +0.046 A 
ATOM     14  C   UNL     1       2.181   1.870   0.312  0.00  0.00    +0.117 A 
ATOM     15  C   UNL     1       2.256   0.484   0.340  0.00  0.00    +0.046 A 
ATOM     16  C   UNL     1       1.103  -0.271   0.320  0.00  0.00    +0.012 A 
ATOM     17  C   UNL     1      -0.140   0.359   0.273  0.00  0.00    -0.011 A 
BRANCH  14  18
ATOM     18  O   UNL     1       3.320   2.611   0.331  0.00  0.00    -0.507 OA
ATOM     19  H   UNL     1       3.624   2.843   1.219  0.00  0.00    +0.292 HD
ENDBRANCH  14  18
ENDBRANCH   1  17
BRANCH  11  20
ATOM     20  C   UNL     1      -5.995  -2.091  -1.089  0.00  0.00    +0.187 C 
ATOM     21  C   UNL     1      -6.095  -3.473  -1.740  0.00  0.00    +0.179 C 
ATOM     22  C   UNL     1      -6.972  -3.376  -2.992  0.00  0.00    +0.177 C 
ATOM     23  C   UNL     1      -8.344  -2.818  -2.599  0.00  0.00    +0.176 C 
ATOM     24  C   UNL     1      -8.157  -1.462  -1.914  0.00  0.00    +0.175 C 
ATOM     25  O   UNL     1      -7.306  -1.617  -0.776  0.00  0.00    -0.361 OA
BRANCH  23  26
ATOM     26  O   UNL     1      -9.147  -2.657  -3.770  0.00  0.00    -0.386 OA
ATOM     27  H   UNL     1      -9.302  -3.478  -4.256  0.00  0.00    +0.210 HD
ENDBRANCH  23  26
BRANCH  22  28
ATOM     28  O   UNL     1      -6.355  -2.506  -3.942  0.00  0.00    -0.386 OA
ATOM     29  H   UNL     1      -6.857  -2.399  -4.762  0.00  0.00    +0.210 HD
ENDBRANCH  22  28
BRANCH  21  30
ATOM     30  O   UNL     1      -6.678  -4.395  -0.817  0.00  0.00    -0.386 OA
ATOM     31  H   UNL     1      -6.771  -5.293  -1.164  0.00  0.00    +0.210 HD
ENDBRANCH  21  30
BRANCH  24  32
ATOM     32  C   UNL     1      -7.520  -0.478  -2.897  0.00  0.00    +0.190 C 
BRANCH  32  33
ATOM     33  O   UNL     1      -7.486   0.826  -2.312  0.00  0.00    -0.392 OA
ATOM     34  H   UNL     1      -7.093   1.502  -2.881  0.00  0.00    +0.210 HD
ENDBRANCH  32  33
ENDBRANCH  24  32
ENDBRANCH  11  20
BRANCH  10  35
ATOM     35  O   UNL     1      -7.009  -3.217   1.284  0.00  0.00    -0.506 OA
ATOM     36  H   UNL     1      -7.673  -2.557   1.526  0.00  0.00    +0.292 HD
ENDBRANCH  10  35
TORSDOF 9
