REMARK  Name = ZINC17016403
REMARK  9 active torsions:
REMARK  status: ('A' for Active; 'I' for Inactive)
REMARK    1  A    between atoms: C_1  and  C_2
REMARK    2  A    between atoms: C_2  and  C_4
REMARK    3  A    between atoms: C_2  and  S_19
REMARK    4  A    between atoms: N_6  and  C_7
REMARK    5  A    between atoms: C_8  and  C_17
REMARK    6  A    between atoms: S_19  and  C_20
REMARK    7  A    between atoms: C_23  and  S_25
REMARK    8  A    between atoms: S_25  and  C_26
REMARK    9  A    between atoms: C_26  and  C_27
REMARK                            x       y       z     vdW  Elec       q    Type
REMARK                         _______ _______ _______ _____ _____    ______ ____
ROOT
ATOM      1  C   UNL     1       1.401   1.607  -0.003  0.00  0.00    +0.231 C 
ATOM      2  O   UNL     1       1.698   2.569   0.675  0.00  0.00    -0.274 OA
ATOM      3  N   UNL     1       2.336   1.006  -0.765  0.00  0.00    -0.278 N 
ATOM      4  H   UNL     1       2.098   0.237  -1.307  0.00  0.00    +0.155 HD
ENDROOT
BRANCH   3   5
ATOM      5  C   UNL     1       3.638   1.486  -0.775  0.00  0.00    +0.090 A 
ATOM      6  C   UNL     1       4.726   1.008  -1.485  0.00  0.00    +0.084 A 
ATOM      7  C   UNL     1       5.998   1.698  -1.322  0.00  0.00    -0.018 A 
ATOM      8  C   UNL     1       5.973   2.745  -0.469  0.00  0.00    -0.004 A 
ATOM      9  S   UNL     1       4.295   2.834   0.092  0.00  0.00    -0.077 S 
ATOM     10  C   UNL     1       7.110   3.638  -0.081  0.00  0.00    +0.043 C 
ATOM     11  C   UNL     1       7.834   4.113  -1.347  0.00  0.00    +0.005 C 
ATOM     12  C   UNL     1       8.931   3.107  -1.684  0.00  0.00    +0.001 C 
ATOM     13  C   UNL     1       8.494   1.700  -1.283  0.00  0.00    +0.005 C 
ATOM     14  C   UNL     1       7.258   1.279  -2.070  0.00  0.00    +0.037 C 
BRANCH   6  15
ATOM     15  C   UNL     1       4.605  -0.126  -2.351  0.00  0.00    +0.102 C 
ATOM     16  N   UNL     1       4.509  -1.025  -3.038  0.00  0.00    -0.191 NA
ENDBRANCH   6  15
ENDBRANCH   3   5
BRANCH   1  18
ATOM     17  C   UNL     1      -0.753   1.593  -1.232  0.00  0.00    +0.029 C 
ATOM     18  C   UNL     1      -0.013   1.086   0.008  0.00  0.00    +0.136 C 
BRANCH  18  19
ATOM     19  S   UNL     1      -0.862   1.671   1.500  0.00  0.00    -0.084 S 
BRANCH  19  20
ATOM     20  C   UNL     1      -2.429   0.867   1.442  0.00  0.00    +0.160 A 
ATOM     21  N   UNL     1      -2.909   0.035   0.537  0.00  0.00    -0.134 NA
ATOM     22  N   UNL     1      -4.173  -0.486   0.689  0.00  0.00    -0.134 NA
ATOM     23  C   UNL     1      -4.903  -0.144   1.733  0.00  0.00    +0.160 A 
ATOM     24  S   UNL     1      -3.796   0.968   2.588  0.00  0.00    -0.033 S 
BRANCH  23  25
ATOM     25  S   UNL     1      -6.534  -0.647   2.168  0.00  0.00    -0.088 S 
BRANCH  25  26
ATOM     26  C   UNL     1      -7.016  -1.776   0.832  0.00  0.00    +0.171 C 
BRANCH  26  27
ATOM     27  C   UNL     1      -8.411  -2.287   1.084  0.00  0.00    +0.221 C 
ATOM     28  O   UNL     1      -9.021  -1.925   2.068  0.00  0.00    -0.275 OA
ATOM     29  N   UNL     1      -8.982  -3.146   0.216  0.00  0.00    -0.329 N 
ATOM     30  H   UNL     1      -8.494  -3.435  -0.571  0.00  0.00    +0.145 HD
ATOM     31  H   UNL     1      -9.880  -3.474   0.378  0.00  0.00    +0.145 HD
ENDBRANCH  26  27
ENDBRANCH  25  26
ENDBRANCH  23  25
ENDBRANCH  19  20
ENDBRANCH  18  19
ENDBRANCH   1  18
TORSDOF 8
