REMARK  Name = ZINC55414051
REMARK  7 active torsions:
REMARK  status: ('A' for Active; 'I' for Inactive)
REMARK    1  A    between atoms: C_1  and  C_2
REMARK    2  A    between atoms: C_11  and  C_12
REMARK    3  A    between atoms: C_12  and  C_13
REMARK    4  A    between atoms: C_13  and  N_14
REMARK    5  A    between atoms: C_15  and  C_17
REMARK    6  A    between atoms: N_22  and  C_24
REMARK    7  A    between atoms: C_24  and  C_25
REMARK                            x       y       z     vdW  Elec       q    Type
REMARK                         _______ _______ _______ _____ _____    ______ ____
ROOT
ATOM      1  N   UNL     1       1.538  -5.853   3.603  0.00  0.00    -0.315 N 
ATOM      2  C   UNL     1       2.710  -6.506   3.725  0.00  0.00    +0.214 C 
ATOM      3  O   UNL     1       3.747  -5.951   3.432  0.00  0.00    -0.276 OA
ATOM      4  H   UNL     1       0.708  -6.298   3.837  0.00  0.00    +0.149 HD
ENDROOT
BRANCH   2   5
ATOM      5  C   UNL     1       2.732  -7.928   4.225  0.00  0.00    +0.058 C 
ATOM      6  C   UNL     1       2.131  -7.984   5.633  0.00  0.00    +0.009 C 
ATOM      7  C   UNL     1       2.230  -9.418   6.162  0.00  0.00    -0.018 C 
ATOM      8  C   UNL     1       3.693  -9.866   6.137  0.00  0.00    -0.078 C 
ATOM      9  N   UNL     1       4.201  -9.815   4.761  0.00  0.00    +0.386 N 
ATOM     10  C   UNL     1       4.176  -8.431   4.271  0.00  0.00    -0.065 C 
ATOM     11  H   UNL     1       3.621 -10.390   4.168  0.00  0.00    -0.081 HD
BRANCH   9  12
ATOM     12  C   UNL     1       5.580 -10.319   4.730  0.00  0.00    +0.018 C 
BRANCH  12  13
ATOM     13  C   UNL     1       5.590 -11.779   5.105  0.00  0.00    +0.194 C 
ATOM     14  O   UNL     1       4.550 -12.343   5.372  0.00  0.00    -0.278 OA
ATOM     15  N   UNL     1       6.754 -12.457   5.145  0.00  0.00    -0.331 N 
ATOM     16  H   UNL     1       7.585 -12.005   4.931  0.00  0.00    +0.145 HD
ATOM     17  H   UNL     1       6.760 -13.396   5.386  0.00  0.00    +0.145 HD
ENDBRANCH  12  13
ENDBRANCH   9  12
ENDBRANCH   2   5
BRANCH   1  18
ATOM     18  C   UNL     1       1.516  -4.471   3.118  0.00  0.00    +0.109 C 
BRANCH  18  19
ATOM     19  C   UNL     1       0.072  -3.968   3.074  0.00  0.00    +0.056 C 
BRANCH  19  30
ATOM     20  C   UNL     1      -0.018   1.503   0.010  0.00  0.00    +0.046 C 
ATOM     21  C   UNL     1       0.002  -0.004   0.002  0.00  0.00    -0.027 A 
ATOM     22  C   UNL     1       0.006  -0.689  -1.194  0.00  0.00    +0.005 A 
ATOM     23  C   UNL     1       0.025  -2.076  -1.215  0.00  0.00    +0.001 A 
ATOM     24  C   UNL     1       0.040  -2.788  -0.048  0.00  0.00    +0.010 A 
ATOM     25  C   UNL     1       0.037  -2.115   1.174  0.00  0.00    +0.003 A 
ATOM     26  C   UNL     1       0.023  -0.708   1.201  0.00  0.00    +0.050 A 
ATOM     27  N   UNL     1       0.029  -0.327   2.524  0.00  0.00    -0.360 N 
ATOM     28  H   UNL     1       0.020   0.590   2.840  0.00  0.00    +0.165 HD
ATOM     29  C   UNL     1       0.052  -1.435   3.327  0.00  0.00    +0.087 A 
ATOM     30  C   UNL     1       0.050  -2.546   2.574  0.00  0.00    -0.021 A 
ENDBRANCH  19  30
ENDBRANCH  18  19
ENDBRANCH   1  18
TORSDOF 6
