REMARK  Name = ZINC23095773
REMARK  12 active torsions:
REMARK  status: ('A' for Active; 'I' for Inactive)
REMARK    1  A    between atoms: C_1  and  C_2
REMARK    2  A    between atoms: C_2  and  N_3
REMARK    3  A    between atoms: N_6  and  C_9
REMARK    4  A    between atoms: C_9  and  C_10
REMARK    5  A    between atoms: N_12  and  C_13
REMARK    6  A    between atoms: C_14  and  C_22
REMARK    7  A    between atoms: C_15  and  C_21
REMARK    8  A    between atoms: C_16  and  C_18
REMARK    9  A    between atoms: C_22  and  O_24
REMARK   10  A    between atoms: O_24  and  C_25
REMARK   11  A    between atoms: C_25  and  C_26
REMARK   12  A    between atoms: C_25  and  C_27
REMARK                            x       y       z     vdW  Elec       q    Type
REMARK                         _______ _______ _______ _____ _____    ______ ____
ROOT
ATOM      1  C   UNL     1      -5.892  -6.232  -1.355  0.00  0.00    +0.087 A 
ATOM      2  C   UNL     1      -6.960  -7.129  -1.421  0.00  0.00    +0.091 A 
ATOM      3  C   UNL     1      -6.659  -8.481  -1.512  0.00  0.00    -0.015 A 
ATOM      4  C   UNL     1      -5.330  -8.807  -1.529  0.00  0.00    +0.079 A 
ATOM      5  S   UNL     1      -4.534  -7.217  -1.424  0.00  0.00    -0.068 S 
ATOM      6  C   UNL     1      -7.737  -9.532  -1.587  0.00  0.00    +0.046 C 
ENDROOT
BRANCH   4   7
ATOM      7  C   UNL     1      -4.715 -10.133  -1.617  0.00  0.00    +0.248 C 
ATOM      8  O   UNL     1      -5.416 -11.126  -1.688  0.00  0.00    -0.270 OA
ATOM      9  N   UNL     1      -3.373 -10.255  -1.620  0.00  0.00    -0.325 N 
ATOM     10  H   UNL     1      -2.814  -9.464  -1.564  0.00  0.00    +0.145 HD
ATOM     11  H   UNL     1      -2.965 -11.133  -1.678  0.00  0.00    +0.145 HD
ENDBRANCH   4   7
BRANCH   1  14
ATOM     12  C   UNL     1      -4.799  -4.141  -1.214  0.00  0.00    +0.232 C 
ATOM     13  O   UNL     1      -3.728  -4.708  -1.254  0.00  0.00    -0.274 OA
ATOM     14  N   UNL     1      -5.941  -4.854  -1.261  0.00  0.00    -0.278 N 
ATOM     15  H   UNL     1      -6.798  -4.401  -1.229  0.00  0.00    +0.155 HD
BRANCH  12  16
ATOM     16  C   UNL     1      -4.853  -2.639  -1.111  0.00  0.00    +0.180 C 
BRANCH  16  20
ATOM     17  N   UNL     1      -1.376  -0.512   0.012  0.00  0.00    +0.381 N 
ATOM     18  C   UNL     1      -2.050  -0.124  -1.234  0.00  0.00    -0.063 C 
ATOM     19  C   UNL     1      -3.492  -0.638  -1.215  0.00  0.00    +0.066 C 
ATOM     20  N   UNL     1      -3.486  -2.101  -1.076  0.00  0.00    -0.298 NA
ATOM     21  C   UNL     1      -2.792  -2.506   0.155  0.00  0.00    +0.066 C 
ATOM     22  C   UNL     1      -1.357  -1.977   0.125  0.00  0.00    -0.063 C 
ATOM     23  H   UNL     1      -1.873  -0.121   0.799  0.00  0.00    -0.082 HD
BRANCH  17  25
ATOM     24  C   UNL     1      -0.019   1.526   0.010  0.00  0.00    -0.017 C 
ATOM     25  C   UNL     1       0.002  -0.004   0.002  0.00  0.00    -0.082 C 
ENDBRANCH  17  25
ENDBRANCH  16  20
ENDBRANCH  12  16
ENDBRANCH   1  14
BRANCH   2  26
ATOM     26  C   UNL     1      -8.350  -6.660  -1.393  0.00  0.00    +0.342 C 
ATOM     27  O   UNL     1      -8.922  -6.393  -2.433  0.00  0.00    -0.245 OA
BRANCH  26  28
ATOM     28  O   UNL     1      -8.993  -6.523  -0.216  0.00  0.00    -0.458 OA
BRANCH  28  29
ATOM     29  C   UNL     1     -10.344  -6.062  -0.264  0.00  0.00    +0.171 C 
ATOM     30  C   UNL     1     -11.124  -6.643   0.917  0.00  0.00    +0.052 C 
ATOM     31  C   UNL     1     -10.364  -4.534  -0.187  0.00  0.00    +0.052 C 
ENDBRANCH  28  29
ENDBRANCH  26  28
ENDBRANCH   2  26
TORSDOF 8
