REMARK  Name = ZINC25384372
REMARK  11 active torsions:
REMARK  status: ('A' for Active; 'I' for Inactive)
REMARK    1  A    between atoms: C_1  and  C_2
REMARK    2  A    between atoms: C_2  and  C_3
REMARK    3  A    between atoms: C_2  and  C_4
REMARK    4  A    between atoms: C_4  and  C_6
REMARK    5  A    between atoms: C_4  and  N_22
REMARK    6  A    between atoms: N_8  and  C_9
REMARK    7  A    between atoms: C_9  and  C_10
REMARK    8  A    between atoms: C_10  and  C_12
REMARK    9  A    between atoms: C_10  and  N_17
REMARK   10  A    between atoms: N_22  and  S_23
REMARK   11  A    between atoms: S_23  and  C_26
REMARK                            x       y       z     vdW  Elec       q    Type
REMARK                         _______ _______ _______ _____ _____    ______ ____
ROOT
ATOM      1  C   UNL     1      -0.055   3.543   2.274  0.00  0.00    +0.165 C 
ENDROOT
BRANCH   1   2
ATOM      2  C   UNL     1      -0.339   2.835   3.573  0.00  0.00    +0.232 C 
ATOM      3  O   UNL     1      -0.954   1.789   3.572  0.00  0.00    -0.274 OA
ATOM      4  N   UNL     1       0.090   3.363   4.737  0.00  0.00    -0.315 N 
ATOM      5  H   UNL     1       0.582   4.347   4.746  0.00  0.00    +0.149 HD
BRANCH   4   6
ATOM      6  C   UNL     1      -0.098   2.626   5.989  0.00  0.00    +0.094 C 
BRANCH   6   7
ATOM      7  C   UNL     1       0.410   3.471   7.159  0.00  0.00    -0.013 C 
BRANCH   7   8
ATOM      8  N   UNL     1      -0.396   4.694   7.266  0.00  0.00    +0.386 N 
ATOM      9  C   UNL     1      -0.105   5.414   8.532  0.00  0.00    -0.078 C 
ATOM     10  C   UNL     1      -0.597   6.854   8.242  0.00  0.00    -0.020 C 
ATOM     11  C   UNL     1      -0.207   7.061   6.761  0.00  0.00    -0.020 C 
ATOM     12  C   UNL     1      -0.070   5.641   6.179  0.00  0.00    -0.078 C 
ATOM     13  H   UNL     1      -1.445   4.366   7.214  0.00  0.00    -0.081 HD
ENDBRANCH   7   8
BRANCH   7  14
ATOM     14  C   UNL     1       0.297   2.680   8.437  0.00  0.00    -0.022 A 
ATOM     15  C   UNL     1       1.276   2.096   9.169  0.00  0.00    +0.009 A 
ATOM     16  C   UNL     1       0.935   1.413  10.321  0.00  0.00    +0.008 A 
ATOM     17  C   UNL     1      -0.369   1.348  10.685  0.00  0.00    +0.045 A 
ATOM     18  S   UNL     1      -1.163   2.275   9.382  0.00  0.00    -0.103 S 
ENDBRANCH   7  14
ENDBRANCH   6   7
ENDBRANCH   4   6
ENDBRANCH   1   2
BRANCH   1  20
ATOM     19  C   UNL     1      -0.518   5.602   0.936  0.00  0.00    +0.009 C 
ATOM     20  C   UNL     1      -0.902   4.815   2.191  0.00  0.00    +0.010 C 
ATOM     21  C   UNL     1      -2.383   4.437   2.122  0.00  0.00    +0.009 C 
ENDBRANCH   1  20
BRANCH   1  22
ATOM     22  N   UNL     1      -0.389   2.660   1.153  0.00  0.00    -0.178 NA
ATOM     23  H   UNL     1      -1.373   2.171   1.113  0.00  0.00    +0.149 HD
BRANCH  22  24
ATOM     24  S   UNL     1       0.788   2.201   0.083  0.00  0.00    +0.059 S 
ATOM     25  O   UNL     1       1.456   3.389  -0.321  0.00  0.00    -0.153 OA
ATOM     26  O   UNL     1       0.171   1.321  -0.847  0.00  0.00    -0.153 OA
BRANCH  24  27
ATOM     27  C   UNL     1       1.964   1.243   0.980  0.00  0.00    +0.106 A 
ATOM     28  C   UNL     1       3.051   1.877   1.580  0.00  0.00    +0.029 A 
ATOM     29  C   UNL     1       3.979   1.165   2.276  0.00  0.00    +0.010 A 
ATOM     30  C   UNL     1       3.844  -0.229   2.391  0.00  0.00    -0.018 A 
ATOM     31  C   UNL     1       4.784  -0.997   3.100  0.00  0.00    +0.008 A 
ATOM     32  C   UNL     1       4.620  -2.345   3.192  0.00  0.00    +0.001 A 
ATOM     33  C   UNL     1       3.533  -2.978   2.591  0.00  0.00    +0.001 A 
ATOM     34  C   UNL     1       2.604  -2.267   1.896  0.00  0.00    +0.008 A 
ATOM     35  C   UNL     1       2.739  -0.873   1.780  0.00  0.00    -0.016 A 
ATOM     36  C   UNL     1       1.800  -0.105   1.071  0.00  0.00    +0.037 A 
ENDBRANCH  24  27
ENDBRANCH  22  24
ENDBRANCH   1  22
TORSDOF 9
