REMARK  Name = ZINC04505976
REMARK  7 active torsions:
REMARK  status: ('A' for Active; 'I' for Inactive)
REMARK    1  A    between atoms: C_1  and  C_2
REMARK    2  A    between atoms: C_7  and  C_8
REMARK    3  A    between atoms: C_8  and  C_9
REMARK    4  A    between atoms: C_9  and  C_11
REMARK    5  A    between atoms: C_9  and  C_17
REMARK    6  A    between atoms: N_19  and  N_20
REMARK    7  A    between atoms: C_21  and  C_22
REMARK                            x       y       z     vdW  Elec       q    Type
REMARK                         _______ _______ _______ _____ _____    ______ ____
ROOT
ATOM      1  C   UNL     1      -1.186   3.574  -0.092  0.00  0.00    +0.111 C 
ENDROOT
BRANCH   1   2
ATOM      2  C   UNL     1      -0.638   3.963  -1.441  0.00  0.00    -0.035 A 
ATOM      3  C   UNL     1      -1.178   3.416  -2.590  0.00  0.00    +0.004 A 
ATOM      4  C   UNL     1      -0.678   3.776  -3.828  0.00  0.00    +0.000 A 
ATOM      5  C   UNL     1       0.368   4.676  -3.916  0.00  0.00    +0.000 A 
ATOM      6  C   UNL     1       0.910   5.219  -2.766  0.00  0.00    +0.000 A 
ATOM      7  C   UNL     1       0.408   4.862  -1.529  0.00  0.00    +0.004 A 
ENDBRANCH   1   2
BRANCH   1   8
ATOM      8  C   UNL     1      -1.141   2.075   0.055  0.00  0.00    +0.240 C 
ATOM      9  O   UNL     1      -2.167   1.452   0.238  0.00  0.00    -0.273 OA
ATOM     10  N   UNL     1       0.037   1.425  -0.018  0.00  0.00    -0.206 N 
ATOM     11  H   UNL     1       0.857   1.922  -0.168  0.00  0.00    +0.177 HD
BRANCH  10  12
ATOM     12  N   UNL     1       0.079   0.031   0.119  0.00  0.00    -0.188 NA
ATOM     13  C   UNL     1       1.213  -0.595   0.044  0.00  0.00    +0.138 C 
BRANCH  13  14
ATOM     14  C   UNL     1       1.256  -2.061   0.188  0.00  0.00    -0.002 A 
ATOM     15  C   UNL     1       0.078  -2.779   0.411  0.00  0.00    +0.013 A 
ATOM     16  C   UNL     1       0.121  -4.151   0.540  0.00  0.00    +0.050 A 
ATOM     17  C   UNL     1       1.332  -4.823   0.460  0.00  0.00    +0.166 A 
ATOM     18  C   UNL     1       2.513  -4.112   0.243  0.00  0.00    +0.167 A 
ATOM     19  C   UNL     1       2.477  -2.737   0.107  0.00  0.00    +0.059 A 
ATOM     20  O   UNL     1       3.553  -4.996   0.206  0.00  0.00    -0.453 OA
ATOM     21  C   UNL     1       2.952  -6.287  -0.007  0.00  0.00    +0.466 C 
ATOM     22  O   UNL     1       1.635  -6.150   0.558  0.00  0.00    -0.453 OA
ENDBRANCH  13  14
ENDBRANCH  10  12
ENDBRANCH   1   8
BRANCH   1  23
ATOM     23  C   UNL     1      -2.633   4.055   0.029  0.00  0.00    +0.053 C 
BRANCH  23  30
ATOM     24  C   UNL     1      -2.015   5.541   2.428  0.00  0.00    +0.044 C 
ATOM     25  C   UNL     1      -2.368   6.273   1.159  0.00  0.00    -0.047 A 
ATOM     26  C   UNL     1      -2.393   7.655   1.142  0.00  0.00    +0.003 A 
ATOM     27  C   UNL     1      -2.722   8.326  -0.021  0.00  0.00    +0.000 A 
ATOM     28  C   UNL     1      -3.023   7.615  -1.168  0.00  0.00    +0.000 A 
ATOM     29  C   UNL     1      -2.994   6.233  -1.152  0.00  0.00    +0.004 A 
ATOM     30  C   UNL     1      -2.664   5.562   0.011  0.00  0.00    -0.043 A 
ENDBRANCH  23  30
ENDBRANCH   1  23
TORSDOF 6
