REMARK  Name = ZINC36240621
REMARK  14 active torsions:
REMARK  status: ('A' for Active; 'I' for Inactive)
REMARK    1  A    between atoms: C_1  and  C_2
REMARK    2  A    between atoms: C_2  and  N_3
REMARK    3  A    between atoms: N_3  and  C_4
REMARK    4  A    between atoms: N_3  and  C_6
REMARK    5  A    between atoms: C_4  and  C_5
REMARK    6  A    between atoms: C_6  and  C_8
REMARK    7  A    between atoms: C_6  and  C_31
REMARK    8  A    between atoms: C_8  and  N_9
REMARK    9  A    between atoms: C_10  and  C_12
REMARK   10  A    between atoms: C_12  and  S_13
REMARK   11  A    between atoms: S_13  and  C_14
REMARK   12  A    between atoms: C_17  and  C_26
REMARK   13  A    between atoms: N_18  and  C_19
REMARK   14  A    between atoms: C_19  and  C_20
REMARK                            x       y       z     vdW  Elec       q    Type
REMARK                         _______ _______ _______ _____ _____    ______ ____
ROOT
ATOM      1  C   UNL     1       0.364  -0.136  -3.244  0.00  0.00    +0.173 C 
ENDROOT
BRANCH   1   3
ATOM      2  N   UNL     1       0.667  -1.123  -0.996  0.00  0.00    -0.316 N 
ATOM      3  C   UNL     1       0.955  -1.163  -2.312  0.00  0.00    +0.223 C 
ATOM      4  O   UNL     1       1.688  -2.026  -2.747  0.00  0.00    -0.275 OA
ATOM      5  H   UNL     1       0.081  -0.432  -0.649  0.00  0.00    +0.149 HD
BRANCH   2   6
ATOM      6  C   UNL     1       1.241  -2.121  -0.090  0.00  0.00    +0.096 C 
BRANCH   6   7
ATOM      7  C   UNL     1       0.673  -1.919   1.316  0.00  0.00    +0.016 C 
BRANCH   7   8
ATOM      8  C   UNL     1       1.356  -2.862   2.273  0.00  0.00    +0.093 A 
ATOM      9  C   UNL     1       0.851  -4.023   2.728  0.00  0.00    +0.043 A 
ATOM     10  C   UNL     1       1.819  -4.578   3.596  0.00  0.00    +0.041 A 
ATOM     11  C   UNL     1       2.857  -3.723   3.620  0.00  0.00    +0.195 A 
ATOM     12  O   UNL     1       2.573  -2.688   2.813  0.00  0.00    -0.469 OA
ENDBRANCH   7   8
BRANCH   7  13
ATOM     13  N   UNL     1       0.907  -0.533   1.744  0.00  0.00    +0.387 N 
ATOM     14  H   UNL     1       0.393   0.095   1.145  0.00  0.00    -0.081 HD
BRANCH  13  16
ATOM     15  C   UNL     1      -1.067  -0.525   3.194  0.00  0.00    -0.017 C 
ATOM     16  C   UNL     1       0.453  -0.366   3.131  0.00  0.00    -0.081 C 
ENDBRANCH  13  16
BRANCH  13  17
ATOM     17  C   UNL     1       2.341  -0.229   1.658  0.00  0.00    -0.081 C 
ATOM     18  C   UNL     1       2.566   1.258   1.942  0.00  0.00    -0.017 C 
ENDBRANCH  13  17
ENDBRANCH   7  13
ENDBRANCH   6   7
ENDBRANCH   2   6
ENDBRANCH   1   3
BRANCH   1  19
ATOM     19  S   UNL     1       0.935  -0.456  -4.936  0.00  0.00    -0.077 S 
BRANCH  19  20
ATOM     20  C   UNL     1       0.169   0.811  -5.891  0.00  0.00    +0.193 A 
ATOM     21  N   UNL     1      -0.623   1.756  -5.439  0.00  0.00    -0.122 NA
ATOM     22  N   UNL     1      -1.006   2.513  -6.405  0.00  0.00    -0.128 NA
ATOM     23  C   UNL     1      -0.481   2.096  -7.536  0.00  0.00    +0.172 A 
ATOM     24  N   UNL     1       0.293   0.996  -7.240  0.00  0.00    -0.297 N 
BRANCH  23  25
ATOM     25  C   UNL     1      -0.678   2.696  -8.866  0.00  0.00    +0.056 A 
ATOM     26  C   UNL     1      -1.177   3.932  -9.191  0.00  0.00    +0.019 A 
ATOM     27  C   UNL     1      -1.268   4.279 -10.521  0.00  0.00    +0.008 A 
ATOM     28  C   UNL     1      -0.864   3.391 -11.466  0.00  0.00    +0.046 A 
ATOM     29  S   UNL     1      -0.323   2.008 -10.474  0.00  0.00    -0.094 S 
ENDBRANCH  23  25
BRANCH  24  30
ATOM     30  C   UNL     1       1.082   0.191  -8.176  0.00  0.00    +0.161 C 
BRANCH  30  31
ATOM     31  C   UNL     1       2.509   0.674  -8.175  0.00  0.00    -0.028 A 
ATOM     32  C   UNL     1       2.877   1.744  -8.970  0.00  0.00    +0.005 A 
ATOM     33  C   UNL     1       4.186   2.187  -8.969  0.00  0.00    +0.000 A 
ATOM     34  C   UNL     1       5.128   1.561  -8.174  0.00  0.00    +0.000 A 
ATOM     35  C   UNL     1       4.760   0.492  -7.378  0.00  0.00    +0.000 A 
ATOM     36  C   UNL     1       3.450   0.051  -7.376  0.00  0.00    +0.005 A 
ENDBRANCH  30  31
ENDBRANCH  24  30
ENDBRANCH  19  20
ENDBRANCH   1  19
TORSDOF 12
