REMARK  Name = ZINC39448332
REMARK  5 active torsions:
REMARK  status: ('A' for Active; 'I' for Inactive)
REMARK    1  A    between atoms: C_1  and  C_2
REMARK    2  A    between atoms: C_3  and  C_12
REMARK    3  A    between atoms: C_4  and  N_11
REMARK    4  A    between atoms: N_8  and  C_10
REMARK    5  A    between atoms: C_15  and  C_18
REMARK                            x       y       z     vdW  Elec       q    Type
REMARK                         _______ _______ _______ _____ _____    ______ ____
ROOT
ATOM      1  C   UNL     1      -0.018   1.503   0.010  0.00  0.00    +0.062 C 
ATOM      2  C   UNL     1       0.002  -0.004   0.002  0.00  0.00    +0.019 C 
ATOM      3  C   UNL     1      -1.132  -0.667   0.004  0.00  0.00    -0.028 C 
ATOM      4  C   UNL     1      -1.183  -2.166   0.002  0.00  0.00    +0.045 C 
ATOM      5  C   UNL     1       0.139  -2.754  -0.399  0.00  0.00    +0.221 C 
ATOM      6  O   UNL     1       0.192  -3.914  -0.748  0.00  0.00    -0.276 OA
ATOM      7  N   UNL     1       1.266  -2.021  -0.379  0.00  0.00    -0.227 N 
ATOM      8  N   UNL     1       1.219  -0.671  -0.013  0.00  0.00    -0.267 N 
ATOM      9  C   UNL     1       2.545  -2.635  -0.746  0.00  0.00    +0.156 C 
ATOM     10  H   UNL     1       2.034  -0.205   0.232  0.00  0.00    +0.170 HD
ENDROOT
BRANCH   3  11
ATOM     11  C   UNL     1      -2.426   0.105   0.009  0.00  0.00    +0.179 C 
ATOM     12  C   UNL     1      -3.217  -0.182   1.272  0.00  0.00    +0.036 C 
ATOM     13  C   UNL     1      -4.359  -0.734   0.819  0.00  0.00    +0.091 C 
ATOM     14  N   UNL     1      -4.345  -0.809  -0.537  0.00  0.00    -0.153 NA
ATOM     15  N   UNL     1      -3.317  -0.366  -1.064  0.00  0.00    -0.175 NA
BRANCH  13  16
ATOM     16  C   UNL     1      -5.476  -1.196   1.680  0.00  0.00    +0.003 A 
ATOM     17  C   UNL     1      -5.391  -1.067   3.065  0.00  0.00    +0.011 A 
ATOM     18  C   UNL     1      -6.432  -1.497   3.862  0.00  0.00    +0.022 A 
ATOM     19  C   UNL     1      -7.561  -2.056   3.288  0.00  0.00    +0.059 A 
ATOM     20  C   UNL     1      -7.651  -2.187   1.912  0.00  0.00    +0.060 A 
ATOM     21  C   UNL     1      -6.616  -1.754   1.106  0.00  0.00    +0.031 A 
ATOM     22 CL   UNL     1      -9.070  -2.889   1.200  0.00  0.00    -0.082 Cl
ATOM     23 CL   UNL     1      -8.867  -2.596   4.297  0.00  0.00    -0.082 Cl
ENDBRANCH  13  16
ENDBRANCH   3  11
BRANCH   4  24
ATOM     24  N   UNL     1      -1.530  -2.638   1.349  0.00  0.00    +0.388 N 
ATOM     25  H   UNL     1      -2.431  -2.269   1.613  0.00  0.00    -0.088 HD
ATOM     26  H   UNL     1      -1.566  -3.647   1.353  0.00  0.00    -0.088 HD
ATOM     27  H   UNL     1      -0.832  -2.324   2.006  0.00  0.00    -0.088 HD
ENDBRANCH   4  24
TORSDOF 3
