REMARK  Name = ZINC09777248
REMARK  13 active torsions:
REMARK  status: ('A' for Active; 'I' for Inactive)
REMARK    1  A    between atoms: C_1  and  C_2
REMARK    2  A    between atoms: C_7  and  N_12
REMARK    3  A    between atoms: C_9  and  C_11
REMARK    4  A    between atoms: C_13  and  C_15
REMARK    5  A    between atoms: C_23  and  C_35
REMARK    6  A    between atoms: N_29  and  C_30
REMARK    7  A    between atoms: C_30  and  C_31
REMARK    8  A    between atoms: C_31  and  C_32
REMARK    9  A    between atoms: C_32  and  C_33
REMARK   10  A    between atoms: C_32  and  C_34
REMARK   11  A    between atoms: N_37  and  C_38
REMARK   12  A    between atoms: C_42  and  S_44
REMARK   13  A    between atoms: S_44  and  C_45
REMARK                            x       y       z     vdW  Elec       q    Type
REMARK                         _______ _______ _______ _____ _____    ______ ____
ROOT
ATOM      1  C   UNL     1      -1.224   3.081   0.382  0.00  0.00    +0.198 C 
ATOM      2  C   UNL     1      -1.197   3.776   1.708  0.00  0.00    +0.127 C 
ATOM      3  C   UNL     1      -2.168   3.176   2.708  0.00  0.00    +0.009 C 
ATOM      4  C   UNL     1      -2.023   3.884   3.819  0.00  0.00    +0.004 C 
ATOM      5  C   UNL     1      -0.995   4.966   3.469  0.00  0.00    +0.155 C 
ATOM      6  O   UNL     1      -0.129   4.243   2.498  0.00  0.00    -0.358 OA
ATOM      7  C   UNL     1      -1.825   5.920   2.524  0.00  0.00    +0.123 C 
ATOM      8  C   UNL     1      -1.770   5.167   1.219  0.00  0.00    +0.128 C 
ATOM      9  C   UNL     1      -2.914   4.710   0.409  0.00  0.00    +0.223 C 
ATOM     10  O   UNL     1      -3.979   5.275   0.280  0.00  0.00    -0.275 OA
ATOM     11  N   UNL     1      -2.544   3.520  -0.170  0.00  0.00    -0.287 N 
ENDROOT
BRANCH   1  13
ATOM     12  N   UNL     1      -0.009   0.930   0.494  0.00  0.00    -0.311 N 
ATOM     13  C   UNL     1      -1.185   1.585   0.558  0.00  0.00    +0.237 C 
ATOM     14  O   UNL     1      -2.211   0.970   0.757  0.00  0.00    -0.274 OA
ATOM     15  H   UNL     1       0.812   1.421   0.330  0.00  0.00    +0.149 HD
BRANCH  12  21
ATOM     16  C   UNL     1       0.042  -3.226  -0.470  0.00  0.00    +0.008 C 
ATOM     17  C   UNL     1       1.304  -2.608   0.136  0.00  0.00    -0.009 C 
ATOM     18  C   UNL     1       1.372  -2.945   1.627  0.00  0.00    +0.003 C 
ATOM     19  C   UNL     1       0.138  -2.381   2.334  0.00  0.00    +0.002 C 
ATOM     20  C   UNL     1       0.098  -0.862   2.155  0.00  0.00    +0.022 C 
ATOM     21  C   UNL     1       0.030  -0.525   0.664  0.00  0.00    +0.076 C 
ATOM     22  C   UNL     1       1.264  -1.089  -0.043  0.00  0.00    +0.009 C 
ATOM     23  C   UNL     1       1.196  -0.752  -1.534  0.00  0.00    +0.009 C 
ENDBRANCH  12  21
ENDBRANCH   1  13
BRANCH   7  24
ATOM     24  C   UNL     1      -3.245   6.060   3.009  0.00  0.00    +0.224 C 
ATOM     25  O   UNL     1      -4.156   5.593   2.360  0.00  0.00    -0.275 OA
ATOM     26  N   UNL     1      -3.502   6.706   4.164  0.00  0.00    -0.285 N 
ATOM     27  H   UNL     1      -2.770   7.014   4.720  0.00  0.00    +0.155 HD
BRANCH  26  28
ATOM     28  C   UNL     1      -4.825   6.931   4.560  0.00  0.00    +0.034 A 
ATOM     29  C   UNL     1      -5.156   6.931   5.910  0.00  0.00    +0.023 A 
ATOM     30  C   UNL     1      -6.462   7.152   6.303  0.00  0.00    +0.003 A 
ATOM     31  C   UNL     1      -7.443   7.375   5.356  0.00  0.00    +0.015 A 
ATOM     32  C   UNL     1      -7.119   7.376   4.004  0.00  0.00    +0.009 A 
ATOM     33  C   UNL     1      -5.806   7.159   3.607  0.00  0.00    +0.038 A 
BRANCH  32  34
ATOM     34  S   UNL     1      -8.370   7.660   2.797  0.00  0.00    -0.129 S 
ATOM     35  C   UNL     1      -9.880   7.893   3.776  0.00  0.00    +0.090 C 
ENDBRANCH  32  34
ENDBRANCH  26  28
ENDBRANCH   7  24
BRANCH  11  36
ATOM     36  C   UNL     1      -3.323   2.792  -1.175  0.00  0.00    +0.109 C 
BRANCH  36  37
ATOM     37  C   UNL     1      -2.841   3.182  -2.574  0.00  0.00    +0.022 C 
BRANCH  37  38
ATOM     38  C   UNL     1      -3.711   2.487  -3.625  0.00  0.00    -0.016 C 
ATOM     39  C   UNL     1      -5.144   3.014  -3.529  0.00  0.00    +0.007 C 
ATOM     40  C   UNL     1      -3.153   2.776  -5.020  0.00  0.00    +0.007 C 
ENDBRANCH  37  38
ENDBRANCH  36  37
ENDBRANCH  11  36
TORSDOF 8
