REMARK  Name = ZINC00885829
REMARK  10 active torsions:
REMARK  status: ('A' for Active; 'I' for Inactive)
REMARK    1  A    between atoms: C_1  and  C_2
REMARK    2  A    between atoms: C_5  and  C_7
REMARK    3  A    between atoms: C_7  and  C_9
REMARK    4  A    between atoms: C_7  and  N_19
REMARK    5  A    between atoms: N_11  and  C_12
REMARK    6  A    between atoms: C_12  and  C_13
REMARK    7  A    between atoms: N_19  and  C_20
REMARK    8  A    between atoms: C_20  and  C_21
REMARK    9  A    between atoms: C_30  and  C_32
REMARK   10  A    between atoms: C_35  and  C_38
REMARK                            x       y       z     vdW  Elec       q    Type
REMARK                         _______ _______ _______ _____ _____    ______ ____
ROOT
ATOM      1  N   UNL     1       2.822  -2.846  -1.434  0.00  0.00    -0.274 N 
ATOM      2  C   UNL     1       3.202  -3.570  -2.505  0.00  0.00    +0.264 C 
ATOM      3  O   UNL     1       2.794  -4.707  -2.648  0.00  0.00    -0.268 OA
ENDROOT
BRANCH   2   4
ATOM      4  C   UNL     1       4.109  -2.986  -3.499  0.00  0.00    +0.102 A 
ATOM      5  C   UNL     1       4.280  -3.425  -4.797  0.00  0.00    +0.033 A 
ATOM      6  C   UNL     1       5.228  -2.597  -5.395  0.00  0.00    +0.028 A 
ATOM      7  C   UNL     1       5.622  -1.666  -4.458  0.00  0.00    +0.047 A 
ATOM      8  N   UNL     1       4.934  -1.902  -3.304  0.00  0.00    -0.351 N 
ATOM      9  H   UNL     1       5.014  -1.391  -2.482  0.00  0.00    +0.166 HD
BRANCH   7  10
ATOM     10  C   UNL     1       6.615  -0.592  -4.669  0.00  0.00    -0.002 A 
ATOM     11  C   UNL     1       6.931   0.285  -3.630  0.00  0.00    +0.010 A 
ATOM     12  C   UNL     1       7.859   1.285  -3.833  0.00  0.00    +0.001 A 
ATOM     13  C   UNL     1       8.477   1.419  -5.064  0.00  0.00    +0.000 A 
ATOM     14  C   UNL     1       8.169   0.553  -6.098  0.00  0.00    +0.001 A 
ATOM     15  C   UNL     1       7.247  -0.455  -5.906  0.00  0.00    +0.010 A 
ENDBRANCH   7  10
ENDBRANCH   2   4
BRANCH   1  16
ATOM     16  C   UNL     1       1.811  -3.375  -0.515  0.00  0.00    +0.229 C 
BRANCH  16  21
ATOM     17  C   UNL     1      -0.756   0.956  -0.195  0.00  0.00    +0.086 C 
ATOM     18  C   UNL     1      -0.451  -0.518  -0.275  0.00  0.00    +0.102 A 
ATOM     19  C   UNL     1      -1.359  -1.510  -0.271  0.00  0.00    +0.045 A 
ATOM     20  C   UNL     1      -0.640  -2.724  -0.361  0.00  0.00    +0.047 A 
ATOM     21  C   UNL     1       0.665  -2.401  -0.414  0.00  0.00    +0.135 A 
ATOM     22  O   UNL     1       0.773  -1.063  -0.367  0.00  0.00    -0.462 OA
ENDBRANCH  16  21
BRANCH  16  23
ATOM     23  C   UNL     1       2.424  -3.571   0.848  0.00  0.00    +0.241 C 
ATOM     24  O   UNL     1       3.604  -3.349   1.019  0.00  0.00    -0.273 OA
ATOM     25  N   UNL     1       1.661  -3.993   1.876  0.00  0.00    -0.311 N 
ATOM     26  H   UNL     1       0.718  -4.171   1.739  0.00  0.00    +0.149 HD
BRANCH  25  27
ATOM     27  C   UNL     1       2.258  -4.184   3.200  0.00  0.00    +0.135 C 
BRANCH  27  28
ATOM     28  C   UNL     1       1.184  -4.664   4.179  0.00  0.00    +0.135 C 
ATOM     29  C   UNL     1       1.774  -4.752   5.602  0.00  0.00    +0.035 C 
ATOM     30  C   UNL     1       1.117  -6.047   6.152  0.00  0.00    +0.031 C 
ATOM     31  C   UNL     1       1.037  -6.906   4.865  0.00  0.00    +0.160 C 
ATOM     32  O   UNL     1       0.741  -5.975   3.810  0.00  0.00    -0.375 OA
ENDBRANCH  27  28
ENDBRANCH  25  27
ENDBRANCH  16  23
ENDBRANCH   1  16
BRANCH   1  33
ATOM     33  C   UNL     1       3.419  -1.531  -1.188  0.00  0.00    +0.144 C 
BRANCH  33  34
ATOM     34  C   UNL     1       4.629  -1.686  -0.304  0.00  0.00    -0.026 A 
ATOM     35  C   UNL     1       4.533  -1.419   1.050  0.00  0.00    +0.009 A 
ATOM     36  C   UNL     1       5.640  -1.560   1.865  0.00  0.00    +0.050 A 
ATOM     37  C   UNL     1       6.850  -1.970   1.327  0.00  0.00    +0.166 A 
ATOM     38  C   UNL     1       6.946  -2.239  -0.035  0.00  0.00    +0.167 A 
ATOM     39  C   UNL     1       5.831  -2.101  -0.846  0.00  0.00    +0.054 A 
ATOM     40  O   UNL     1       8.227  -2.621  -0.315  0.00  0.00    -0.453 OA
ATOM     41  C   UNL     1       9.011  -2.190   0.812  0.00  0.00    +0.466 C 
ATOM     42  O   UNL     1       8.070  -2.183   1.902  0.00  0.00    -0.453 OA
ENDBRANCH  33  34
ENDBRANCH   1  33
TORSDOF 9
