REMARK  Name = ZINC47706587
REMARK  10 active torsions:
REMARK  status: ('A' for Active; 'I' for Inactive)
REMARK    1  A    between atoms: C_1  and  C_2
REMARK    2  A    between atoms: C_2  and  C_3
REMARK    3  A    between atoms: C_7  and  C_29
REMARK    4  A    between atoms: C_8  and  N_9
REMARK    5  A    between atoms: N_12  and  C_13
REMARK    6  A    between atoms: C_13  and  C_15
REMARK    7  A    between atoms: C_13  and  C_16
REMARK    8  A    between atoms: C_19  and  N_22
REMARK    9  A    between atoms: N_25  and  C_26
REMARK   10  A    between atoms: C_29  and  C_30
REMARK                            x       y       z     vdW  Elec       q    Type
REMARK                         _______ _______ _______ _____ _____    ______ ____
ROOT
ATOM      1  C   UNL     1      -0.805   4.850   3.784  0.00  0.00    +0.102 C 
ATOM      2  C   UNL     1      -0.992   4.965   5.298  0.00  0.00    +0.033 C 
ENDROOT
BRANCH   1   6
ATOM      3  N   UNL     1       1.636   2.159   3.213  0.00  0.00    -0.269 N 
ATOM      4  C   UNL     1       0.481   2.803   3.475  0.00  0.00    +0.304 C 
ATOM      5  O   UNL     1      -0.533   2.168   3.690  0.00  0.00    -0.252 OA
ATOM      6  N   UNL     1       0.451   4.150   3.499  0.00  0.00    -0.293 N 
ATOM      7  H   UNL     1       2.459   2.662   3.114  0.00  0.00    +0.156 HD
ATOM      8  H   UNL     1       1.260   4.657   3.328  0.00  0.00    +0.151 HD
BRANCH   3  14
ATOM      9  C   UNL     1       1.808   0.184   1.833  0.00  0.00    -0.026 A 
ATOM     10  C   UNL     1       1.824  -1.192   1.710  0.00  0.00    +0.005 A 
ATOM     11  C   UNL     1       1.674  -1.989   2.830  0.00  0.00    +0.001 A 
ATOM     12  C   UNL     1       1.507  -1.413   4.076  0.00  0.00    +0.005 A 
ATOM     13  C   UNL     1       1.490  -0.038   4.205  0.00  0.00    -0.026 A 
ATOM     14  C   UNL     1       1.647   0.766   3.084  0.00  0.00    +0.041 A 
BRANCH   9  16
ATOM     15  C   UNL     1       3.443   1.443   0.458  0.00  0.00    +0.009 C 
ATOM     16  C   UNL     1       1.972   1.053   0.613  0.00  0.00    +0.033 C 
ENDBRANCH   9  16
BRANCH  13  17
ATOM     17  C   UNL     1       1.307   0.590   5.564  0.00  0.00    +0.033 C 
ATOM     18  C   UNL     1       0.956  -0.496   6.583  0.00  0.00    +0.009 C 
ENDBRANCH  13  17
ENDBRANCH   3  14
ENDBRANCH   1   6
BRANCH   1  19
ATOM     19  C   UNL     1      -0.761   6.228   3.177  0.00  0.00    -0.027 A 
ATOM     20  C   UNL     1       0.408   6.966   3.226  0.00  0.00    +0.007 A 
ATOM     21  C   UNL     1       0.451   8.230   2.671  0.00  0.00    +0.023 A 
ATOM     22  C   UNL     1      -0.679   8.760   2.063  0.00  0.00    +0.035 A 
ATOM     23  C   UNL     1      -1.851   8.016   2.015  0.00  0.00    +0.023 A 
ATOM     24  C   UNL     1      -1.887   6.750   2.567  0.00  0.00    +0.007 A 
BRANCH  22  25
ATOM     25  N   UNL     1      -0.638  10.040   1.500  0.00  0.00    -0.269 N 
ATOM     26  C   UNL     1       0.497  10.490   0.930  0.00  0.00    +0.304 C 
ATOM     27  O   UNL     1       1.456   9.750   0.820  0.00  0.00    -0.253 OA
ATOM     28  N   UNL     1       0.570  11.759   0.483  0.00  0.00    -0.296 N 
ATOM     29  H   UNL     1      -1.427  10.604   1.519  0.00  0.00    +0.156 HD
ATOM     30  H   UNL     1      -0.195  12.349   0.571  0.00  0.00    +0.151 HD
BRANCH  28  31
ATOM     31  C   UNL     1       1.805  12.248  -0.136  0.00  0.00    +0.075 C 
ATOM     32  C   UNL     1       2.294  13.640   0.268  0.00  0.00    +0.024 C 
ATOM     33  C   UNL     1       1.688  13.415  -1.119  0.00  0.00    +0.024 C 
ENDBRANCH  28  31
ENDBRANCH  22  25
ENDBRANCH   1  19
TORSDOF 7
