REMARK  Name = ZINC03359769
REMARK  8 active torsions:
REMARK  status: ('A' for Active; 'I' for Inactive)
REMARK    1  A    between atoms: C_1  and  C_2
REMARK    2  A    between atoms: C_3  and  C_15
REMARK    3  A    between atoms: N_5  and  C_7
REMARK    4  A    between atoms: C_7  and  C_8
REMARK    5  A    between atoms: C_16  and  C_17
REMARK    6  A    between atoms: C_23  and  S_25
REMARK    7  A    between atoms: S_25  and  C_26
REMARK    8  A    between atoms: C_26  and  C_27
REMARK                            x       y       z     vdW  Elec       q    Type
REMARK                         _______ _______ _______ _____ _____    ______ ____
ROOT
ATOM      1  C   UNL     1      -5.188   3.198   6.042  0.00  0.00    +0.243 C 
ATOM      2  O   UNL     1      -5.990   2.478   6.610  0.00  0.00    -0.270 OA
ATOM      3  N   UNL     1      -5.009   4.467   6.460  0.00  0.00    -0.260 N 
ATOM      4  C   UNL     1      -5.740   4.954   7.539  0.00  0.00    +0.189 A 
ATOM      5  N   UNL     1      -6.644   4.344   8.279  0.00  0.00    -0.125 NA
ATOM      6  N   UNL     1      -7.253   5.019   9.311  0.00  0.00    -0.133 NA
ATOM      7  C   UNL     1      -6.929   6.275   9.556  0.00  0.00    +0.160 A 
ATOM      8  S   UNL     1      -5.697   6.571   8.296  0.00  0.00    -0.024 S 
ATOM      9  H   UNL     1      -4.370   5.040   6.008  0.00  0.00    +0.157 HD
ENDROOT
BRANCH   1  11
ATOM     10  C   UNL     1      -4.624   1.429   4.525  0.00  0.00    +0.018 C 
ATOM     11  C   UNL     1      -4.444   2.702   4.944  0.00  0.00    +0.068 C 
BRANCH  10  14
ATOM     12  C   UNL     1      -2.991  -1.290   4.468  0.00  0.00    +0.068 C 
ATOM     13  C   UNL     1      -3.120  -0.294   3.345  0.00  0.00    +0.069 A 
ATOM     14  C   UNL     1      -3.853   0.915   3.386  0.00  0.00    +0.034 A 
ATOM     15  C   UNL     1      -3.707   1.522   2.150  0.00  0.00    +0.135 A 
ATOM     16  N   UNL     1      -2.927   0.722   1.401  0.00  0.00    -0.248 N 
ATOM     17  N   UNL     1      -2.581  -0.400   2.162  0.00  0.00    -0.174 NA
ATOM     18 CL   UNL     1      -4.401   3.035   1.658  0.00  0.00    -0.062 Cl
BRANCH  16  19
ATOM     19  C   UNL     1      -2.514   0.980   0.019  0.00  0.00    +0.180 C 
BRANCH  19  20
ATOM     20  C   UNL     1      -1.219   1.751   0.017  0.00  0.00    -0.026 A 
ATOM     21  C   UNL     1      -0.013   1.076   0.008  0.00  0.00    +0.005 A 
ATOM     22  C   UNL     1       1.175   1.783   0.000  0.00  0.00    +0.000 A 
ATOM     23  C   UNL     1       1.156   3.165   0.008  0.00  0.00    +0.000 A 
ATOM     24  C   UNL     1      -0.050   3.840   0.022  0.00  0.00    +0.000 A 
ATOM     25  C   UNL     1      -1.238   3.133   0.030  0.00  0.00    +0.005 A 
ENDBRANCH  19  20
ENDBRANCH  16  19
ENDBRANCH  10  14
ENDBRANCH   1  11
BRANCH   7  26
ATOM     26  S   UNL     1      -7.542   7.366  10.797  0.00  0.00    -0.092 S 
BRANCH  26  27
ATOM     27  C   UNL     1      -8.756   6.365  11.700  0.00  0.00    +0.114 C 
BRANCH  27  28
ATOM     28  C   UNL     1      -9.364   7.190  12.805  0.00  0.00    -0.002 A 
ATOM     29  C   UNL     1      -8.787   7.196  14.061  0.00  0.00    +0.007 A 
ATOM     30  C   UNL     1      -9.342   7.957  15.073  0.00  0.00    +0.000 A 
ATOM     31  C   UNL     1     -10.481   8.703  14.833  0.00  0.00    +0.003 A 
ATOM     32  C   UNL     1     -11.063   8.694  13.580  0.00  0.00    +0.038 A 
ATOM     33  C   UNL     1     -10.505   7.937  12.563  0.00  0.00    +0.127 A 
ATOM     34  F   UNL     1     -11.073   7.927  11.338  0.00  0.00    -0.205 F 
ENDBRANCH  27  28
ENDBRANCH  26  27
ENDBRANCH   7  26
TORSDOF 7
