REMARK  Name = ZINC36806113
REMARK  9 active torsions:
REMARK  status: ('A' for Active; 'I' for Inactive)
REMARK    1  A    between atoms: C_1  and  C_2
REMARK    2  A    between atoms: C_3  and  C_12
REMARK    3  A    between atoms: C_12  and  C_14
REMARK    4  A    between atoms: C_14  and  C_16
REMARK    5  A    between atoms: C_14  and  S_17
REMARK    6  A    between atoms: S_17  and  C_18
REMARK    7  A    between atoms: C_21  and  C_30
REMARK    8  A    between atoms: N_22  and  C_23
REMARK    9  A    between atoms: C_23  and  C_24
REMARK                            x       y       z     vdW  Elec       q    Type
REMARK                         _______ _______ _______ _____ _____    ______ ____
ROOT
ATOM      1  C   UNL     1      -0.864   2.883  -4.880  0.00  0.00    +0.193 A 
ATOM      2  N   UNL     1      -0.211   3.625  -4.016  0.00  0.00    -0.122 NA
ATOM      3  N   UNL     1      -0.059   4.813  -4.479  0.00  0.00    -0.128 NA
ATOM      4  C   UNL     1      -0.605   4.904  -5.670  0.00  0.00    +0.167 A 
ATOM      5  N   UNL     1      -1.133   3.669  -5.966  0.00  0.00    -0.300 N 
ENDROOT
BRANCH   4   6
ATOM      6  C   UNL     1      -0.641   6.104  -6.530  0.00  0.00    +0.044 A 
ATOM      7  C   UNL     1      -0.346   6.162  -7.854  0.00  0.00    +0.095 A 
ATOM      8  N   UNL     1      -0.493   7.443  -8.303  0.00  0.00    -0.360 N 
ATOM      9  H   UNL     1      -0.339   7.732  -9.216  0.00  0.00    +0.165 HD
ATOM     10  C   UNL     1      -0.892   8.266  -7.272  0.00  0.00    +0.047 A 
ATOM     11  C   UNL     1      -1.009   7.470  -6.120  0.00  0.00    +0.010 A 
ATOM     12  C   UNL     1      -1.407   8.043  -4.914  0.00  0.00    +0.011 A 
ATOM     13  C   UNL     1      -1.688   9.391  -4.859  0.00  0.00    +0.001 A 
ATOM     14  C   UNL     1      -1.576  10.177  -5.997  0.00  0.00    +0.002 A 
ATOM     15  C   UNL     1      -1.176   9.625  -7.195  0.00  0.00    +0.026 A 
ENDBRANCH   4   6
BRANCH   1  16
ATOM     16  S   UNL     1      -1.305   1.189  -4.680  0.00  0.00    -0.075 S 
BRANCH  16  17
ATOM     17  C   UNL     1      -0.661   0.758  -3.041  0.00  0.00    +0.122 C 
ATOM     18  C   UNL     1       0.867   0.845  -3.054  0.00  0.00    +0.028 C 
BRANCH  17  19
ATOM     19  C   UNL     1      -1.080  -0.647  -2.689  0.00  0.00    +0.178 C 
ATOM     20  O   UNL     1      -1.304  -1.451  -3.570  0.00  0.00    -0.291 OA
BRANCH  19  23
ATOM     21  C   UNL     1      -3.607  -0.197  -0.951  0.00  0.00    +0.064 C 
ATOM     22  C   UNL     1      -2.316  -0.847  -0.524  0.00  0.00    +0.024 A 
ATOM     23  C   UNL     1      -1.213  -1.028  -1.331  0.00  0.00    +0.046 A 
ATOM     24  C   UNL     1      -0.198  -1.698  -0.495  0.00  0.00    +0.010 A 
ATOM     25  C   UNL     1       1.102  -2.143  -0.722  0.00  0.00    +0.011 A 
ATOM     26  C   UNL     1       1.804  -2.748   0.298  0.00  0.00    +0.001 A 
ATOM     27  C   UNL     1       1.221  -2.915   1.545  0.00  0.00    +0.002 A 
ATOM     28  C   UNL     1      -0.065  -2.480   1.783  0.00  0.00    +0.026 A 
ATOM     29  C   UNL     1      -0.790  -1.866   0.766  0.00  0.00    +0.047 A 
ATOM     30  N   UNL     1      -2.062  -1.334   0.705  0.00  0.00    -0.358 N 
ATOM     31  H   UNL     1      -2.688  -1.316   1.446  0.00  0.00    +0.166 HD
ENDBRANCH  19  23
ENDBRANCH  17  19
ENDBRANCH  16  17
ENDBRANCH   1  16
BRANCH   5  32
ATOM     32  C   UNL     1      -1.839   3.278  -7.189  0.00  0.00    +0.157 C 
BRANCH  32  33
ATOM     33  C   UNL     1      -3.346   3.440  -6.982  0.00  0.00    +0.138 C 
ATOM     34  C   UNL     1      -4.104   2.917  -8.222  0.00  0.00    +0.035 C 
ATOM     35  C   UNL     1      -5.251   3.954  -8.369  0.00  0.00    +0.031 C 
ATOM     36  C   UNL     1      -4.541   5.247  -7.893  0.00  0.00    +0.160 C 
ATOM     37  O   UNL     1      -3.670   4.827  -6.829  0.00  0.00    -0.375 OA
ENDBRANCH  32  33
ENDBRANCH   5  32
TORSDOF 7
