REMARK  Name = ZINC08442772
REMARK  4 active torsions:
REMARK  status: ('A' for Active; 'I' for Inactive)
REMARK    1  A    between atoms: C_1  and  C_2
REMARK    2  A    between atoms: C_5  and  C_8
REMARK    3  A    between atoms: C_11  and  C_29
REMARK    4  A    between atoms: C_16  and  C_18
REMARK                            x       y       z     vdW  Elec       q    Type
REMARK                         _______ _______ _______ _____ _____    ______ ____
ROOT
ATOM      1  C   UNL     1       0.065  -4.272  -0.014  0.00  0.00    +0.104 C 
ATOM      2  C   UNL     1       1.492  -4.771   0.235  0.00  0.00    +0.063 C 
ATOM      3  C   UNL     1       1.531  -6.302   0.158  0.00  0.00    +0.215 C 
ATOM      4  N   UNL     1       0.466  -6.847   1.004  0.00  0.00    -0.238 N 
ATOM      5  C   UNL     1      -0.617  -6.124   1.418  0.00  0.00    +0.119 A 
ATOM      6  C   UNL     1      -1.391  -6.925   2.178  0.00  0.00    +0.078 A 
ATOM      7  C   UNL     1      -0.766  -8.191   2.236  0.00  0.00    +0.149 A 
ATOM      8  N   UNL     1       0.348  -8.134   1.527  0.00  0.00    -0.164 NA
ATOM      9  N   UNL     1      -0.810  -4.786   1.058  0.00  0.00    -0.322 N 
ATOM     10  H   UNL     1      -1.476  -4.228   1.489  0.00  0.00    +0.148 HD
ENDROOT
BRANCH   7  11
ATOM     11  C   UNL     1      -1.271  -9.374   2.962  0.00  0.00    +0.269 C 
ATOM     12  O   UNL     1      -2.313  -9.306   3.584  0.00  0.00    -0.268 OA
ATOM     13  N   UNL     1      -0.575 -10.528   2.937  0.00  0.00    -0.265 N 
ATOM     14  C   UNL     1      -0.994 -11.611   3.707  0.00  0.00    +0.125 A 
ATOM     15  C   UNL     1      -0.215 -12.762   3.759  0.00  0.00    +0.045 A 
ATOM     16  C   UNL     1      -0.642 -13.830   4.527  0.00  0.00    +0.025 A 
ATOM     17  C   UNL     1      -1.839 -13.710   5.222  0.00  0.00    +0.059 A 
ATOM     18  C   UNL     1      -2.562 -12.537   5.125  0.00  0.00    +0.132 A 
ATOM     19  N   UNL     1      -2.127 -11.533   4.387  0.00  0.00    -0.239 NA
ATOM     20 CL   UNL     1      -2.421 -15.020   6.201  0.00  0.00    -0.082 Cl
ATOM     21  H   UNL     1       0.217 -10.605   2.382  0.00  0.00    +0.157 HD
ENDBRANCH   7  11
BRANCH   1  26
ATOM     22  C   UNL     1      -0.009   1.506   0.024  0.00  0.00    +0.044 C 
ATOM     23  C   UNL     1       0.010  -0.001   0.014  0.00  0.00    -0.050 A 
ATOM     24  C   UNL     1       0.014  -0.684  -1.188  0.00  0.00    +0.004 A 
ATOM     25  C   UNL     1       0.032  -2.067  -1.197  0.00  0.00    +0.006 A 
ATOM     26  C   UNL     1       0.046  -2.766  -0.004  0.00  0.00    -0.027 A 
ATOM     27  C   UNL     1       0.044  -2.082   1.197  0.00  0.00    +0.006 A 
ATOM     28  C   UNL     1       0.030  -0.700   1.206  0.00  0.00    +0.004 A 
ENDBRANCH   1  26
BRANCH   3  29
ATOM     29  C   UNL     1       2.889  -6.806   0.652  0.00  0.00    +0.412 C 
ATOM     30  F   UNL     1       3.082  -6.401   1.977  0.00  0.00    -0.168 F 
ATOM     31  F   UNL     1       2.922  -8.202   0.581  0.00  0.00    -0.168 F 
ATOM     32  F   UNL     1       3.904  -6.273  -0.150  0.00  0.00    -0.168 F 
ENDBRANCH   3  29
TORSDOF 3
