REMARK  Name = ZINC63180041
REMARK  6 active torsions:
REMARK  status: ('A' for Active; 'I' for Inactive)
REMARK    1  A    between atoms: C_7  and  C_10
REMARK    2  A    between atoms: C_10  and  C_11
REMARK    3  A    between atoms: C_11  and  C_13
REMARK    4  A    between atoms: C_11  and  N_29
REMARK    5  A    between atoms: N_15  and  C_16
REMARK    6  A    between atoms: C_30  and  C_32
REMARK                            x       y       z     vdW  Elec       q    Type
REMARK                         _______ _______ _______ _____ _____    ______ ____
ROOT
ATOM      1  C   UNL     1       0.458  -3.654  -1.468  0.00  0.00    +0.163 C 
ENDROOT
BRANCH   1   2
ATOM      2  C   UNL     1      -0.385  -4.903  -1.451  0.00  0.00    +0.238 C 
ATOM      3  O   UNL     1      -1.576  -4.834  -1.669  0.00  0.00    -0.273 OA
ATOM      4  N   UNL     1       0.185  -6.097  -1.193  0.00  0.00    -0.284 N 
ATOM      5  H   UNL     1       1.147  -6.162  -1.085  0.00  0.00    +0.155 HD
BRANCH   4   6
ATOM      6  C   UNL     1      -0.612  -7.244  -1.080  0.00  0.00    +0.037 A 
ATOM      7  C   UNL     1      -0.275  -8.237  -0.170  0.00  0.00    +0.027 A 
ATOM      8  C   UNL     1      -1.060  -9.369  -0.057  0.00  0.00    +0.051 A 
ATOM      9  C   UNL     1      -2.183  -9.516  -0.852  0.00  0.00    +0.167 A 
ATOM     10  C   UNL     1      -2.525  -8.520  -1.767  0.00  0.00    +0.169 A 
ATOM     11  C   UNL     1      -1.742  -7.385  -1.875  0.00  0.00    +0.073 A 
ATOM     12  O   UNL     1      -3.668  -8.906  -2.417  0.00  0.00    -0.447 OA
ATOM     13  C   UNL     1      -3.706 -10.328  -2.232  0.00  0.00    +0.254 C 
ATOM     14  O   UNL     1      -3.116 -10.518  -0.938  0.00  0.00    -0.448 OA
ATOM     15  C   UNL     1      -5.146 -10.852  -2.267  0.00  0.00    +0.093 C 
ATOM     16  C   UNL     1      -5.307 -11.406  -3.707  0.00  0.00    +0.008 C 
ATOM     17  C   UNL     1      -3.917 -12.028  -3.995  0.00  0.00    +0.008 C 
ATOM     18  C   UNL     1      -2.920 -11.058  -3.321  0.00  0.00    +0.093 C 
ENDBRANCH   4   6
ENDBRANCH   1   2
BRANCH   1  19
ATOM     19  N   UNL     1      -0.241  -2.604  -2.214  0.00  0.00    -0.299 N 
ATOM     20  C   UNL     1      -1.450  -2.175  -1.801  0.00  0.00    +0.251 C 
ATOM     21  O   UNL     1      -1.961  -2.660  -0.809  0.00  0.00    -0.270 OA
ATOM     22  H   UNL     1       0.167  -2.218  -3.004  0.00  0.00    +0.150 HD
BRANCH  20  23
ATOM     23  C   UNL     1      -2.149  -1.125  -2.546  0.00  0.00    +0.074 A 
ATOM     24  C   UNL     1      -3.382  -0.544  -2.291  0.00  0.00    +0.021 A 
ATOM     25  C   UNL     1      -3.779   0.428  -3.178  0.00  0.00    +0.008 A 
ATOM     26  C   UNL     1      -2.965   0.748  -4.214  0.00  0.00    +0.046 A 
ATOM     27  S   UNL     1      -1.632  -0.255  -4.014  0.00  0.00    -0.092 S 
ENDBRANCH  20  23
ENDBRANCH   1  19
BRANCH   1  28
ATOM     28  C   UNL     1       0.703  -3.184  -0.033  0.00  0.00    +0.065 C 
BRANCH  28  35
ATOM     29  C   UNL     1       0.003   1.351  -0.003  0.00  0.00    +0.001 A 
ATOM     30  C   UNL     1       1.186   2.102  -0.020  0.00  0.00    +0.002 A 
ATOM     31  C   UNL     1       2.410   1.534  -0.043  0.00  0.00    +0.026 A 
ATOM     32  C   UNL     1       2.546   0.119  -0.050  0.00  0.00    +0.043 A 
ATOM     33  N   UNL     1       3.603  -0.657  -0.072  0.00  0.00    -0.380 N 
ATOM     34  C   UNL     1       3.157  -2.055  -0.070  0.00  0.00    +0.144 C 
ATOM     35  C   UNL     1       1.645  -2.008  -0.044  0.00  0.00    -0.039 C 
ATOM     36  C   UNL     1       1.311  -0.698  -0.033  0.00  0.00    -0.001 A 
ATOM     37  C   UNL     1       0.019  -0.002  -0.008  0.00  0.00    +0.010 A 
ATOM     38  H   UNL     1       4.525  -0.357  -0.086  0.00  0.00    +0.160 HD
ENDBRANCH  28  35
ENDBRANCH   1  28
TORSDOF 6
