REMARK  Name = ZINC45912298
REMARK  14 active torsions:
REMARK  status: ('A' for Active; 'I' for Inactive)
REMARK    1  A    between atoms: C_1  and  C_2
REMARK    2  A    between atoms: C_2  and  C_3
REMARK    3  A    between atoms: C_2  and  C_4
REMARK    4  A    between atoms: C_4  and  C_6
REMARK    5  A    between atoms: C_4  and  N_13
REMARK    6  A    between atoms: N_8  and  C_9
REMARK    7  A    between atoms: C_9  and  C_10
REMARK    8  A    between atoms: C_9  and  C_11
REMARK    9  A    between atoms: C_9  and  C_12
REMARK   10  A    between atoms: N_13  and  C_14
REMARK   11  A    between atoms: C_14  and  C_15
REMARK   12  A    between atoms: C_15  and  C_16
REMARK   13  A    between atoms: C_19  and  S_22
REMARK   14  A    between atoms: S_22  and  N_25
REMARK                            x       y       z     vdW  Elec       q    Type
REMARK                         _______ _______ _______ _____ _____    ______ ____
ROOT
ATOM      1  N   UNL     1      -2.396  -0.212  -1.060  0.00  0.00    +0.387 N 
ATOM      2  H   UNL     1      -2.080  -0.534  -1.962  0.00  0.00    -0.085 HD
ATOM      3  H   UNL     1      -3.293  -0.625  -0.850  0.00  0.00    -0.085 HD
ENDROOT
BRANCH   1   4
ATOM      4  C   UNL     1      -1.423  -0.606  -0.032  0.00  0.00    +0.019 C 
BRANCH   4   5
ATOM      5  C   UNL     1      -1.409  -2.107   0.097  0.00  0.00    +0.200 C 
ATOM      6  O   UNL     1      -1.965  -2.793  -0.735  0.00  0.00    -0.278 OA
ATOM      7  N   UNL     1      -0.777  -2.689   1.136  0.00  0.00    -0.312 N 
ATOM      8  H   UNL     1      -0.383  -2.140   1.832  0.00  0.00    +0.149 HD
BRANCH   7   9
ATOM      9  C   UNL     1      -0.687  -4.149   1.215  0.00  0.00    +0.026 C 
ATOM     10  C   UNL     1       0.055  -4.681  -0.013  0.00  0.00    +0.031 C 
ATOM     11  C   UNL     1       0.073  -4.545   2.482  0.00  0.00    +0.031 C 
ATOM     12  C   UNL     1      -2.096  -4.745   1.258  0.00  0.00    +0.031 C 
ENDBRANCH   7   9
ENDBRANCH   4   5
BRANCH   4  14
ATOM     13  C   UNL     1       0.953  -0.386   0.708  0.00  0.00    +0.006 C 
ATOM     14  C   UNL     1      -0.031  -0.115  -0.432  0.00  0.00    -0.023 C 
ATOM     15  C   UNL     1       0.429  -0.854  -1.690  0.00  0.00    +0.006 C 
ENDBRANCH   4  14
ENDBRANCH   1   4
BRANCH   1  16
ATOM     16  C   UNL     1      -2.523   1.251  -1.079  0.00  0.00    -0.077 C 
BRANCH  16  17
ATOM     17  C   UNL     1      -3.636   1.654  -2.047  0.00  0.00    +0.016 C 
BRANCH  17  18
ATOM     18  C   UNL     1      -3.767   3.155  -2.067  0.00  0.00    -0.049 A 
ATOM     19  C   UNL     1      -4.619   3.787  -1.180  0.00  0.00    +0.005 A 
ATOM     20  C   UNL     1      -4.738   5.164  -1.198  0.00  0.00    +0.029 A 
ATOM     21  C   UNL     1      -4.005   5.910  -2.102  0.00  0.00    +0.105 A 
ATOM     22  C   UNL     1      -3.152   5.278  -2.988  0.00  0.00    +0.029 A 
ATOM     23  C   UNL     1      -3.030   3.902  -2.967  0.00  0.00    +0.005 A 
BRANCH  21  24
ATOM     24  S   UNL     1      -4.159   7.665  -2.125  0.00  0.00    +0.056 S 
ATOM     25  O   UNL     1      -3.779   8.088  -3.427  0.00  0.00    -0.153 OA
ATOM     26  O   UNL     1      -5.429   7.969  -1.565  0.00  0.00    -0.153 OA
BRANCH  24  27
ATOM     27  N   UNL     1      -3.024   8.269  -1.081  0.00  0.00    -0.204 NA
ATOM     28  H   UNL     1      -2.437   7.665  -0.600  0.00  0.00    +0.144 HD
ATOM     29  H   UNL     1      -2.946   9.227  -0.951  0.00  0.00    +0.144 HD
ENDBRANCH  24  27
ENDBRANCH  21  24
ENDBRANCH  17  18
ENDBRANCH  16  17
ENDBRANCH   1  16
TORSDOF 9
