REMARK  Name = ZINC40816188
REMARK  5 active torsions:
REMARK  status: ('A' for Active; 'I' for Inactive)
REMARK    1  A    between atoms: C_1  and  C_2
REMARK    2  A    between atoms: C_6  and  O_23
REMARK    3  A    between atoms: C_7  and  O_22
REMARK    4  A    between atoms: C_13  and  C_15
REMARK    5  A    between atoms: C_17  and  N_21
REMARK                            x       y       z     vdW  Elec       q    Type
REMARK                         _______ _______ _______ _____ _____    ______ ____
ROOT
ATOM      1  C   UNL     1      -0.014   1.111  -0.386  0.00  0.00    +0.033 C 
ATOM      2  C   UNL     1      -0.004  -0.398  -0.135  0.00  0.00    +0.104 C 
ATOM      3  C   UNL     1       0.689  -1.093  -1.280  0.00  0.00    -0.020 A 
ATOM      4  C   UNL     1       0.027  -1.143  -2.501  0.00  0.00    +0.055 A 
ATOM      5  C   UNL     1       0.613  -1.756  -3.593  0.00  0.00    +0.159 A 
ATOM      6  C   UNL     1       1.877  -2.325  -3.465  0.00  0.00    +0.158 A 
ATOM      7  C   UNL     1       2.529  -2.276  -2.247  0.00  0.00    +0.053 A 
ATOM      8  C   UNL     1       1.935  -1.664  -1.150  0.00  0.00    -0.037 A 
ATOM      9  C   UNL     1       2.696  -1.675   0.150  0.00  0.00    +0.054 C 
ATOM     10  C   UNL     1       2.176  -0.593   1.094  0.00  0.00    +0.113 C 
ATOM     11  N   UNL     1       0.707  -0.680   1.116  0.00  0.00    -0.290 N 
ATOM     12  C   UNL     1       0.042  -1.006   2.242  0.00  0.00    +0.249 C 
ATOM     13  O   UNL     1       0.658  -1.311   3.245  0.00  0.00    -0.270 OA
ENDROOT
BRANCH  12  14
ATOM     14  C   UNL     1      -1.436  -0.991   2.259  0.00  0.00    +0.057 A 
ATOM     15  C   UNL     1      -2.146  -0.043   1.513  0.00  0.00    +0.038 A 
ATOM     16  C   UNL     1      -3.535  -0.073   1.563  0.00  0.00    +0.044 A 
ATOM     17  C   UNL     1      -4.164  -1.035   2.344  0.00  0.00    +0.133 A 
ATOM     18  N   UNL     1      -3.463  -1.914   3.034  0.00  0.00    -0.261 NA
ATOM     19  C   UNL     1      -2.146  -1.926   3.013  0.00  0.00    +0.123 A 
BRANCH  16  20
ATOM     20  N   UNL     1      -4.289   0.853   0.837  0.00  0.00    -0.357 N 
ATOM     21  H   UNL     1      -3.844   1.522   0.294  0.00  0.00    +0.142 HD
ATOM     22  H   UNL     1      -5.258   0.827   0.876  0.00  0.00    +0.142 HD
ENDBRANCH  16  20
ENDBRANCH  12  14
BRANCH   6  23
ATOM     23  O   UNL     1       2.466  -2.927  -4.532  0.00  0.00    -0.503 OA
ATOM     24  H   UNL     1       3.007  -2.333  -5.070  0.00  0.00    +0.292 HD
ENDBRANCH   6  23
BRANCH   5  25
ATOM     25  O   UNL     1      -0.041  -1.803  -4.784  0.00  0.00    -0.503 OA
ATOM     26  H   UNL     1       0.139  -1.048  -5.362  0.00  0.00    +0.292 HD
ENDBRANCH   5  25
TORSDOF 4
