REMARK  Name = ZINC53044592
REMARK  10 active torsions:
REMARK  status: ('A' for Active; 'I' for Inactive)
REMARK    1  A    between atoms: C_1  and  C_2
REMARK    2  A    between atoms: C_2  and  C_3
REMARK    3  A    between atoms: C_3  and  C_4
REMARK    4  A    between atoms: C_3  and  C_6
REMARK    5  A    between atoms: C_3  and  N_8
REMARK    6  A    between atoms: C_4  and  C_5
REMARK    7  A    between atoms: C_6  and  O_7
REMARK    8  A    between atoms: N_8  and  S_9
REMARK    9  A    between atoms: S_9  and  C_12
REMARK   10  A    between atoms: C_13  and  N_20
REMARK                            x       y       z     vdW  Elec       q    Type
REMARK                         _______ _______ _______ _____ _____    ______ ____
ROOT
ATOM      1  S   UNL     1      -1.549  -0.078   2.508  0.00  0.00    +0.062 S 
ATOM      2  O   UNL     1      -2.146  -1.355   2.687  0.00  0.00    -0.153 OA
ATOM      3  O   UNL     1      -1.615   0.940   3.497  0.00  0.00    -0.153 OA
ENDROOT
BRANCH   1   4
ATOM      4  C   UNL     1      -2.244   0.601   1.038  0.00  0.00    +0.144 A 
ATOM      5  C   UNL     1      -1.936   1.901   0.659  0.00  0.00    +0.054 A 
ATOM      6  C   UNL     1      -2.485   2.433  -0.500  0.00  0.00    +0.044 A 
ATOM      7  C   UNL     1      -3.337   1.667  -1.274  0.00  0.00    +0.044 A 
ATOM      8  C   UNL     1      -3.643   0.372  -0.894  0.00  0.00    +0.042 A 
ATOM      9  C   UNL     1      -3.092  -0.162   0.258  0.00  0.00    +0.070 A 
ATOM     10 CL   UNL     1      -3.473  -1.790   0.727  0.00  0.00    -0.081 Cl
ATOM     11 CL   UNL     1      -4.025   2.331  -2.723  0.00  0.00    -0.083 Cl
BRANCH   5  12
ATOM     12  N   UNL     1      -1.075   2.673   1.443  0.00  0.00    -0.356 N 
ATOM     13  H   UNL     1      -0.606   2.269   2.190  0.00  0.00    +0.142 HD
ATOM     14  H   UNL     1      -0.946   3.612   1.240  0.00  0.00    +0.142 HD
ENDBRANCH   5  12
ENDBRANCH   1   4
BRANCH   1  15
ATOM     15  N   UNL     1       0.059  -0.345   2.211  0.00  0.00    -0.182 NA
ATOM     16  H   UNL     1       0.731   0.163   2.691  0.00  0.00    +0.149 HD
BRANCH  15  17
ATOM     17  C   UNL     1       0.465  -1.348   1.224  0.00  0.00    +0.062 C 
BRANCH  17  19
ATOM     18  C   UNL     1       0.723   0.415  -0.528  0.00  0.00    +0.006 C 
ATOM     19  C   UNL     1       0.024  -0.898  -0.171  0.00  0.00    +0.022 C 
ENDBRANCH  17  19
BRANCH  17  20
ATOM     20  C   UNL     1      -0.192  -2.688   1.558  0.00  0.00    +0.022 C 
ATOM     21  C   UNL     1       0.138  -3.071   3.003  0.00  0.00    +0.006 C 
ENDBRANCH  17  20
BRANCH  17  22
ATOM     22  C   UNL     1       1.986  -1.504   1.252  0.00  0.00    +0.179 C 
BRANCH  22  23
ATOM     23  O   UNL     1       2.382  -2.483   0.288  0.00  0.00    -0.393 OA
ATOM     24  H   UNL     1       3.337  -2.634   0.251  0.00  0.00    +0.209 HD
ENDBRANCH  22  23
ENDBRANCH  17  22
ENDBRANCH  15  17
ENDBRANCH   1  15
TORSDOF 8
