REMARK  Name = ZINC39688733
REMARK  7 active torsions:
REMARK  status: ('A' for Active; 'I' for Inactive)
REMARK    1  A    between atoms: C_1  and  C_2
REMARK    2  A    between atoms: C_2  and  C_4
REMARK    3  A    between atoms: C_2  and  N_12
REMARK    4  A    between atoms: C_4  and  C_5
REMARK    5  A    between atoms: C_13  and  C_15
REMARK    6  A    between atoms: C_26  and  C_28
REMARK    7  A    between atoms: C_31  and  C_33
REMARK                            x       y       z     vdW  Elec       q    Type
REMARK                         _______ _______ _______ _____ _____    ______ ____
ROOT
ATOM      1  C   UNL     1       2.384  -1.213   1.087  0.00  0.00    +0.100 C 
ATOM      2  C   UNL     1       2.267  -2.738   1.306  0.00  0.00    +0.121 C 
ATOM      3  N   UNL     1       3.383  -3.316   0.521  0.00  0.00    -0.294 N 
ATOM      4  C   UNL     1       4.510  -2.376   0.736  0.00  0.00    +0.115 C 
ATOM      5  C   UNL     1       3.858  -0.979   0.716  0.00  0.00    -0.004 C 
ATOM      6  C   UNL     1       4.524  -0.071   1.746  0.00  0.00    -0.010 C 
ATOM      7  C   UNL     1       5.972   0.194   1.325  0.00  0.00    -0.082 C 
ATOM      8  N   UNL     1       5.990   0.827   0.000  0.00  0.00    +0.379 N 
ATOM      9  C   UNL     1       5.433  -0.091  -1.001  0.00  0.00    -0.082 C 
ATOM     10  C   UNL     1       3.962  -0.368  -0.678  0.00  0.00    -0.010 C 
ATOM     11  C   UNL     1       3.376  -4.441  -0.220  0.00  0.00    +0.282 C 
ATOM     12  O   UNL     1       4.405  -4.837  -0.736  0.00  0.00    -0.267 OA
ATOM     13  H   UNL     1       5.439   1.671   0.025  0.00  0.00    -0.086 HD
ATOM     14  H   UNL     1       6.941   1.056  -0.249  0.00  0.00    -0.086 HD
ENDROOT
BRANCH  11  15
ATOM     15  C   UNL     1       2.130  -5.189  -0.405  0.00  0.00    +0.190 A 
ATOM     16  C   UNL     1       2.001  -6.400  -1.049  0.00  0.00    +0.055 A 
ATOM     17  C   UNL     1       0.647  -6.745  -0.992  0.00  0.00    +0.051 A 
ATOM     18  C   UNL     1       0.005  -5.743  -0.322  0.00  0.00    +0.139 A 
ATOM     19  O   UNL     1       0.909  -4.814   0.032  0.00  0.00    -0.450 OA
BRANCH  18  20
ATOM     20  C   UNL     1      -1.441  -5.692  -0.029  0.00  0.00    +0.052 A 
ATOM     21  C   UNL     1      -2.371  -5.797  -1.066  0.00  0.00    +0.014 A 
ATOM     22  C   UNL     1      -3.720  -5.748  -0.786  0.00  0.00    +0.001 A 
ATOM     23  C   UNL     1      -4.156  -5.597   0.519  0.00  0.00    +0.003 A 
ATOM     24  C   UNL     1      -3.243  -5.492   1.552  0.00  0.00    +0.039 A 
ATOM     25  C   UNL     1      -1.887  -5.545   1.288  0.00  0.00    +0.134 A 
ATOM     26  F   UNL     1      -0.996  -5.448   2.298  0.00  0.00    -0.205 F 
ENDBRANCH  18  20
ENDBRANCH  11  15
BRANCH   1  28
ATOM     27  N   UNL     1       1.048   0.500  -0.096  0.00  0.00    -0.312 N 
ATOM     28  C   UNL     1       1.484  -0.774  -0.039  0.00  0.00    +0.218 C 
ATOM     29  O   UNL     1       1.151  -1.568  -0.894  0.00  0.00    -0.275 OA
ATOM     30  H   UNL     1       1.253   1.115   0.625  0.00  0.00    +0.149 HD
BRANCH  27  32
ATOM     31  C   UNL     1       1.211   1.357  -2.381  0.00  0.00    +0.028 C 
ATOM     32  C   UNL     1       0.265   0.955  -1.248  0.00  0.00    +0.074 C 
BRANCH  32  33
ATOM     33  C   UNL     1      -0.585   2.160  -0.841  0.00  0.00    +0.057 C 
BRANCH  33  34
ATOM     34  C   UNL     1      -1.618   1.730   0.169  0.00  0.00    -0.045 A 
ATOM     35  C   UNL     1      -2.810   1.173  -0.257  0.00  0.00    +0.006 A 
ATOM     36  C   UNL     1      -3.757   0.777   0.669  0.00  0.00    +0.038 A 
ATOM     37  C   UNL     1      -3.511   0.938   2.022  0.00  0.00    +0.123 A 
ATOM     38  C   UNL     1      -2.317   1.494   2.446  0.00  0.00    +0.038 A 
ATOM     39  C   UNL     1      -1.369   1.885   1.520  0.00  0.00    +0.006 A 
ATOM     40  F   UNL     1      -4.437   0.551   2.927  0.00  0.00    -0.205 F 
ENDBRANCH  33  34
ENDBRANCH  32  33
ENDBRANCH  27  32
ENDBRANCH   1  28
TORSDOF 6
