REMARK  Name = ZINC00654377
REMARK  3 active torsions:
REMARK  status: ('A' for Active; 'I' for Inactive)
REMARK    1  A    between atoms: C_3  and  C_19
REMARK    2  A    between atoms: C_6  and  C_7
REMARK    3  A    between atoms: C_10  and  C_13
REMARK                            x       y       z     vdW  Elec       q    Type
REMARK                         _______ _______ _______ _____ _____    ______ ____
ROOT
ATOM      1  C   UNL     1      -0.017   1.373   0.010  0.00  0.00    +0.009 A 
ATOM      2  C   UNL     1       0.002  -0.004   0.002  0.00  0.00    +0.010 A 
ATOM      3  C   UNL     1       1.220  -0.685  -0.013  0.00  0.00    +0.001 A 
ATOM      4  C   UNL     1       2.418   0.029  -0.021  0.00  0.00    +0.010 A 
ATOM      5  C   UNL     1       2.400   1.406  -0.013  0.00  0.00    +0.009 A 
ATOM      6  C   UNL     1       1.182   2.087   0.002  0.00  0.00    -0.018 A 
ENDROOT
BRANCH   3   7
ATOM      7  C   UNL     1       1.240  -2.167  -0.022  0.00  0.00    +0.080 A 
ATOM      8  C   UNL     1       2.428  -2.842  -0.042  0.00  0.00    +0.076 A 
ATOM      9  S   UNL     1       1.851  -4.534  -0.042  0.00  0.00    -0.060 S 
ATOM     10  C   UNL     1       0.100  -4.176  -0.024  0.00  0.00    +0.156 A 
ATOM     11  N   UNL     1       0.100  -2.856  -0.016  0.00  0.00    -0.225 NA
ATOM     12  N   UNL     1      -0.973  -5.052  -0.018  0.00  0.00    -0.338 N 
ATOM     13  H   UNL     1      -1.880  -4.708  -0.007  0.00  0.00    +0.144 HD
ATOM     14  H   UNL     1      -0.817  -6.009  -0.026  0.00  0.00    +0.144 HD
ENDBRANCH   3   7
BRANCH   6  15
ATOM     15  C   UNL     1       1.162   3.569   0.010  0.00  0.00    -0.018 A 
ATOM     16  C   UNL     1      -0.056   4.250   0.020  0.00  0.00    +0.009 A 
ATOM     17  C   UNL     1      -0.074   5.627   0.033  0.00  0.00    +0.010 A 
ATOM     18  C   UNL     1       1.124   6.341   0.025  0.00  0.00    +0.001 A 
ATOM     19  C   UNL     1       2.342   5.660   0.010  0.00  0.00    +0.010 A 
ATOM     20  C   UNL     1       2.361   4.283   0.003  0.00  0.00    +0.009 A 
BRANCH  18  21
ATOM     21  C   UNL     1       1.104   7.823   0.033  0.00  0.00    +0.080 A 
ATOM     22  C   UNL     1      -0.084   8.497   0.043  0.00  0.00    +0.076 A 
ATOM     23  S   UNL     1       0.493  10.190   0.051  0.00  0.00    -0.060 S 
ATOM     24  C   UNL     1       2.244   9.832   0.031  0.00  0.00    +0.156 A 
ATOM     25  N   UNL     1       2.244   8.511   0.025  0.00  0.00    -0.225 NA
ATOM     26  N   UNL     1       3.317  10.708   0.025  0.00  0.00    -0.338 N 
ATOM     27  H   UNL     1       4.223  10.364   0.015  0.00  0.00    +0.144 HD
ATOM     28  H   UNL     1       3.161  11.665   0.031  0.00  0.00    +0.144 HD
ENDBRANCH  18  21
ENDBRANCH   6  15
TORSDOF 3
