REMARK  Name = ZINC62833375
REMARK  5 active torsions:
REMARK  status: ('A' for Active; 'I' for Inactive)
REMARK    1  A    between atoms: C_1  and  N_2
REMARK    2  A    between atoms: N_2  and  C_3
REMARK    3  A    between atoms: C_6  and  C_10
REMARK    4  A    between atoms: C_8  and  N_9
REMARK    5  A    between atoms: C_13  and  C_15
REMARK                            x       y       z     vdW  Elec       q    Type
REMARK                         _______ _______ _______ _____ _____    ______ ____
ROOT
ATOM      1  C   UNL     1      -0.334  -0.678   1.200  0.00  0.00    +0.057 A 
ATOM      2  C   UNL     1      -1.586  -1.042   1.681  0.00  0.00    +0.026 A 
ATOM      3  C   UNL     1      -1.699  -1.721   2.873  0.00  0.00    +0.017 A 
ATOM      4  C   UNL     1      -0.553  -2.046   3.606  0.00  0.00    +0.065 A 
ATOM      5  C   UNL     1       0.709  -1.681   3.124  0.00  0.00    +0.039 A 
ATOM      6  C   UNL     1       0.817  -1.005   1.923  0.00  0.00    +0.047 A 
ENDROOT
BRANCH   1   8
ATOM      7  C   UNL     1      -0.244   1.475  -0.021  0.00  0.00    +0.138 C 
ATOM      8  N   UNL     1      -0.225   0.010  -0.008  0.00  0.00    -0.269 N 
ATOM      9  C   UNL     1      -0.102  -0.673  -1.163  0.00  0.00    +0.254 C 
ATOM     10  O   UNL     1       0.085  -0.075  -2.206  0.00  0.00    -0.270 OA
BRANCH   9  11
ATOM     11  C   UNL     1      -0.193  -2.144  -1.163  0.00  0.00    +0.074 A 
ATOM     12  C   UNL     1      -0.287  -2.959  -0.053  0.00  0.00    +0.118 A 
ATOM     13  N   UNL     1      -0.348  -4.228  -0.489  0.00  0.00    -0.284 N 
ATOM     14  H   UNL     1      -0.419  -5.017   0.070  0.00  0.00    +0.188 HD
ATOM     15  N   UNL     1      -0.292  -4.219  -1.888  0.00  0.00    -0.182 NA
ATOM     16  C   UNL     1      -0.206  -2.984  -2.299  0.00  0.00    +0.147 A 
ENDBRANCH   9  11
ENDBRANCH   1   8
BRANCH   6  17
ATOM     17  N   UNL     1       2.077  -0.642   1.435  0.00  0.00    -0.357 N 
ATOM     18  H   UNL     1       2.152  -0.164   0.594  0.00  0.00    +0.142 HD
ATOM     19  H   UNL     1       2.876  -0.870   1.936  0.00  0.00    +0.142 HD
ENDBRANCH   6  17
BRANCH   4  20
ATOM     20  C   UNL     1      -0.673  -2.772   4.881  0.00  0.00    +0.387 C 
ATOM     21  O   UNL     1      -1.777  -3.090   5.302  0.00  0.00    -0.241 OA
ATOM     22  O   UNL     1       0.330  -3.056   5.521  0.00  0.00    -0.241 OA
ENDBRANCH   4  20
TORSDOF 4
