REMARK  Name = ZINC48858782
REMARK  4 active torsions:
REMARK  status: ('A' for Active; 'I' for Inactive)
REMARK    1  A    between atoms: C_5  and  C_8
REMARK    2  A    between atoms: C_8  and  O_9
REMARK    3  A    between atoms: C_14  and  O_22
REMARK    4  A    between atoms: C_17  and  C_19
REMARK                            x       y       z     vdW  Elec       q    Type
REMARK                         _______ _______ _______ _____ _____    ______ ____
ROOT
ATOM      1  C   UNL     1      -0.253   1.779  -0.625  0.00  0.00    +0.003 C 
ATOM      2  C   UNL     1       1.138   2.408  -0.727  0.00  0.00    +0.019 C 
ATOM      3  C   UNL     1       1.974   1.627  -1.745  0.00  0.00    +0.110 C 
ATOM      4  N   UNL     1       1.980   0.208  -1.363  0.00  0.00    -0.280 N 
ATOM      5  C   UNL     1       0.695  -0.472  -1.150  0.00  0.00    +0.103 C 
ATOM      6  C   UNL     1      -0.127   0.334  -0.138  0.00  0.00    +0.025 C 
ATOM      7  C   UNL     1       3.143  -0.457  -1.211  0.00  0.00    +0.306 C 
ATOM      8  O   UNL     1       3.137  -1.663  -1.057  0.00  0.00    -0.252 OA
ATOM      9  N   UNL     1       4.311   0.214  -1.230  0.00  0.00    -0.269 N 
ATOM     10  C   UNL     1       4.463   1.676  -1.115  0.00  0.00    +0.141 C 
ATOM     11  C   UNL     1       5.900   1.884  -0.574  0.00  0.00    +0.134 C 
ATOM     12  C   UNL     1       6.675   0.758  -1.308  0.00  0.00    +0.067 C 
ATOM     13  C   UNL     1       5.645  -0.390  -1.361  0.00  0.00    +0.193 C 
ENDROOT
BRANCH  13  14
ATOM     14  C   UNL     1       5.752  -1.111  -2.680  0.00  0.00    +0.376 C 
ATOM     15  O   UNL     1       5.115  -0.719  -3.643  0.00  0.00    -0.244 OA
ATOM     16  O   UNL     1       6.477  -2.086  -2.784  0.00  0.00    -0.244 OA
ENDBRANCH  13  14
BRANCH  11  17
ATOM     17  O   UNL     1       6.402   3.172  -0.935  0.00  0.00    -0.390 OA
ATOM     18  H   UNL     1       5.889   3.909  -0.578  0.00  0.00    +0.210 HD
ENDBRANCH  11  17
BRANCH   5  19
ATOM     19  C   UNL     1       0.944  -1.881  -0.607  0.00  0.00    +0.178 C 
BRANCH  19  20
ATOM     20  O   UNL     1       1.619  -1.795   0.649  0.00  0.00    -0.393 OA
ATOM     21  H   UNL     1       1.810  -2.653   1.052  0.00  0.00    +0.209 HD
ENDBRANCH  19  20
ENDBRANCH   5  19
TORSDOF 4
