REMARK  Name = ZINC01261607
REMARK  13 active torsions:
REMARK  status: ('A' for Active; 'I' for Inactive)
REMARK    1  A    between atoms: C_1  and  C_2
REMARK    2  A    between atoms: C_5  and  C_8
REMARK    3  A    between atoms: C_11  and  S_21
REMARK    4  A    between atoms: N_12  and  C_13
REMARK    5  A    between atoms: C_16  and  O_19
REMARK    6  A    between atoms: O_19  and  C_20
REMARK    7  A    between atoms: S_21  and  C_22
REMARK    8  A    between atoms: C_22  and  C_23
REMARK    9  A    between atoms: N_25  and  N_26
REMARK   10  A    between atoms: C_27  and  C_28
REMARK   11  A    between atoms: C_27  and  C_29
REMARK   12  A    between atoms: C_32  and  O_35
REMARK   13  A    between atoms: O_35  and  C_36
REMARK                            x       y       z     vdW  Elec       q    Type
REMARK                         _______ _______ _______ _____ _____    ______ ____
ROOT
ATOM      1  C   UNL     1      -2.501   0.983  -0.131  0.00  0.00    +0.169 A 
ATOM      2  N   UNL     1      -2.643  -0.300   0.109  0.00  0.00    -0.128 NA
ATOM      3  N   UNL     1      -3.890  -0.589   0.228  0.00  0.00    -0.122 NA
ATOM      4  C   UNL     1      -4.622   0.492   0.070  0.00  0.00    +0.197 A 
ATOM      5  N   UNL     1      -3.764   1.532  -0.158  0.00  0.00    -0.270 N 
ENDROOT
BRANCH   1  10
ATOM      6  C   UNL     1       2.463   3.792  -0.892  0.00  0.00    +0.044 C 
ATOM      7  C   UNL     1       1.164   3.055  -0.695  0.00  0.00    -0.050 A 
ATOM      8  C   UNL     1      -0.024   3.632  -1.109  0.00  0.00    +0.004 A 
ATOM      9  C   UNL     1      -1.218   2.963  -0.932  0.00  0.00    +0.012 A 
ATOM     10  C   UNL     1      -1.225   1.704  -0.329  0.00  0.00    +0.020 A 
ATOM     11  C   UNL     1      -0.023   1.126   0.082  0.00  0.00    +0.012 A 
ATOM     12  C   UNL     1       1.164   1.806  -0.102  0.00  0.00    +0.004 A 
ENDBRANCH   1  10
BRANCH   5  13
ATOM     13  C   UNL     1      -4.100   2.877  -0.377  0.00  0.00    +0.051 A 
ATOM     14  C   UNL     1      -3.775   3.837   0.572  0.00  0.00    +0.030 A 
ATOM     15  C   UNL     1      -4.101   5.161   0.354  0.00  0.00    +0.047 A 
ATOM     16  C   UNL     1      -4.764   5.530  -0.807  0.00  0.00    +0.120 A 
ATOM     17  C   UNL     1      -5.095   4.570  -1.753  0.00  0.00    +0.047 A 
ATOM     18  C   UNL     1      -4.764   3.247  -1.538  0.00  0.00    +0.030 A 
BRANCH  16  19
ATOM     19  O   UNL     1      -5.090   6.832  -1.018  0.00  0.00    -0.495 OA
ATOM     20  C   UNL     1      -4.719   7.767  -0.003  0.00  0.00    +0.277 C 
ENDBRANCH  16  19
ENDBRANCH   5  13
BRANCH   4  21
ATOM     21  S   UNL     1      -6.380   0.584   0.148  0.00  0.00    -0.076 S 
BRANCH  21  22
ATOM     22  C   UNL     1      -6.771  -1.151   0.483  0.00  0.00    +0.174 C 
BRANCH  22  23
ATOM     23  C   UNL     1      -8.265  -1.317   0.593  0.00  0.00    +0.242 C 
ATOM     24  O   UNL     1      -8.993  -0.356   0.458  0.00  0.00    -0.273 OA
ATOM     25  N   UNL     1      -8.791  -2.533   0.842  0.00  0.00    -0.206 N 
ATOM     26  H   UNL     1      -8.209  -3.301   0.950  0.00  0.00    +0.177 HD
BRANCH  25  27
ATOM     27  N   UNL     1     -10.180  -2.687   0.944  0.00  0.00    -0.185 NA
ATOM     28  C   UNL     1     -10.687  -3.857   1.183  0.00  0.00    +0.063 C 
ATOM     29  C   UNL     1      -9.782  -5.051   1.351  0.00  0.00    +0.068 C 
BRANCH  28  30
ATOM     30  C   UNL     1     -12.148  -4.020   1.291  0.00  0.00    -0.002 A 
ATOM     31  C   UNL     1     -12.697  -5.280   1.543  0.00  0.00    +0.013 A 
ATOM     32  C   UNL     1     -14.063  -5.426   1.649  0.00  0.00    +0.046 A 
ATOM     33  C   UNL     1     -14.895  -4.325   1.493  0.00  0.00    +0.120 A 
ATOM     34  C   UNL     1     -14.355  -3.071   1.237  0.00  0.00    +0.046 A 
ATOM     35  C   UNL     1     -12.989  -2.914   1.136  0.00  0.00    +0.013 A 
BRANCH  33  36
ATOM     36  O   UNL     1     -16.242  -4.474   1.593  0.00  0.00    -0.495 OA
ATOM     37  C   UNL     1     -16.731  -5.790   1.857  0.00  0.00    +0.277 C 
ENDBRANCH  33  36
ENDBRANCH  28  30
ENDBRANCH  25  27
ENDBRANCH  22  23
ENDBRANCH  21  22
ENDBRANCH   4  21
TORSDOF 9
