REMARK  Name = ZINC12889261
REMARK  4 active torsions:
REMARK  status: ('A' for Active; 'I' for Inactive)
REMARK    1  A    between atoms: C_4  and  C_7
REMARK    2  A    between atoms: C_7  and  C_9
REMARK    3  A    between atoms: C_7  and  N_18
REMARK    4  A    between atoms: C_25  and  C_28
REMARK                            x       y       z     vdW  Elec       q    Type
REMARK                         _______ _______ _______ _____ _____    ______ ____
ROOT
ATOM      1  C   UNL     1       0.002  -0.004   0.002  0.00  0.00    +0.168 C 
ENDROOT
BRANCH   1   2
ATOM      2  N   UNL     1      -1.058  -0.502  -0.878  0.00  0.00    -0.314 N 
ATOM      3  C   UNL     1      -0.827  -0.624  -2.244  0.00  0.00    +0.141 A 
ATOM      4  C   UNL     1       0.428  -0.261  -2.773  0.00  0.00    +0.049 A 
ATOM      5  C   UNL     1       0.666  -0.381  -4.106  0.00  0.00    +0.053 A 
ATOM      6  C   UNL     1      -0.358  -0.861  -4.945  0.00  0.00    +0.178 A 
ATOM      7  N   UNL     1      -0.446  -1.083  -6.247  0.00  0.00    -0.128 NA
ATOM      8  N   UNL     1      -1.621  -1.531  -6.522  0.00  0.00    -0.123 NA
ATOM      9  C   UNL     1      -2.338  -1.619  -5.429  0.00  0.00    +0.258 A 
ATOM     10  N   UNL     1      -1.571  -1.201  -4.400  0.00  0.00    -0.187 N 
ATOM     11  N   UNL     1      -1.782  -1.071  -3.026  0.00  0.00    -0.148 NA
ATOM     12  H   UNL     1      -1.921  -0.746  -0.509  0.00  0.00    +0.149 HD
BRANCH   9  13
ATOM     13  C   UNL     1      -3.763  -2.100  -5.337  0.00  0.00    +0.454 C 
ATOM     14  F   UNL     1      -4.110  -2.760  -6.521  0.00  0.00    -0.163 F 
ATOM     15  F   UNL     1      -3.889  -2.982  -4.258  0.00  0.00    -0.163 F 
ATOM     16  F   UNL     1      -4.614  -1.006  -5.146  0.00  0.00    -0.163 F 
ENDBRANCH   9  13
ENDBRANCH   1   2
BRANCH   1  17
ATOM     17  C   UNL     1      -0.224  -0.517   1.401  0.00  0.00    +0.131 A 
ATOM     18  C   UNL     1       0.740  -0.949   2.225  0.00  0.00    +0.055 A 
ATOM     19  C   UNL     1       0.068  -1.347   3.468  0.00  0.00    +0.020 A 
ATOM     20  C   UNL     1       0.501  -1.865   4.687  0.00  0.00    +0.011 A 
ATOM     21  C   UNL     1      -0.411  -2.141   5.669  0.00  0.00    +0.001 A 
ATOM     22  C   UNL     1      -1.762  -1.907   5.458  0.00  0.00    +0.004 A 
ATOM     23  C   UNL     1      -2.209  -1.395   4.259  0.00  0.00    +0.047 A 
ATOM     24  C   UNL     1      -1.299  -1.108   3.248  0.00  0.00    +0.135 A 
ATOM     25  O   UNL     1      -1.424  -0.613   2.001  0.00  0.00    -0.457 OA
ENDBRANCH   1  17
BRANCH   1  29
ATOM     26  C   UNL     1      -0.056   4.267   0.025  0.00  0.00    +0.000 A 
ATOM     27  C   UNL     1       1.151   3.592   0.010  0.00  0.00    +0.000 A 
ATOM     28  C   UNL     1       1.169   2.210   0.003  0.00  0.00    +0.006 A 
ATOM     29  C   UNL     1      -0.018   1.503   0.010  0.00  0.00    -0.020 A 
ATOM     30  C   UNL     1      -1.225   2.178   0.020  0.00  0.00    +0.006 A 
ATOM     31  C   UNL     1      -1.244   3.560   0.032  0.00  0.00    +0.000 A 
ENDBRANCH   1  29
TORSDOF 4
