REMARK  Name = ZINC58236332
REMARK  7 active torsions:
REMARK  status: ('A' for Active; 'I' for Inactive)
REMARK    1  A    between atoms: C_1  and  C_2
REMARK    2  A    between atoms: C_2  and  C_3
REMARK    3  A    between atoms: C_2  and  N_13
REMARK    4  A    between atoms: C_6  and  N_9
REMARK    5  A    between atoms: C_14  and  C_16
REMARK    6  A    between atoms: C_16  and  S_17
REMARK    7  A    between atoms: S_17  and  C_18
REMARK                            x       y       z     vdW  Elec       q    Type
REMARK                         _______ _______ _______ _____ _____    ______ ____
ROOT
ATOM      1  C   UNL     1       0.169   1.493  -0.121  0.00  0.00    +0.033 C 
ATOM      2  C   UNL     1       0.012  -0.025  -0.012  0.00  0.00    +0.100 C 
ENDROOT
BRANCH   2   3
ATOM      3  C   UNL     1       0.738  -0.518   1.212  0.00  0.00    -0.027 A 
ATOM      4  C   UNL     1       2.110  -0.692   1.178  0.00  0.00    +0.007 A 
ATOM      5  C   UNL     1       2.778  -1.144   2.299  0.00  0.00    +0.023 A 
ATOM      6  C   UNL     1       2.072  -1.425   3.461  0.00  0.00    +0.035 A 
ATOM      7  C   UNL     1       0.694  -1.250   3.492  0.00  0.00    +0.023 A 
ATOM      8  C   UNL     1       0.032  -0.792   2.370  0.00  0.00    +0.007 A 
BRANCH   6   9
ATOM      9  N   UNL     1       2.746  -1.884   4.598  0.00  0.00    -0.270 N 
ATOM     10  C   UNL     1       3.998  -1.458   4.857  0.00  0.00    +0.301 C 
ATOM     11  O   UNL     1       4.506  -0.603   4.157  0.00  0.00    -0.253 OA
ATOM     12  N   UNL     1       4.688  -1.980   5.891  0.00  0.00    -0.313 N 
ATOM     13  H   UNL     1       2.312  -2.509   5.200  0.00  0.00    +0.156 HD
ATOM     14  H   UNL     1       4.282  -2.662   6.449  0.00  0.00    +0.146 HD
ATOM     15  H   UNL     1       5.589  -1.673   6.077  0.00  0.00    +0.146 HD
ENDBRANCH   6   9
ENDBRANCH   2   3
BRANCH   2  16
ATOM     16  N   UNL     1       0.577  -0.661  -1.205  0.00  0.00    -0.308 N 
ATOM     17  C   UNL     1      -0.172  -0.793  -2.317  0.00  0.00    +0.224 C 
ATOM     18  O   UNL     1      -1.314  -0.385  -2.331  0.00  0.00    -0.275 OA
ATOM     19  H   UNL     1       1.490  -0.988  -1.194  0.00  0.00    +0.149 HD
BRANCH  17  20
ATOM     20  C   UNL     1       0.409  -1.448  -3.544  0.00  0.00    +0.170 C 
BRANCH  20  21
ATOM     21  S   UNL     1      -0.837  -1.475  -4.862  0.00  0.00    -0.116 S 
BRANCH  21  22
ATOM     22  C   UNL     1      -0.015  -2.260  -6.209  0.00  0.00    +0.009 A 
ATOM     23  C   UNL     1       1.299  -2.691  -6.069  0.00  0.00    +0.015 A 
ATOM     24  C   UNL     1       1.937  -3.304  -7.126  0.00  0.00    +0.005 A 
ATOM     25  C   UNL     1       1.274  -3.494  -8.329  0.00  0.00    -0.044 A 
ATOM     26  C   UNL     1      -0.033  -3.066  -8.472  0.00  0.00    -0.043 A 
ATOM     27  C   UNL     1      -0.680  -2.455  -7.412  0.00  0.00    +0.018 A 
ATOM     28  C   UNL     1      -0.526  -3.386  -9.867  0.00  0.00    +0.036 C 
ATOM     29  C   UNL     1       0.749  -3.656 -10.694  0.00  0.00    +0.009 C 
ATOM     30  C   UNL     1       1.748  -4.131  -9.618  0.00  0.00    +0.036 C 
ENDBRANCH  21  22
ENDBRANCH  20  21
ENDBRANCH  17  20
ENDBRANCH   2  16
TORSDOF 6
