REMARK  Name = ZINC08995715
REMARK  7 active torsions:
REMARK  status: ('A' for Active; 'I' for Inactive)
REMARK    1  A    between atoms: C_1  and  C_2
REMARK    2  A    between atoms: C_2  and  C_3
REMARK    3  A    between atoms: C_3  and  C_4
REMARK    4  A    between atoms: C_4  and  N_5
REMARK    5  A    between atoms: C_10  and  C_27
REMARK    6  A    between atoms: C_27  and  C_28
REMARK    7  A    between atoms: C_31  and  O_34
REMARK                            x       y       z     vdW  Elec       q    Type
REMARK                         _______ _______ _______ _____ _____    ______ ____
ROOT
ATOM      1  N   UNL     1      -1.255   3.882   1.350  0.00  0.00    -0.242 N 
ATOM      2  C   UNL     1      -0.287   2.990   1.592  0.00  0.00    +0.224 C 
ATOM      3  O   UNL     1       0.814   3.251   2.026  0.00  0.00    -0.275 OA
ATOM      4  C   UNL     1      -0.779   1.605   1.242  0.00  0.00    +0.073 C 
ATOM      5  C   UNL     1      -0.013   1.086   0.008  0.00  0.00    -0.053 C 
ATOM      6  C   UNL     1      -2.186   1.480  -0.754  0.00  0.00    +0.050 C 
ATOM      7  C   UNL     1      -2.228   1.859   0.732  0.00  0.00    +0.088 C 
ATOM      8  C   UNL     1      -2.387   3.357   0.869  0.00  0.00    +0.225 C 
ATOM      9  O   UNL     1      -3.385   3.984   0.586  0.00  0.00    -0.275 OA
ATOM     10  C   UNL     1      -3.075   2.370  -1.576  0.00  0.00    -0.026 A 
ATOM     11  C   UNL     1      -3.116   3.729  -1.793  0.00  0.00    +0.024 A 
ATOM     12  C   UNL     1      -4.080   4.268  -2.627  0.00  0.00    +0.041 A 
ATOM     13  C   UNL     1      -5.001   3.438  -3.242  0.00  0.00    +0.022 A 
ATOM     14  C   UNL     1      -4.963   2.076  -3.027  0.00  0.00    +0.025 A 
ATOM     15  C   UNL     1      -3.996   1.525  -2.189  0.00  0.00    +0.036 A 
ATOM     16  N   UNL     1      -3.755   0.199  -1.821  0.00  0.00    -0.286 N 
ATOM     17  C   UNL     1      -2.708   0.088  -0.980  0.00  0.00    +0.211 C 
ATOM     18  O   UNL     1      -2.271  -0.936  -0.500  0.00  0.00    -0.277 OA
ATOM     19 CL   UNL     1      -4.135   5.982  -2.901  0.00  0.00    -0.084 Cl
ATOM     20  H   UNL     1      -4.280  -0.553  -2.134  0.00  0.00    +0.155 HD
ATOM     21  N   UNL     1      -0.787   1.587  -1.130  0.00  0.00    +0.394 N 
ATOM     22  H   UNL     1      -0.600   1.018  -1.964  0.00  0.00    -0.083 HD
ATOM     23  H   UNL     1      -0.544   2.566  -1.321  0.00  0.00    -0.083 HD
ENDROOT
BRANCH   1  24
ATOM     24  C   UNL     1      -1.088   5.317   1.593  0.00  0.00    +0.116 C 
BRANCH  24  25
ATOM     25  C   UNL     1      -1.522   5.646   3.023  0.00  0.00    +0.019 C 
BRANCH  25  27
ATOM     26  C   UNL     1      -1.782   7.474   4.707  0.00  0.00    +0.004 C 
ATOM     27  C   UNL     1      -1.348   7.145   3.277  0.00  0.00    -0.002 C 
ENDBRANCH  25  27
ENDBRANCH  24  25
ENDBRANCH   1  24
BRANCH   5  28
ATOM     28  C   UNL     1       1.415   1.637  -0.003  0.00  0.00    +0.020 C 
BRANCH  28  29
ATOM     29  C   UNL     1       2.171   1.050  -1.167  0.00  0.00    -0.049 A 
ATOM     30  C   UNL     1       2.878  -0.127  -1.008  0.00  0.00    +0.007 A 
ATOM     31  C   UNL     1       3.568  -0.670  -2.075  0.00  0.00    +0.045 A 
ATOM     32  C   UNL     1       3.559  -0.026  -3.304  0.00  0.00    +0.117 A 
ATOM     33  C   UNL     1       2.853   1.157  -3.460  0.00  0.00    +0.045 A 
ATOM     34  C   UNL     1       2.160   1.693  -2.391  0.00  0.00    +0.007 A 
BRANCH  32  35
ATOM     35  O   UNL     1       4.241  -0.555  -4.354  0.00  0.00    -0.507 OA
ATOM     36  H   UNL     1       5.156  -0.249  -4.422  0.00  0.00    +0.292 HD
ENDBRANCH  32  35
ENDBRANCH  28  29
ENDBRANCH   5  28
TORSDOF 6
