REMARK  Name = ZINC58938522
REMARK  9 active torsions:
REMARK  status: ('A' for Active; 'I' for Inactive)
REMARK    1  A    between atoms: C_4  and  C_7
REMARK    2  A    between atoms: C_7  and  C_8
REMARK    3  A    between atoms: C_8  and  N_9
REMARK    4  A    between atoms: C_12  and  C_28
REMARK    5  A    between atoms: N_14  and  C_17
REMARK    6  A    between atoms: C_17  and  C_18
REMARK    7  A    between atoms: C_18  and  C_19
REMARK    8  A    between atoms: C_28  and  C_29
REMARK    9  A    between atoms: N_31  and  C_32
REMARK                            x       y       z     vdW  Elec       q    Type
REMARK                         _______ _______ _______ _____ _____    ______ ____
ROOT
ATOM      1  N   UNL     1       5.599  -1.482   1.518  0.00  0.00    -0.252 N 
ATOM      2  C   UNL     1       5.562  -2.829   1.517  0.00  0.00    +0.242 C 
ATOM      3  O   UNL     1       4.579  -3.535   1.603  0.00  0.00    -0.273 OA
ATOM      4  C   UNL     1       7.003  -3.279   1.384  0.00  0.00    +0.170 C 
ATOM      5  N   UNL     1       7.756  -2.015   1.320  0.00  0.00    -0.300 N 
ATOM      6  C   UNL     1       6.850  -1.023   1.401  0.00  0.00    +0.143 C 
ATOM      7  S   UNL     1       7.254   0.640   1.363  0.00  0.00    -0.018 S 
ENDROOT
BRANCH   1   8
ATOM      8  C   UNL     1       4.415  -0.626   1.629  0.00  0.00    +0.120 C 
BRANCH   8   9
ATOM      9  C   UNL     1       3.869  -0.329   0.231  0.00  0.00    +0.054 C 
BRANCH   9  13
ATOM     10  C   UNL     1       0.417   2.168   0.550  0.00  0.00    +0.000 A 
ATOM     11  C   UNL     1       1.673   2.735   0.434  0.00  0.00    +0.000 A 
ATOM     12  C   UNL     1       2.790   1.927   0.331  0.00  0.00    +0.004 A 
ATOM     13  C   UNL     1       2.652   0.552   0.344  0.00  0.00    -0.046 A 
ATOM     14  C   UNL     1       1.397  -0.016   0.461  0.00  0.00    +0.004 A 
ATOM     15  C   UNL     1       0.279   0.792   0.563  0.00  0.00    +0.000 A 
ENDBRANCH   9  13
ENDBRANCH   8   9
ENDBRANCH   1   8
BRANCH   5  16
ATOM     16  C   UNL     1       9.207  -1.866   1.189  0.00  0.00    +0.112 C 
BRANCH  16  17
ATOM     17  C   UNL     1       9.571  -1.687  -0.287  0.00  0.00    +0.054 C 
BRANCH  17  18
ATOM     18  C   UNL     1      11.064  -1.534  -0.422  0.00  0.00    -0.042 A 
ATOM     19  C   UNL     1      11.636  -0.277  -0.361  0.00  0.00    +0.007 A 
ATOM     20  C   UNL     1      13.006  -0.131  -0.484  0.00  0.00    +0.050 A 
ATOM     21  C   UNL     1      13.808  -1.246  -0.669  0.00  0.00    +0.166 A 
ATOM     22  C   UNL     1      13.231  -2.512  -0.730  0.00  0.00    +0.166 A 
ATOM     23  C   UNL     1      11.858  -2.651  -0.600  0.00  0.00    +0.053 A 
ATOM     24  O   UNL     1      14.220  -3.434  -0.915  0.00  0.00    -0.453 OA
ATOM     25  C   UNL     1      15.361  -2.686  -1.375  0.00  0.00    +0.466 C 
ATOM     26  O   UNL     1      15.159  -1.375  -0.816  0.00  0.00    -0.453 OA
ENDBRANCH  17  18
ENDBRANCH  16  17
ENDBRANCH   5  16
BRANCH   4  27
ATOM     27  C   UNL     1       7.426  -4.100   2.604  0.00  0.00    +0.128 C 
BRANCH  27  28
ATOM     28  C   UNL     1       6.657  -5.396   2.629  0.00  0.00    +0.219 C 
ATOM     29  O   UNL     1       5.944  -5.696   1.695  0.00  0.00    -0.275 OA
ATOM     30  N   UNL     1       6.761  -6.221   3.689  0.00  0.00    -0.285 N 
ATOM     31  H   UNL     1       7.381  -6.014   4.405  0.00  0.00    +0.155 HD
BRANCH  30  32
ATOM     32  C   UNL     1       5.973  -7.375   3.757  0.00  0.00    +0.033 A 
ATOM     33  C   UNL     1       5.487  -7.815   4.982  0.00  0.00    +0.023 A 
ATOM     34  C   UNL     1       4.710  -8.955   5.046  0.00  0.00    +0.002 A 
ATOM     35  C   UNL     1       4.415  -9.658   3.892  0.00  0.00    +0.000 A 
ATOM     36  C   UNL     1       4.898  -9.223   2.671  0.00  0.00    +0.002 A 
ATOM     37  C   UNL     1       5.671  -8.081   2.600  0.00  0.00    +0.023 A 
ENDBRANCH  30  32
ENDBRANCH  27  28
ENDBRANCH   4  27
TORSDOF 9
