REMARK  Name = ZINC34942050
REMARK  12 active torsions:
REMARK  status: ('A' for Active; 'I' for Inactive)
REMARK    1  A    between atoms: C_1  and  O_2
REMARK    2  A    between atoms: O_2  and  C_3
REMARK    3  A    between atoms: C_6  and  C_9
REMARK    4  A    between atoms: C_9  and  C_10
REMARK    5  A    between atoms: C_11  and  C_26
REMARK    6  A    between atoms: N_13  and  C_18
REMARK    7  A    between atoms: C_18  and  C_19
REMARK    8  A    between atoms: C_19  and  C_20
REMARK    9  A    between atoms: C_20  and  N_21
REMARK   10  A    between atoms: C_30  and  O_32
REMARK   11  A    between atoms: O_32  and  C_33
REMARK   12  A    between atoms: C_33  and  C_34
REMARK                            x       y       z     vdW  Elec       q    Type
REMARK                         _______ _______ _______ _____ _____    ______ ____
ROOT
ATOM      1  C   UNL     1      -5.283  -4.308   0.109  0.00  0.00    +0.076 C 
ATOM      2  C   UNL     1      -4.000  -5.098  -0.005  0.00  0.00    +0.145 C 
ATOM      3  N   UNL     1      -4.397  -6.493  -0.227  0.00  0.00    -0.283 N 
ATOM      4  C   UNL     1      -5.741  -6.543  -0.246  0.00  0.00    +0.288 C 
ATOM      5  O   UNL     1      -6.400  -7.550  -0.409  0.00  0.00    -0.266 OA
ATOM      6  C   UNL     1      -6.299  -5.190  -0.033  0.00  0.00    +0.249 C 
ATOM      7  O   UNL     1      -7.616  -4.883   0.012  0.00  0.00    -0.282 OA
ENDROOT
BRANCH   2   8
ATOM      8  C   UNL     1      -3.205  -4.982   1.270  0.00  0.00    -0.019 A 
ATOM      9  C   UNL     1      -3.646  -5.615   2.419  0.00  0.00    +0.006 A 
ATOM     10  C   UNL     1      -2.919  -5.511   3.590  0.00  0.00    +0.004 A 
ATOM     11  C   UNL     1      -1.751  -4.774   3.617  0.00  0.00    +0.045 A 
ATOM     12  C   UNL     1      -1.307  -4.139   2.466  0.00  0.00    +0.121 A 
ATOM     13  C   UNL     1      -2.034  -4.250   1.290  0.00  0.00    +0.051 A 
BRANCH  12  14
ATOM     14  O   UNL     1      -0.158  -3.413   2.490  0.00  0.00    -0.487 OA
BRANCH  14  15
ATOM     15  C   UNL     1       0.543  -3.348   3.733  0.00  0.00    +0.264 C 
BRANCH  15  16
ATOM     16  C   UNL     1       1.783  -2.507   3.568  0.00  0.00    -0.010 A 
ATOM     17  C   UNL     1       2.973  -3.098   3.187  0.00  0.00    +0.007 A 
ATOM     18  C   UNL     1       4.110  -2.327   3.035  0.00  0.00    +0.000 A 
ATOM     19  C   UNL     1       4.057  -0.964   3.264  0.00  0.00    +0.000 A 
ATOM     20  C   UNL     1       2.866  -0.373   3.644  0.00  0.00    +0.000 A 
ATOM     21  C   UNL     1       1.728  -1.144   3.791  0.00  0.00    +0.007 A 
ENDBRANCH  15  16
ENDBRANCH  14  15
ENDBRANCH  12  14
ENDBRANCH   2   8
BRANCH   1  22
ATOM     22  C   UNL     1      -5.404  -2.864   0.336  0.00  0.00    +0.195 C 
ATOM     23  O   UNL     1      -5.889  -2.449   1.372  0.00  0.00    -0.287 OA
BRANCH  22  27
ATOM     24  C   UNL     1      -4.057  -0.130  -2.622  0.00  0.00    +0.120 A 
ATOM     25  C   UNL     1      -4.661   0.344  -1.463  0.00  0.00    +0.046 A 
ATOM     26  C   UNL     1      -5.099  -0.538  -0.502  0.00  0.00    +0.015 A 
ATOM     27  C   UNL     1      -4.936  -1.914  -0.693  0.00  0.00    +0.022 A 
ATOM     28  C   UNL     1      -4.328  -2.387  -1.860  0.00  0.00    +0.015 A 
ATOM     29  C   UNL     1      -3.898  -1.498  -2.818  0.00  0.00    +0.046 A 
BRANCH  24  31
ATOM     30  C   UNL     1      -3.822   2.134  -3.302  0.00  0.00    +0.277 C 
ATOM     31  O   UNL     1      -3.627   0.743  -3.567  0.00  0.00    -0.495 OA
ENDBRANCH  24  31
ENDBRANCH  22  27
ENDBRANCH   1  22
BRANCH   3  32
ATOM     32  C   UNL     1      -3.490  -7.631  -0.399  0.00  0.00    +0.111 C 
BRANCH  32  33
ATOM     33  C   UNL     1      -3.185  -8.251   0.966  0.00  0.00    +0.040 C 
BRANCH  33  34
ATOM     34  C   UNL     1      -2.238  -9.439   0.786  0.00  0.00    +0.124 C 
BRANCH  34  35
ATOM     35  N   UNL     1      -1.946 -10.033   2.094  0.00  0.00    -0.338 N 
ATOM     36  C   UNL     1      -0.923  -9.685   2.933  0.00  0.00    +0.104 A 
ATOM     37  C   UNL     1      -1.023 -10.476   4.019  0.00  0.00    +0.101 A 
ATOM     38  N   UNL     1      -2.079 -11.284   3.846  0.00  0.00    -0.352 N 
ATOM     39  C   UNL     1      -2.640 -11.021   2.697  0.00  0.00    +0.173 A 
ATOM     40  H   UNL     1      -2.381 -11.956   4.477  0.00  0.00    +0.166 HD
ENDBRANCH  34  35
ENDBRANCH  33  34
ENDBRANCH  32  33
ENDBRANCH   3  32
TORSDOF 11
