REMARK  Name = ZINC08623031
REMARK  12 active torsions:
REMARK  status: ('A' for Active; 'I' for Inactive)
REMARK    1  A    between atoms: C_1  and  C_2
REMARK    2  A    between atoms: C_2  and  C_3
REMARK    3  A    between atoms: C_3  and  C_4
REMARK    4  A    between atoms: C_3  and  C_6
REMARK    5  A    between atoms: C_4  and  C_5
REMARK    6  A    between atoms: C_8  and  C_18
REMARK    7  A    between atoms: C_10  and  C_12
REMARK    8  A    between atoms: C_26  and  C_28
REMARK    9  A    between atoms: C_28  and  N_29
REMARK   10  A    between atoms: N_32  and  C_33
REMARK   11  A    between atoms: C_36  and  C_39
REMARK   12  A    between atoms: C_39  and  C_41
REMARK                            x       y       z     vdW  Elec       q    Type
REMARK                         _______ _______ _______ _____ _____    ______ ____
ROOT
ATOM      1  C   UNL     1       9.755  -0.298   2.717  0.00  0.00    +0.024 C 
ATOM      2  C   UNL     1       8.525  -1.191   2.533  0.00  0.00    -0.068 C 
ATOM      3  C   UNL     1       9.816  -2.803   1.268  0.00  0.00    -0.078 C 
ATOM      4  C   UNL     1      11.083  -1.957   1.416  0.00  0.00    -0.015 C 
ATOM      5  C   UNL     1      10.683  -0.479   1.509  0.00  0.00    -0.007 C 
ATOM      6  C   UNL     1       9.913  -0.099   0.239  0.00  0.00    -0.010 C 
ATOM      7  C   UNL     1       8.678  -0.997   0.123  0.00  0.00    -0.051 C 
ATOM      8  N   UNL     1       8.616  -1.939   1.261  0.00  0.00    +0.383 N 
ATOM      9  H   UNL     1       7.781  -2.529   1.160  0.00  0.00    -0.081 HD
ENDROOT
BRANCH   1  12
ATOM     10  C   UNL     1       7.782   2.819   3.518  0.00  0.00    +0.048 A 
ATOM     11  C   UNL     1       8.139   1.480   3.449  0.00  0.00    +0.047 A 
ATOM     12  C   UNL     1       9.323   1.143   2.811  0.00  0.00    +0.047 A 
ATOM     13  N   UNL     1      10.066   2.100   2.282  0.00  0.00    -0.232 NA
ATOM     14  C   UNL     1       9.693   3.369   2.361  0.00  0.00    +0.160 A 
ATOM     15  N   UNL     1       8.570   3.726   2.968  0.00  0.00    -0.232 NA
BRANCH  14  16
ATOM     16  C   UNL     1      10.553   4.416   1.755  0.00  0.00    +0.022 A 
ATOM     17  C   UNL     1      11.747   4.080   1.112  0.00  0.00    +0.031 A 
ATOM     18  C   UNL     1      12.515   5.084   0.558  0.00  0.00    +0.111 A 
ATOM     19  N   UNL     1      12.140   6.346   0.639  0.00  0.00    -0.263 NA
ATOM     20  C   UNL     1      11.024   6.706   1.241  0.00  0.00    +0.111 A 
ATOM     21  C   UNL     1      10.194   5.765   1.817  0.00  0.00    +0.031 A 
ENDBRANCH  14  16
BRANCH  10  22
ATOM     22  C   UNL     1       6.507   3.233   4.207  0.00  0.00    +0.037 C 
BRANCH  22  24
ATOM     23  C   UNL     1       4.058   3.619   3.895  0.00  0.00    +0.004 C 
ATOM     24  C   UNL     1       5.332   3.081   3.239  0.00  0.00    +0.006 C 
ENDBRANCH  22  24
BRANCH  22  25
ATOM     25  C   UNL     1       6.277   2.346   5.432  0.00  0.00    +0.006 C 
ATOM     26  C   UNL     1       7.384   2.596   6.458  0.00  0.00    +0.004 C 
ENDBRANCH  22  25
ENDBRANCH  10  22
ENDBRANCH   1  12
BRANCH   7  27
ATOM     27  C   UNL     1       7.416  -0.132   0.125  0.00  0.00    +0.090 C 
BRANCH  27  28
ATOM     28  N   UNL     1       6.232  -0.995   0.114  0.00  0.00    -0.301 N 
ATOM     29  C   UNL     1       5.002  -0.454   0.215  0.00  0.00    +0.304 C 
ATOM     30  O   UNL     1       4.869   0.755   0.224  0.00  0.00    -0.253 OA
ATOM     31  N   UNL     1       3.920  -1.252   0.306  0.00  0.00    -0.269 N 
ATOM     32  H   UNL     1       6.334  -1.957   0.033  0.00  0.00    +0.150 HD
ATOM     33  H   UNL     1       4.030  -2.213   0.374  0.00  0.00    +0.156 HD
BRANCH  31  34
ATOM     34  C   UNL     1       2.642  -0.696   0.304  0.00  0.00    +0.035 A 
ATOM     35  C   UNL     1       2.416   0.520  -0.334  0.00  0.00    +0.024 A 
ATOM     36  C   UNL     1       1.165   1.069  -0.338  0.00  0.00    +0.013 A 
ATOM     37  C   UNL     1       0.109   0.406   0.301  0.00  0.00    +0.017 A 
ATOM     38  C   UNL     1       0.342  -0.818   0.942  0.00  0.00    +0.013 A 
ATOM     39  C   UNL     1       1.596  -1.359   0.941  0.00  0.00    +0.024 A 
BRANCH  37  40
ATOM     40  C   UNL     1      -1.236   0.995   0.303  0.00  0.00    +0.160 C 
ATOM     41  O   UNL     1      -1.434   2.057  -0.248  0.00  0.00    -0.292 OA
ATOM     42  C   UNL     1      -2.370   0.279   0.992  0.00  0.00    +0.091 C 
ENDBRANCH  37  40
ENDBRANCH  31  34
ENDBRANCH  27  28
ENDBRANCH   7  27
TORSDOF 9
