REMARK  Name = ZINC08843142
REMARK  6 active torsions:
REMARK  status: ('A' for Active; 'I' for Inactive)
REMARK    1  A    between atoms: N_9  and  C_11
REMARK    2  A    between atoms: C_11  and  C_12
REMARK    3  A    between atoms: C_15  and  C_18
REMARK    4  A    between atoms: N_20  and  N_21
REMARK    5  A    between atoms: C_22  and  C_23
REMARK    6  A    between atoms: C_25  and  N_30
REMARK                            x       y       z     vdW  Elec       q    Type
REMARK                         _______ _______ _______ _____ _____    ______ ____
ROOT
ATOM      1  C   UNL     1       5.892  -2.188   1.146  0.00  0.00    -0.064 A 
ATOM      2  C   UNL     1       6.674  -1.127   0.725  0.00  0.00    +0.002 A 
ATOM      3  C   UNL     1       7.615  -0.580   1.572  0.00  0.00    +0.013 A 
ATOM      4  C   UNL     1       7.778  -1.100   2.858  0.00  0.00    +0.038 A 
ATOM      5  C   UNL     1       6.985  -2.171   3.276  0.00  0.00    +0.013 A 
ATOM      6  C   UNL     1       6.044  -2.704   2.420  0.00  0.00    +0.002 A 
ENDROOT
BRANCH   4   7
ATOM      7  C   UNL     1       8.784  -0.520   3.771  0.00  0.00    +0.263 C 
ATOM      8  O   UNL     1       9.473   0.412   3.404  0.00  0.00    -0.268 OA
ATOM      9  N   UNL     1       8.939  -1.025   5.012  0.00  0.00    -0.203 N 
ATOM     10  H   UNL     1       8.389  -1.768   5.305  0.00  0.00    +0.178 HD
BRANCH   9  11
ATOM     11  N   UNL     1       9.893  -0.475   5.878  0.00  0.00    -0.187 NA
ATOM     12  C   UNL     1      10.041  -0.961   7.072  0.00  0.00    +0.139 C 
BRANCH  12  13
ATOM     13  C   UNL     1      11.046  -0.382   7.983  0.00  0.00    +0.015 A 
ATOM     14  C   UNL     1      11.213  -0.906   9.268  0.00  0.00    +0.043 A 
ATOM     15  C   UNL     1      12.154  -0.360  10.115  0.00  0.00    +0.127 A 
ATOM     16  C   UNL     1      12.932   0.705   9.696  0.00  0.00    +0.034 A 
ATOM     17  C   UNL     1      12.774   1.230   8.426  0.00  0.00    +0.023 A 
ATOM     18  C   UNL     1      11.840   0.690   7.564  0.00  0.00    +0.050 A 
ATOM     19 CL   UNL     1      11.647   1.344   5.968  0.00  0.00    -0.083 Cl
BRANCH  15  20
ATOM     20  N   UNL     1      12.332  -0.914  11.476  0.00  0.00    +0.056 N 
ATOM     21  O   UNL     1      11.652  -1.844  11.844  0.00  0.00    -0.126 OA
ATOM     22  O   UNL     1      13.156  -0.436  12.220  0.00  0.00    -0.126 OA
ENDBRANCH  15  20
ENDBRANCH  12  13
ENDBRANCH   9  11
ENDBRANCH   4   7
BRANCH   1  23
ATOM     23  C   UNL     1       4.866  -2.780   0.214  0.00  0.00    -0.043 C 
BRANCH  23  32
ATOM     24  C   UNL     1      -0.017   1.376   0.010  0.00  0.00    +0.000 A 
ATOM     25  C   UNL     1       1.173   2.080   0.002  0.00  0.00    +0.000 A 
ATOM     26  C   UNL     1       2.375   1.401  -0.015  0.00  0.00    +0.002 A 
ATOM     27  C   UNL     1       2.395   0.014  -0.023  0.00  0.00    -0.061 A 
ATOM     28  C   UNL     1       1.208  -0.687  -0.013  0.00  0.00    -0.048 A 
ATOM     29  C   UNL     1       0.002  -0.004   0.002  0.00  0.00    +0.004 A 
ATOM     30  C   UNL     1       1.186  -2.194  -0.014  0.00  0.00    +0.017 C 
ATOM     31  C   UNL     1       2.554  -2.732  -0.434  0.00  0.00    -0.073 C 
ATOM     32  N   UNL     1       3.587  -2.079   0.386  0.00  0.00    +0.385 N 
ATOM     33  C   UNL     1       3.728  -0.686  -0.046  0.00  0.00    -0.042 C 
ATOM     34  H   UNL     1       3.313  -2.106   1.357  0.00  0.00    -0.081 HD
ENDBRANCH  23  32
ENDBRANCH   1  23
TORSDOF 6
