REMARK  Name = ZINC58915037
REMARK  12 active torsions:
REMARK  status: ('A' for Active; 'I' for Inactive)
REMARK    1  A    between atoms: C_1  and  C_2
REMARK    2  A    between atoms: C_4  and  C_14
REMARK    3  A    between atoms: C_5  and  C_13
REMARK    4  A    between atoms: N_6  and  C_7
REMARK    5  A    between atoms: N_15  and  N_16
REMARK    6  A    between atoms: C_17  and  C_19
REMARK    7  A    between atoms: C_19  and  N_20
REMARK    8  A    between atoms: N_20  and  C_21
REMARK    9  A    between atoms: N_20  and  S_29
REMARK   10  A    between atoms: C_26  and  O_27
REMARK   11  A    between atoms: O_27  and  C_28
REMARK   12  A    between atoms: S_29  and  C_32
REMARK                            x       y       z     vdW  Elec       q    Type
REMARK                         _______ _______ _______ _____ _____    ______ ____
ROOT
ATOM      1  N   UNL     1       0.071  -5.710  -1.697  0.00  0.00    -0.206 N 
ATOM      2  C   UNL     1       0.090  -6.927  -1.117  0.00  0.00    +0.251 C 
ATOM      3  O   UNL     1       0.096  -7.022   0.093  0.00  0.00    -0.272 OA
ATOM      4  H   UNL     1       0.066  -5.635  -2.664  0.00  0.00    +0.177 HD
ENDROOT
BRANCH   1   6
ATOM      5  C   UNL     1       0.042  -3.384  -1.463  0.00  0.00    +0.140 C 
ATOM      6  N   UNL     1       0.059  -4.556  -0.904  0.00  0.00    -0.188 NA
BRANCH   5  10
ATOM      7  C   UNL     1      -0.018   1.503   0.010  0.00  0.00    +0.064 C 
ATOM      8  C   UNL     1       0.002  -0.004   0.002  0.00  0.00    +0.022 A 
ATOM      9  C   UNL     1       0.008  -0.781  -1.097  0.00  0.00    +0.032 A 
ATOM     10  C   UNL     1       0.029  -2.170  -0.628  0.00  0.00    +0.016 A 
ATOM     11  C   UNL     1       0.034  -2.113   0.736  0.00  0.00    +0.030 A 
ATOM     12  N   UNL     1       0.024  -0.804   1.109  0.00  0.00    -0.317 N 
ATOM     13  C   UNL     1       0.054  -3.296   1.669  0.00  0.00    +0.064 C 
BRANCH  12  14
ATOM     14  C   UNL     1       0.030  -0.345   2.433  0.00  0.00    +0.047 A 
ATOM     15  C   UNL     1       1.132  -0.577   3.244  0.00  0.00    +0.026 A 
ATOM     16  C   UNL     1       1.135  -0.123   4.548  0.00  0.00    +0.002 A 
ATOM     17  C   UNL     1       0.042   0.561   5.047  0.00  0.00    +0.000 A 
ATOM     18  C   UNL     1      -1.058   0.793   4.241  0.00  0.00    +0.002 A 
ATOM     19  C   UNL     1      -1.064   0.347   2.934  0.00  0.00    +0.026 A 
ENDBRANCH  12  14
ENDBRANCH   5  10
ENDBRANCH   1   6
BRANCH   2  20
ATOM     20  C   UNL     1       0.103  -8.169  -1.970  0.00  0.00    +0.229 C 
BRANCH  20  21
ATOM     21  N   UNL     1       0.122  -9.353  -1.108  0.00  0.00    -0.191 N 
BRANCH  21  22
ATOM     22  C   UNL     1      -1.077  -9.873  -0.606  0.00  0.00    +0.093 A 
ATOM     23  C   UNL     1      -1.822 -10.762  -1.366  0.00  0.00    +0.028 A 
ATOM     24  C   UNL     1      -3.005 -11.275  -0.868  0.00  0.00    +0.002 A 
ATOM     25  C   UNL     1      -3.449 -10.902   0.387  0.00  0.00    +0.004 A 
ATOM     26  C   UNL     1      -2.712 -10.016   1.151  0.00  0.00    +0.047 A 
ATOM     27  C   UNL     1      -1.522  -9.502   0.661  0.00  0.00    +0.143 A 
BRANCH  27  28
ATOM     28  O   UNL     1      -0.793  -8.635   1.413  0.00  0.00    -0.493 OA
ATOM     29  C   UNL     1      -1.311  -8.300   2.702  0.00  0.00    +0.277 C 
ENDBRANCH  27  28
ENDBRANCH  21  22
BRANCH  21  30
ATOM     30  S   UNL     1       1.562 -10.077  -0.728  0.00  0.00    +0.075 S 
ATOM     31  O   UNL     1       1.263 -11.427  -0.397  0.00  0.00    -0.150 OA
ATOM     32  O   UNL     1       2.476  -9.730  -1.759  0.00  0.00    -0.150 OA
BRANCH  30  33
ATOM     33  C   UNL     1       2.154  -9.317   0.747  0.00  0.00    +0.109 A 
ATOM     34  C   UNL     1       2.965  -8.200   0.671  0.00  0.00    +0.029 A 
ATOM     35  C   UNL     1       3.429  -7.603   1.828  0.00  0.00    +0.002 A 
ATOM     36  C   UNL     1       3.083  -8.123   3.061  0.00  0.00    +0.000 A 
ATOM     37  C   UNL     1       2.272  -9.239   3.137  0.00  0.00    +0.002 A 
ATOM     38  C   UNL     1       1.804  -9.834   1.980  0.00  0.00    +0.029 A 
ENDBRANCH  30  33
ENDBRANCH  21  30
ENDBRANCH  20  21
ENDBRANCH   2  20
TORSDOF 9
