REMARK  Name = ZINC38595818
REMARK  10 active torsions:
REMARK  status: ('A' for Active; 'I' for Inactive)
REMARK    1  A    between atoms: C_1  and  C_2
REMARK    2  A    between atoms: C_4  and  C_11
REMARK    3  A    between atoms: C_7  and  N_8
REMARK    4  A    between atoms: N_13  and  C_14
REMARK    5  A    between atoms: C_14  and  C_16
REMARK    6  A    between atoms: C_14  and  C_17
REMARK    7  A    between atoms: C_17  and  C_19
REMARK    8  A    between atoms: C_17  and  N_24
REMARK    9  A    between atoms: N_27  and  C_30
REMARK   10  A    between atoms: C_30  and  C_31
REMARK                            x       y       z     vdW  Elec       q    Type
REMARK                         _______ _______ _______ _____ _____    ______ ____
ROOT
ATOM      1  C   UNL     1      -0.613  -6.344  -3.567  0.00  0.00    +0.113 C 
ENDROOT
BRANCH   1   2
ATOM      2  N   UNL     1      -1.129  -6.721  -4.890  0.00  0.00    -0.297 NA
ATOM      3  C   UNL     1      -1.712  -8.070  -4.863  0.00  0.00    +0.066 C 
ATOM      4  C   UNL     1      -2.182  -8.447  -6.270  0.00  0.00    -0.063 C 
ATOM      5  N   UNL     1      -3.179  -7.472  -6.731  0.00  0.00    +0.384 N 
ATOM      6  C   UNL     1      -2.575  -6.134  -6.776  0.00  0.00    -0.063 C 
ATOM      7  C   UNL     1      -2.108  -5.738  -5.373  0.00  0.00    +0.066 C 
ATOM      8  H   UNL     1      -3.962  -7.466  -6.095  0.00  0.00    -0.081 HD
BRANCH   5   9
ATOM      9  C   UNL     1      -3.643  -7.845  -8.074  0.00  0.00    -0.043 C 
BRANCH   9  10
ATOM     10  C   UNL     1      -4.753  -6.918  -8.497  0.00  0.00    -0.064 A 
ATOM     11  C   UNL     1      -6.067  -7.233  -8.202  0.00  0.00    +0.002 A 
ATOM     12  C   UNL     1      -7.085  -6.383  -8.591  0.00  0.00    +0.000 A 
ATOM     13  C   UNL     1      -6.790  -5.217  -9.273  0.00  0.00    +0.000 A 
ATOM     14  C   UNL     1      -5.477  -4.902  -9.567  0.00  0.00    +0.000 A 
ATOM     15  C   UNL     1      -4.458  -5.750  -9.175  0.00  0.00    +0.002 A 
ENDBRANCH   9  10
ENDBRANCH   5   9
ENDBRANCH   1   2
BRANCH   1  16
ATOM     16  C   UNL     1       0.391  -7.369  -3.108  0.00  0.00    +0.009 A 
ATOM     17  C   UNL     1       0.588  -7.875  -1.866  0.00  0.00    +0.013 A 
ATOM     18  C   UNL     1       1.580  -8.819  -1.676  0.00  0.00    +0.008 A 
ATOM     19  C   UNL     1       2.326  -9.211  -2.737  0.00  0.00    +0.045 A 
ATOM     20  S   UNL     1       1.626  -8.239  -4.061  0.00  0.00    -0.100 S 
ENDBRANCH   1  16
BRANCH   1  21
ATOM     21  C   UNL     1       0.060  -4.973  -3.654  0.00  0.00    +0.092 C 
ATOM     22  C   UNL     1       1.131  -5.000  -4.746  0.00  0.00    +0.030 C 
BRANCH  21  25
ATOM     23  C   UNL     1       0.887  -3.367  -2.018  0.00  0.00    +0.244 C 
ATOM     24  O   UNL     1       0.553  -2.473  -2.772  0.00  0.00    -0.270 OA
ATOM     25  N   UNL     1       0.683  -4.653  -2.367  0.00  0.00    -0.307 N 
ATOM     26  H   UNL     1       0.949  -5.366  -1.766  0.00  0.00    +0.149 HD
BRANCH  23  30
ATOM     27  C   UNL     1       2.543   0.018   1.252  0.00  0.00    +0.046 C 
ATOM     28  C   UNL     1       2.314  -1.418   0.858  0.00  0.00    -0.020 A 
ATOM     29  C   UNL     1       1.727  -1.713  -0.356  0.00  0.00    +0.018 A 
ATOM     30  C   UNL     1       1.515  -3.043  -0.720  0.00  0.00    +0.037 A 
ATOM     31  C   UNL     1       1.898  -4.067   0.148  0.00  0.00    +0.015 A 
ATOM     32  C   UNL     1       2.484  -3.759   1.358  0.00  0.00    +0.034 A 
ATOM     33  C   UNL     1       2.696  -2.438   1.710  0.00  0.00    +0.129 A 
BRANCH  33  34
ATOM     34  N   UNL     1       3.331  -2.114   3.008  0.00  0.00    +0.057 N 
ATOM     35  O   UNL     1       4.088  -1.175   3.093  0.00  0.00    -0.126 OA
ATOM     36  O   UNL     1       3.092  -2.789   3.982  0.00  0.00    -0.126 OA
ENDBRANCH  33  34
ENDBRANCH  23  30
ENDBRANCH  21  25
ENDBRANCH   1  21
TORSDOF 8
