REMARK  Name = ZINC39842191
REMARK  8 active torsions:
REMARK  status: ('A' for Active; 'I' for Inactive)
REMARK    1  A    between atoms: C_1  and  C_2
REMARK    2  A    between atoms: C_5  and  N_8
REMARK    3  A    between atoms: C_9  and  C_31
REMARK    4  A    between atoms: C_12  and  S_13
REMARK    5  A    between atoms: S_13  and  C_14
REMARK    6  A    between atoms: C_14  and  C_15
REMARK    7  A    between atoms: C_21  and  C_23
REMARK    8  A    between atoms: C_23  and  C_24
REMARK                            x       y       z     vdW  Elec       q    Type
REMARK                         _______ _______ _______ _____ _____    ______ ____
ROOT
ATOM      1  S   UNL     1       2.576  -4.463  -1.211  0.00  0.00    -0.076 S 
ENDROOT
BRANCH   1   6
ATOM      2  N   UNL     1       0.058  -4.172  -0.021  0.00  0.00    -0.268 N 
ATOM      3  C   UNL     1      -0.926  -5.022   0.439  0.00  0.00    +0.205 A 
ATOM      4  N   UNL     1      -0.498  -6.250   0.239  0.00  0.00    -0.125 NA
ATOM      5  N   UNL     1       0.666  -6.226  -0.304  0.00  0.00    -0.122 NA
ATOM      6  C   UNL     1       1.055  -4.984  -0.491  0.00  0.00    +0.197 A 
BRANCH   2  11
ATOM      7  C   UNL     1      -0.018   1.503   0.010  0.00  0.00    +0.044 C 
ATOM      8  C   UNL     1       0.002  -0.004   0.002  0.00  0.00    -0.050 A 
ATOM      9  C   UNL     1       0.006  -0.688  -1.200  0.00  0.00    +0.005 A 
ATOM     10  C   UNL     1       0.024  -2.068  -1.211  0.00  0.00    +0.026 A 
ATOM     11  C   UNL     1       0.040  -2.771  -0.013  0.00  0.00    +0.051 A 
ATOM     12  C   UNL     1       0.036  -2.082   1.192  0.00  0.00    +0.026 A 
ATOM     13  C   UNL     1       0.023  -0.700   1.196  0.00  0.00    +0.005 A 
ENDBRANCH   2  11
BRANCH   3  14
ATOM     14  C   UNL     1      -2.211  -4.630   1.038  0.00  0.00    +0.172 A 
ATOM     15  C   UNL     1      -3.286  -5.446   1.231  0.00  0.00    +0.053 A 
ATOM     16  C   UNL     1      -4.289  -4.659   1.830  0.00  0.00    +0.042 A 
ATOM     17  C   UNL     1      -3.785  -3.417   1.973  0.00  0.00    +0.196 A 
ATOM     18  O   UNL     1      -2.528  -3.404   1.499  0.00  0.00    -0.460 OA
ENDBRANCH   3  14
ENDBRANCH   1   6
BRANCH   1  19
ATOM     19  C   UNL     1       3.426  -6.014  -1.612  0.00  0.00    +0.173 C 
BRANCH  19  20
ATOM     20  C   UNL     1       4.760  -5.707  -2.243  0.00  0.00    +0.229 C 
ATOM     21  O   UNL     1       5.103  -4.555  -2.406  0.00  0.00    -0.275 OA
ATOM     22  N   UNL     1       5.572  -6.713  -2.626  0.00  0.00    -0.264 N 
ATOM     23  C   UNL     1       6.802  -6.429  -3.208  0.00  0.00    +0.165 A 
ATOM     24  N   UNL     1       7.338  -5.254  -3.456  0.00  0.00    -0.233 NA
ATOM     25  C   UNL     1       8.527  -5.151  -4.019  0.00  0.00    +0.124 A 
ATOM     26  C   UNL     1       9.165  -6.308  -4.328  0.00  0.00    +0.015 A 
ATOM     27  S   UNL     1       7.971  -7.507  -3.760  0.00  0.00    -0.057 S 
ATOM     28  H   UNL     1       5.298  -7.634  -2.496  0.00  0.00    +0.157 HD
BRANCH  26  29
ATOM     29  C   UNL     1      10.512  -6.521  -4.969  0.00  0.00    +0.079 C 
BRANCH  29  30
ATOM     30  C   UNL     1      11.570  -6.599  -3.899  0.00  0.00    -0.042 A 
ATOM     31  C   UNL     1      12.207  -5.448  -3.473  0.00  0.00    +0.007 A 
ATOM     32  C   UNL     1      13.178  -5.518  -2.491  0.00  0.00    +0.038 A 
ATOM     33  C   UNL     1      13.512  -6.741  -1.935  0.00  0.00    +0.123 A 
ATOM     34  C   UNL     1      12.874  -7.893  -2.363  0.00  0.00    +0.038 A 
ATOM     35  C   UNL     1      11.900  -7.820  -3.341  0.00  0.00    +0.007 A 
ATOM     36  F   UNL     1      14.461  -6.810  -0.976  0.00  0.00    -0.205 F 
ENDBRANCH  29  30
ENDBRANCH  26  29
ENDBRANCH  19  20
ENDBRANCH   1  19
TORSDOF 7
