REMARK  Name = ZINC36643752
REMARK  16 active torsions:
REMARK  status: ('A' for Active; 'I' for Inactive)
REMARK    1  A    between atoms: C_1  and  C_2
REMARK    2  A    between atoms: C_2  and  N_3
REMARK    3  A    between atoms: N_3  and  C_4
REMARK    4  A    between atoms: N_3  and  S_6
REMARK    5  A    between atoms: C_4  and  C_5
REMARK    6  A    between atoms: S_6  and  C_9
REMARK    7  A    between atoms: C_12  and  C_15
REMARK    8  A    between atoms: N_17  and  C_18
REMARK    9  A    between atoms: C_18  and  C_19
REMARK   10  A    between atoms: C_19  and  C_20
REMARK   11  A    between atoms: C_20  and  N_21
REMARK   12  A    between atoms: N_21  and  C_22
REMARK   13  A    between atoms: N_21  and  C_23
REMARK   14  A    between atoms: C_27  and  O_34
REMARK   15  A    between atoms: C_30  and  C_33
REMARK   16  A    between atoms: O_34  and  C_35
REMARK                            x       y       z     vdW  Elec       q    Type
REMARK                         _______ _______ _______ _____ _____    ______ ____
ROOT
ATOM      1  C   UNL     1      -0.599   3.798  -5.600  0.00  0.00    +0.252 C 
ATOM      2  O   UNL     1      -1.665   4.335  -5.372  0.00  0.00    -0.270 OA
ATOM      3  N   UNL     1       0.191   4.261  -6.590  0.00  0.00    -0.246 N 
ATOM      4  C   UNL     1      -0.154   5.420  -7.266  0.00  0.00    +0.168 A 
ATOM      5  N   UNL     1       0.476   6.018  -8.249  0.00  0.00    -0.221 NA
ATOM      6  C   UNL     1       0.020   7.155  -8.819  0.00  0.00    +0.122 A 
ATOM      7  C   UNL     1       0.600   7.896  -9.880  0.00  0.00    +0.147 A 
ATOM      8  C   UNL     1       0.000   9.043 -10.343  0.00  0.00    +0.048 A 
ATOM      9  C   UNL     1      -1.184   9.513  -9.794  0.00  0.00    +0.008 A 
ATOM     10  C   UNL     1      -1.775   8.814  -8.758  0.00  0.00    -0.034 A 
ATOM     11  C   UNL     1      -1.184   7.666  -8.288  0.00  0.00    +0.047 A 
ATOM     12  S   UNL     1      -1.573   6.479  -7.024  0.00  0.00    -0.051 S 
ATOM     13  C   UNL     1      -3.062   9.307  -8.149  0.00  0.00    +0.045 C 
ENDROOT
BRANCH   1  17
ATOM     14  C   UNL     1       0.639   0.463  -3.281  0.00  0.00    +0.106 A 
ATOM     15  C   UNL     1       0.114   1.580  -2.655  0.00  0.00    +0.029 A 
ATOM     16  C   UNL     1      -0.290   2.667  -3.403  0.00  0.00    +0.015 A 
ATOM     17  C   UNL     1      -0.168   2.638  -4.793  0.00  0.00    +0.037 A 
ATOM     18  C   UNL     1       0.363   1.508  -5.418  0.00  0.00    +0.015 A 
ATOM     19  C   UNL     1       0.768   0.430  -4.658  0.00  0.00    +0.029 A 
BRANCH  14  20
ATOM     20  S   UNL     1       1.151  -0.921  -2.318  0.00  0.00    +0.061 S 
ATOM     21  O   UNL     1       1.107  -2.052  -3.177  0.00  0.00    -0.153 OA
ATOM     22  O   UNL     1       0.423  -0.861  -1.100  0.00  0.00    -0.153 OA
BRANCH  20  23
ATOM     23  N   UNL     1       2.744  -0.684  -1.930  0.00  0.00    -0.177 NA
BRANCH  23  25
ATOM     24  C   UNL     1       3.335   1.505  -1.015  0.00  0.00    +0.022 C 
ATOM     25  C   UNL     1       3.099   0.027  -0.699  0.00  0.00    +0.106 C 
ENDBRANCH  23  25
BRANCH  23  26
ATOM     26  C   UNL     1       3.796  -1.187  -2.816  0.00  0.00    +0.106 C 
ATOM     27  C   UNL     1       4.261  -2.561  -2.329  0.00  0.00    +0.022 C 
ENDBRANCH  23  26
ENDBRANCH  20  23
ENDBRANCH  14  20
ENDBRANCH   1  17
BRANCH   7  28
ATOM     28  O   UNL     1       1.760   7.468 -10.445  0.00  0.00    -0.493 OA
ATOM     29  C   UNL     1       2.294   8.258 -11.509  0.00  0.00    +0.277 C 
ENDBRANCH   7  28
BRANCH   3  30
ATOM     30  C   UNL     1       1.412   3.538  -6.951  0.00  0.00    +0.114 C 
BRANCH  30  31
ATOM     31  C   UNL     1       1.140   2.653  -8.169  0.00  0.00    +0.001 C 
BRANCH  31  32
ATOM     32  C   UNL     1       2.374   1.798  -8.464  0.00  0.00    -0.078 C 
BRANCH  32  33
ATOM     33  N   UNL     1       2.113   0.948  -9.633  0.00  0.00    +0.376 N 
ATOM     34  C   UNL     1       3.335   0.216  -9.990  0.00  0.00    -0.097 C 
ATOM     35  C   UNL     1       1.044  -0.009  -9.314  0.00  0.00    -0.097 C 
ATOM     36  H   UNL     1       1.827   1.524 -10.411  0.00  0.00    -0.083 HD
ENDBRANCH  32  33
ENDBRANCH  31  32
ENDBRANCH  30  31
ENDBRANCH   3  30
TORSDOF 10
