REMARK  Name = ZINC62048898
REMARK  8 active torsions:
REMARK  status: ('A' for Active; 'I' for Inactive)
REMARK    1  A    between atoms: C_1  and  C_2
REMARK    2  A    between atoms: C_3  and  C_23
REMARK    3  A    between atoms: C_7  and  C_11
REMARK    4  A    between atoms: N_12  and  CA_13
REMARK    5  A    between atoms: CA_13  and  CB_15
REMARK    6  A    between atoms: CA_13  and  C_20
REMARK    7  A    between atoms: CB_15  and  CG_16
REMARK    8  A    between atoms: CG_16  and  CD_17
REMARK                            x       y       z     vdW  Elec       q    Type
REMARK                         _______ _______ _______ _____ _____    ______ ____
ROOT
ATOM      1  C   UNK A   0       0.030   1.542   0.684  0.00  0.00    +0.052 C 
ATOM      2  C   UNK A   0       0.048   0.077   0.331  0.00  0.00    -0.003 A 
ATOM      3  C   UNK A   0      -1.001  -0.730   0.050  0.00  0.00    +0.005 A 
ATOM      4  C   UNK A   0      -0.744  -2.131  -0.267  0.00  0.00    +0.055 A 
ATOM      5  C   UNK A   0      -1.658  -3.169  -0.593  0.00  0.00    +0.132 A 
ATOM      6  N   UNK A   0      -1.194  -4.381  -0.849  0.00  0.00    -0.217 NA
ATOM      7  C   UNK A   0       0.097  -4.662  -0.811  0.00  0.00    +0.129 A 
ATOM      8  N   UNK A   0       0.992  -3.740  -0.514  0.00  0.00    -0.225 NA
ATOM      9  C   UNK A   0       0.615  -2.505  -0.246  0.00  0.00    +0.114 A 
ATOM     10  S   UNK A   0       1.457  -1.004   0.178  0.00  0.00    -0.073 S 
ATOM     11  C   UNK A   0       0.555  -6.065  -1.113  0.00  0.00    +0.088 C 
ATOM     12  N   GLN A   1      -3.017  -2.915  -0.643  0.00  0.00    -0.316 N 
ATOM     13  H   GLN A   1      -3.345  -2.009  -0.534  0.00  0.00    +0.148 HD
ENDROOT
BRANCH   3  14
ATOM     14  C   UNK A   0      -2.386  -0.201   0.065  0.00  0.00    -0.016 A 
ATOM     15  C   UNK A   0      -2.831   0.624  -0.967  0.00  0.00    +0.011 A 
ATOM     16  C   UNK A   0      -4.121   1.113  -0.949  0.00  0.00    +0.039 A 
ATOM     17  C   UNK A   0      -4.973   0.787   0.093  0.00  0.00    +0.123 A 
ATOM     18  C   UNK A   0      -4.536  -0.032   1.122  0.00  0.00    +0.039 A 
ATOM     19  C   UNK A   0      -3.250  -0.532   1.109  0.00  0.00    +0.011 A 
ATOM     20  F   UNK A   0      -6.235   1.270   0.107  0.00  0.00    -0.205 F 
ENDBRANCH   3  14
BRANCH  12  21
ATOM     21  CA  GLN A   1      -3.960  -4.015  -0.861  0.00  0.00    +0.186 C 
BRANCH  21  22
ATOM     22  C   GLN A   1      -4.277  -4.673   0.458  0.00  0.00    +0.376 C 
ATOM     23  O   GLN A   1      -3.914  -4.156   1.500  0.00  0.00    -0.244 OA
ATOM     24  OXT GLN A   1      -4.898  -5.722   0.481  0.00  0.00    -0.244 OA
ENDBRANCH  21  22
BRANCH  21  25
ATOM     25  CB  GLN A   1      -5.247  -3.467  -1.481  0.00  0.00    +0.043 C 
BRANCH  25  26
ATOM     26  CG  GLN A   1      -4.946  -2.911  -2.874  0.00  0.00    +0.098 C 
BRANCH  26  27
ATOM     27  CD  GLN A   1      -6.214  -2.372  -3.484  0.00  0.00    +0.211 C 
ATOM     28  OE1 GLN A   1      -7.256  -2.427  -2.866  0.00  0.00    -0.276 OA
ATOM     29  NE2 GLN A   1      -6.190  -1.828  -4.717  0.00  0.00    -0.329 N 
ATOM     30 HE21 GLN A   1      -5.356  -1.784  -5.212  0.00  0.00    +0.145 HD
ATOM     31 HE22 GLN A   1      -7.006  -1.481  -5.110  0.00  0.00    +0.145 HD
ENDBRANCH  26  27
ENDBRANCH  25  26
ENDBRANCH  21  25
ENDBRANCH  12  21
TORSDOF 6
