REMARK  Name = ZINC38576006
REMARK  8 active torsions:
REMARK  status: ('A' for Active; 'I' for Inactive)
REMARK    1  A    between atoms: C_3  and  N_8
REMARK    2  A    between atoms: C_9  and  C_11
REMARK    3  A    between atoms: C_11  and  N_12
REMARK    4  A    between atoms: C_15  and  N_18
REMARK    5  A    between atoms: N_18  and  C_19
REMARK    6  A    between atoms: N_18  and  N_30
REMARK    7  A    between atoms: C_19  and  C_20
REMARK    8  A    between atoms: C_26  and  C_28
REMARK                            x       y       z     vdW  Elec       q    Type
REMARK                         _______ _______ _______ _____ _____    ______ ____
ROOT
ATOM      1  N   UNL     1       4.716   5.510  -0.328  0.00  0.00    +0.385 N 
ATOM      2  C   UNL     1       3.984   5.811  -1.564  0.00  0.00    -0.077 C 
ATOM      3  C   UNL     1       3.667   7.307  -1.621  0.00  0.00    +0.002 C 
ATOM      4  C   UNL     1       4.976   8.102  -1.593  0.00  0.00    +0.070 C 
ATOM      5  C   UNL     1       5.765   7.724  -0.336  0.00  0.00    +0.002 C 
ATOM      6  C   UNL     1       6.004   6.213  -0.327  0.00  0.00    -0.077 C 
ATOM      7  H   UNL     1       4.169   5.810   0.466  0.00  0.00    -0.081 HD
ENDROOT
BRANCH   1   8
ATOM      8  C   UNL     1       4.950   4.062  -0.240  0.00  0.00    +0.019 C 
BRANCH   8  10
ATOM      9  N   UNL     1       3.597   2.002  -0.022  0.00  0.00    -0.272 N 
ATOM     10  C   UNL     1       3.629   3.346  -0.117  0.00  0.00    +0.202 C 
ATOM     11  O   UNL     1       2.595   3.980  -0.104  0.00  0.00    -0.278 OA
ATOM     12  H   UNL     1       4.425   1.501   0.042  0.00  0.00    +0.156 HD
BRANCH   9  15
ATOM     13  C   UNL     1       1.130  -0.710  -0.017  0.00  0.00    +0.025 A 
ATOM     14  C   UNL     1       2.350  -0.057  -0.024  0.00  0.00    +0.045 A 
ATOM     15  C   UNL     1       2.374   1.332  -0.015  0.00  0.00    +0.125 A 
ATOM     16  N   UNL     1       1.247   2.026  -0.000  0.00  0.00    -0.239 NA
ATOM     17  C   UNL     1       0.069   1.433   0.007  0.00  0.00    +0.132 A 
ATOM     18  C   UNL     1      -0.030   0.054  -0.001  0.00  0.00    +0.059 A 
ATOM     19 CL   UNL     1      -1.587  -0.714   0.009  0.00  0.00    -0.082 Cl
ENDBRANCH   9  15
ENDBRANCH   8  10
ENDBRANCH   1   8
BRANCH   4  20
ATOM     20  N   UNL     1       4.676   9.540  -1.571  0.00  0.00    -0.234 NA
BRANCH  20  21
ATOM     21  N   UNL     1       3.974   9.907  -0.352  0.00  0.00    -0.267 NA
ATOM     22  H   UNL     1       3.768  10.895  -0.337  0.00  0.00    +0.137 HD
ATOM     23  H   UNL     1       3.132   9.361  -0.241  0.00  0.00    +0.137 HD
ENDBRANCH  20  21
BRANCH  20  24
ATOM     24  C   UNL     1       3.910   9.937  -2.760  0.00  0.00    +0.198 C 
BRANCH  24  25
ATOM     25  C   UNL     1       3.728  11.433  -2.764  0.00  0.00    +0.233 C 
ATOM     26  O   UNL     1       4.191  12.103  -1.865  0.00  0.00    -0.274 OA
ATOM     27  N   UNL     1       3.051  12.027  -3.767  0.00  0.00    -0.275 N 
ATOM     28  C   UNL     1       2.466  11.247  -4.879  0.00  0.00    +0.178 C 
ATOM     29  S   UNL     1       2.332  12.539  -6.192  0.00  0.00    -0.139 S 
ATOM     30  C   UNL     1       2.076  13.970  -5.050  0.00  0.00    +0.108 C 
ATOM     31  C   UNL     1       2.854  13.466  -3.809  0.00  0.00    +0.189 C 
BRANCH  31  32
ATOM     32  C   UNL     1       2.122  13.872  -2.598  0.00  0.00    +0.086 C 
ATOM     33  N   UNL     1       1.557  14.185  -1.663  0.00  0.00    -0.195 NA
ENDBRANCH  31  32
ENDBRANCH  24  25
ENDBRANCH  20  24
ENDBRANCH   4  20
TORSDOF 8
