REMARK  Name = ZINC01874792
REMARK  16 active torsions:
REMARK  status: ('A' for Active; 'I' for Inactive)
REMARK    1  A    between atoms: C_1  and  C_2
REMARK    2  A    between atoms: C_3  and  C_36
REMARK    3  A    between atoms: C_4  and  C_26
REMARK    4  A    between atoms: C_10  and  C_11
REMARK    5  A    between atoms: C_14  and  O_19
REMARK    6  A    between atoms: C_15  and  O_17
REMARK    7  A    between atoms: O_17  and  C_18
REMARK    8  A    between atoms: O_19  and  C_20
REMARK    9  A    between atoms: C_20  and  C_22
REMARK   10  A    between atoms: C_29  and  O_34
REMARK   11  A    between atoms: C_30  and  O_32
REMARK   12  A    between atoms: O_32  and  C_33
REMARK   13  A    between atoms: O_34  and  C_35
REMARK   14  A    between atoms: C_36  and  O_38
REMARK   15  A    between atoms: O_38  and  C_39
REMARK   16  A    between atoms: C_39  and  C_40
REMARK                            x       y       z     vdW  Elec       q    Type
REMARK                         _______ _______ _______ _____ _____    ______ ____
ROOT
ATOM      1  C   UNL     1       0.090   0.763   3.160  0.00  0.00    +0.066 C 
ATOM      2  C   UNL     1       0.092  -0.622   2.565  0.00  0.00    +0.053 C 
ATOM      3  C   UNL     1      -1.080  -1.317   2.461  0.00  0.00    +0.085 C 
ATOM      4  C   UNL     1      -1.035  -2.702   1.859  0.00  0.00    +0.162 C 
ATOM      5  N   UNL     1       0.296  -3.211   1.422  0.00  0.00    -0.275 N 
ATOM      6  C   UNL     1       0.538  -4.406   0.869  0.00  0.00    +0.268 A 
ATOM      7  O   UNL     1      -0.363  -5.202   0.676  0.00  0.00    -0.266 OA
ATOM      8  C   UNL     1       1.924  -4.729   0.503  0.00  0.00    +0.081 A 
ATOM      9  C   UNL     1       2.428  -5.855  -0.064  0.00  0.00    +0.028 C 
ATOM     10  S   UNL     1       2.768  -3.236   1.004  0.00  0.00    -0.046 S 
ATOM     11  C   UNL     1       1.350  -2.348   1.619  0.00  0.00    +0.178 A 
ATOM     12  N   UNL     1       1.232  -1.155   2.143  0.00  0.00    -0.228 NA
ENDROOT
BRANCH   9  13
ATOM     13  C   UNL     1       3.881  -6.034  -0.178  0.00  0.00    -0.020 A 
ATOM     14  C   UNL     1       4.747  -5.264   0.608  0.00  0.00    +0.012 A 
ATOM     15  C   UNL     1       6.109  -5.434   0.499  0.00  0.00    +0.051 A 
ATOM     16  C   UNL     1       6.628  -6.367  -0.389  0.00  0.00    +0.173 A 
ATOM     17  C   UNL     1       5.772  -7.138  -1.175  0.00  0.00    +0.163 A 
ATOM     18  C   UNL     1       4.404  -6.979  -1.069  0.00  0.00    +0.057 A 
BRANCH  17  19
ATOM     19  O   UNL     1       6.285  -8.049  -2.044  0.00  0.00    -0.491 OA
ATOM     20  C   UNL     1       5.351  -8.804  -2.819  0.00  0.00    +0.277 C 
ENDBRANCH  17  19
BRANCH  16  21
ATOM     21  O   UNL     1       7.973  -6.530  -0.492  0.00  0.00    -0.422 OA
BRANCH  21  22
ATOM     22  C   UNL     1       8.599  -5.957  -1.532  0.00  0.00    +0.309 C 
ATOM     23  O   UNL     1       7.958  -5.390  -2.385  0.00  0.00    -0.251 OA
ATOM     24  C   UNL     1      10.101  -6.021  -1.635  0.00  0.00    +0.136 C 
ENDBRANCH  21  22
ENDBRANCH  16  21
ENDBRANCH   9  13
BRANCH   4  25
ATOM     25  C   UNL     1      -1.588  -3.667   2.876  0.00  0.00    -0.016 A 
ATOM     26  C   UNL     1      -0.791  -4.103   3.918  0.00  0.00    +0.010 A 
ATOM     27  C   UNL     1      -1.294  -4.988   4.853  0.00  0.00    +0.050 A 
ATOM     28  C   UNL     1      -2.599  -5.440   4.748  0.00  0.00    +0.162 A 
ATOM     29  C   UNL     1      -3.402  -5.001   3.699  0.00  0.00    +0.162 A 
ATOM     30  C   UNL     1      -2.893  -4.110   2.768  0.00  0.00    +0.055 A 
BRANCH  29  31
ATOM     31  O   UNL     1      -4.684  -5.442   3.591  0.00  0.00    -0.491 OA
ATOM     32  C   UNL     1      -5.449  -4.949   2.490  0.00  0.00    +0.277 C 
ENDBRANCH  29  31
BRANCH  28  33
ATOM     33  O   UNL     1      -3.095  -6.311   5.667  0.00  0.00    -0.491 OA
ATOM     34  C   UNL     1      -2.214  -6.719   6.716  0.00  0.00    +0.277 C 
ENDBRANCH  28  33
ENDBRANCH   4  25
BRANCH   3  35
ATOM     35  C   UNL     1      -2.292  -0.759   2.900  0.00  0.00    +0.340 C 
ATOM     36  O   UNL     1      -2.308   0.360   3.382  0.00  0.00    -0.245 OA
BRANCH  35  37
ATOM     37  O   UNL     1      -3.440  -1.462   2.787  0.00  0.00    -0.457 OA
BRANCH  37  38
ATOM     38  C   UNL     1      -4.635  -0.833   3.253  0.00  0.00    +0.259 C 
BRANCH  38  39
ATOM     39  C   UNL     1      -5.804  -1.762   3.048  0.00  0.00    +0.006 C 
ATOM     40  C   UNL     1      -6.684  -1.929   4.004  0.00  0.00    +0.007 C 
ENDBRANCH  38  39
ENDBRANCH  37  38
ENDBRANCH  35  37
ENDBRANCH   3  35
TORSDOF 11
