REMARK  Name = ZINC12478428
REMARK  12 active torsions:
REMARK  status: ('A' for Active; 'I' for Inactive)
REMARK    1  A    between atoms: C_1  and  C_2
REMARK    2  A    between atoms: C_5  and  C_7
REMARK    3  A    between atoms: C_7  and  C_9
REMARK    4  A    between atoms: C_7  and  N_16
REMARK    5  A    between atoms: N_11  and  C_12
REMARK    6  A    between atoms: C_12  and  C_13
REMARK    7  A    between atoms: C_12  and  C_14
REMARK    8  A    between atoms: C_12  and  C_15
REMARK    9  A    between atoms: N_16  and  C_17
REMARK   10  A    between atoms: C_24  and  C_26
REMARK   11  A    between atoms: C_26  and  N_27
REMARK   12  A    between atoms: C_29  and  C_32
REMARK                            x       y       z     vdW  Elec       q    Type
REMARK                         _______ _______ _______ _____ _____    ______ ____
ROOT
ATOM      1  N   UNL     1       3.265   2.331  -0.904  0.00  0.00    -0.248 N 
ATOM      2  C   UNL     1       3.906   1.812  -1.970  0.00  0.00    +0.244 C 
ATOM      3  O   UNL     1       3.849   0.622  -2.192  0.00  0.00    -0.273 OA
ENDROOT
BRANCH   1   4
ATOM      4  C   UNL     1       3.330   3.706  -0.647  0.00  0.00    +0.073 A 
ATOM      5  C   UNL     1       4.343   4.217   0.153  0.00  0.00    +0.026 A 
ATOM      6  C   UNL     1       4.406   5.574   0.404  0.00  0.00    +0.002 A 
ATOM      7  C   UNL     1       3.462   6.424  -0.141  0.00  0.00    +0.003 A 
ATOM      8  C   UNL     1       2.451   5.920  -0.940  0.00  0.00    +0.040 A 
ATOM      9  C   UNL     1       2.385   4.564  -1.199  0.00  0.00    +0.145 A 
ATOM     10  F   UNL     1       1.401   4.072  -1.983  0.00  0.00    -0.204 F 
ENDBRANCH   1   4
BRANCH   1  11
ATOM     11  C   UNL     1       2.499   1.455  -0.013  0.00  0.00    +0.233 C 
BRANCH  11  16
ATOM     12  C   UNL     1      -1.592   4.406   0.040  0.00  0.00    +0.086 C 
ATOM     13  C   UNL     1      -0.722   3.175   0.026  0.00  0.00    +0.102 A 
ATOM     14  C   UNL     1      -1.159   1.903   0.017  0.00  0.00    +0.045 A 
ATOM     15  C   UNL     1      -0.013   1.076   0.008  0.00  0.00    +0.047 A 
ATOM     16  C   UNL     1       1.057   1.892   0.002  0.00  0.00    +0.135 A 
ATOM     17  O   UNL     1       0.621   3.162   0.013  0.00  0.00    -0.462 OA
ENDBRANCH  11  16
BRANCH  11  18
ATOM     18  C   UNL     1       3.064   1.539   1.381  0.00  0.00    +0.242 C 
ATOM     19  O   UNL     1       4.013   2.259   1.609  0.00  0.00    -0.273 OA
ATOM     20  N   UNL     1       2.515   0.814   2.376  0.00  0.00    -0.309 N 
ATOM     21  H   UNL     1       1.756   0.238   2.194  0.00  0.00    +0.149 HD
BRANCH  20  22
ATOM     22  C   UNL     1       3.064   0.895   3.731  0.00  0.00    +0.026 C 
ATOM     23  C   UNL     1       2.973   2.338   4.233  0.00  0.00    +0.031 C 
ATOM     24  C   UNL     1       2.264  -0.019   4.661  0.00  0.00    +0.031 C 
ATOM     25  C   UNL     1       4.528   0.451   3.716  0.00  0.00    +0.031 C 
ENDBRANCH  20  22
ENDBRANCH  11  18
ENDBRANCH   1  11
BRANCH   2  26
ATOM     26  C   UNL     1       4.694   2.713  -2.886  0.00  0.00    +0.264 C 
BRANCH  26  27
ATOM     27  N   UNL     1       5.291   1.915  -3.960  0.00  0.00    -0.154 N 
ATOM     28  N   UNL     1       6.455   1.363  -3.919  0.00  0.00    -0.130 NA
ATOM     29  C   UNL     1       6.642   0.732  -5.061  0.00  0.00    +0.205 A 
ATOM     30  N   UNL     1       5.540   0.935  -5.797  0.00  0.00    -0.108 NA
ATOM     31  N   UNL     1       4.739   1.661  -5.094  0.00  0.00    -0.045 NA
BRANCH  29  32
ATOM     32  C   UNL     1       7.841  -0.048  -5.457  0.00  0.00    +0.023 A 
ATOM     33  C   UNL     1       8.918  -0.167  -4.581  0.00  0.00    +0.014 A 
ATOM     34  C   UNL     1      10.029  -0.897  -4.951  0.00  0.00    +0.039 A 
ATOM     35  C   UNL     1      10.079  -1.502  -6.196  0.00  0.00    +0.123 A 
ATOM     36  C   UNL     1       9.013  -1.383  -7.072  0.00  0.00    +0.039 A 
ATOM     37  C   UNL     1       7.896  -0.659  -6.708  0.00  0.00    +0.014 A 
ATOM     38  F   UNL     1      11.171  -2.212  -6.557  0.00  0.00    -0.205 F 
ENDBRANCH  29  32
ENDBRANCH  26  27
ENDBRANCH   2  26
TORSDOF 8
