REMARK  Name = ZINC67019335
REMARK  4 active torsions:
REMARK  status: ('A' for Active; 'I' for Inactive)
REMARK    1  A    between atoms: C_4  and  C_7
REMARK    2  A    between atoms: C_9  and  C_26
REMARK    3  A    between atoms: C_10  and  N_12
REMARK    4  A    between atoms: C_13  and  C_15
REMARK                            x       y       z     vdW  Elec       q    Type
REMARK                         _______ _______ _______ _____ _____    ______ ____
ROOT
ATOM      1  C   UNL     1       3.695  -0.684  -0.037  0.00  0.00    +0.022 A 
ATOM      2  C   UNL     1       3.921  -2.027  -0.052  0.00  0.00    +0.031 A 
ATOM      3  C   UNL     1       5.258  -2.430  -0.066  0.00  0.00    +0.066 A 
ATOM      4  C   UNL     1       6.229  -1.435  -0.064  0.00  0.00    +0.085 A 
ATOM      5  S   UNL     1       5.343  -0.008  -0.051  0.00  0.00    -0.073 S 
ENDROOT
BRANCH   1   9
ATOM      6  C   UNL     1      -0.017   1.379   0.010  0.00  0.00    +0.000 A 
ATOM      7  C   UNL     1       1.168   2.094   0.002  0.00  0.00    +0.001 A 
ATOM      8  C   UNL     1       2.377   1.429  -0.013  0.00  0.00    +0.009 A 
ATOM      9  C   UNL     1       2.404   0.034  -0.021  0.00  0.00    -0.011 A 
ATOM     10  C   UNL     1       1.204  -0.681  -0.013  0.00  0.00    +0.009 A 
ATOM     11  C   UNL     1       0.002  -0.004   0.002  0.00  0.00    +0.001 A 
ENDBRANCH   1   9
BRANCH   3  12
ATOM     12  C   UNL     1       5.624  -3.850  -0.083  0.00  0.00    +0.244 C 
ATOM     13  O   UNL     1       6.796  -4.176  -0.094  0.00  0.00    -0.270 OA
ATOM     14  N   UNL     1       4.662  -4.794  -0.085  0.00  0.00    -0.325 N 
ATOM     15  H   UNL     1       3.727  -4.534  -0.076  0.00  0.00    +0.145 HD
ATOM     16  H   UNL     1       4.904  -5.734  -0.096  0.00  0.00    +0.145 HD
ENDBRANCH   3  12
BRANCH   4  17
ATOM     17  N   UNL     1       7.605  -1.585  -0.075  0.00  0.00    -0.275 N 
ATOM     18  C   UNL     1       8.401  -0.498  -0.070  0.00  0.00    +0.252 C 
ATOM     19  O   UNL     1       7.911   0.615  -0.056  0.00  0.00    -0.270 OA
ATOM     20  H   UNL     1       7.996  -2.473  -0.087  0.00  0.00    +0.156 HD
BRANCH  18  21
ATOM     21  C   UNL     1       9.867  -0.658  -0.083  0.00  0.00    +0.080 A 
ATOM     22  C   UNL     1      10.437  -1.935  -0.106  0.00  0.00    +0.017 A 
ATOM     23  C   UNL     1      11.806  -2.081  -0.117  0.00  0.00    +0.003 A 
ATOM     24  C   UNL     1      12.631  -0.968  -0.108  0.00  0.00    +0.027 A 
ATOM     25  C   UNL     1      12.083   0.303  -0.085  0.00  0.00    +0.076 A 
ATOM     26  C   UNL     1      10.698   0.467  -0.078  0.00  0.00    +0.154 A 
ATOM     27  O   UNL     1      10.172   1.717  -0.059  0.00  0.00    -0.480 OA
ATOM     28  C   UNL     1      10.918   2.719   0.638  0.00  0.00    +0.325 C 
ATOM     29  C   UNL     1      12.371   2.634   0.245  0.00  0.00    +0.255 C 
ATOM     30  O   UNL     1      13.056   3.634   0.226  0.00  0.00    -0.272 OA
ATOM     31  N   UNL     1      12.906   1.438  -0.076  0.00  0.00    -0.280 N 
ATOM     32  H   UNL     1      13.845   1.368  -0.308  0.00  0.00    +0.155 HD
ENDBRANCH  18  21
ENDBRANCH   4  17
TORSDOF 4
