REMARK  Name = ZINC13567640
REMARK  6 active torsions:
REMARK  status: ('A' for Active; 'I' for Inactive)
REMARK    1  A    between atoms: C_1  and  C_2
REMARK    2  A    between atoms: C_2  and  C_33
REMARK    3  A    between atoms: N_16  and  C_19
REMARK    4  A    between atoms: C_20  and  C_31
REMARK    5  A    between atoms: C_21  and  N_30
REMARK    6  A    between atoms: N_22  and  C_23
REMARK                            x       y       z     vdW  Elec       q    Type
REMARK                         _______ _______ _______ _____ _____    ______ ____
ROOT
ATOM      1  C   UNL     1       1.996   1.120   2.137  0.00  0.00    +0.011 C 
ATOM      2  C   UNL     1       2.364   1.375   0.674  0.00  0.00    -0.023 C 
ATOM      3  C   UNL     1       2.491   0.040  -0.064  0.00  0.00    +0.058 C 
ATOM      4  C   UNL     1       1.168  -0.685  -0.033  0.00  0.00    +0.026 C 
ATOM      5  C   UNL     1       0.002  -0.004   0.002  0.00  0.00    +0.037 C 
ATOM      6  C   UNL     1      -0.017   1.401   0.010  0.00  0.00    +0.163 C 
ATOM      7  O   UNL     1      -1.084   1.984   0.018  0.00  0.00    -0.292 OA
ATOM      8  C   UNL     1       1.259   2.198   0.002  0.00  0.00    +0.086 C 
ATOM      9  C   UNL     1      -1.315  -0.735   0.038  0.00  0.00    +0.141 C 
ATOM     10  C   UNL     1      -1.918  -0.661   1.407  0.00  0.00    -0.001 A 
ATOM     11  C   UNL     1      -1.476  -1.133   2.624  0.00  0.00    +0.007 A 
ATOM     12  C   UNL     1      -2.290  -0.894   3.727  0.00  0.00    +0.000 A 
ATOM     13  C   UNL     1      -3.485  -0.215   3.603  0.00  0.00    +0.002 A 
ATOM     14  C   UNL     1      -3.936   0.262   2.382  0.00  0.00    +0.024 A 
ATOM     15  C   UNL     1      -3.128   0.029   1.268  0.00  0.00    +0.041 A 
ATOM     16  N   UNL     1      -3.328   0.387  -0.053  0.00  0.00    -0.273 N 
ATOM     17  C   UNL     1      -2.316  -0.020  -0.847  0.00  0.00    +0.240 C 
ATOM     18  O   UNL     1      -2.225   0.153  -2.044  0.00  0.00    -0.274 OA
ATOM     19  C   UNL     1      -4.501   1.122  -0.533  0.00  0.00    +0.138 C 
ATOM     20  C   UNL     1      -1.166  -2.160  -0.403  0.00  0.00    +0.089 C 
ATOM     21  C   UNL     1       0.054  -2.759  -0.425  0.00  0.00    +0.108 C 
ATOM     22  N   UNL     1       1.175  -2.055  -0.048  0.00  0.00    -0.259 N 
ATOM     23  C   UNL     1       3.690   2.134   0.597  0.00  0.00    +0.011 C 
ENDROOT
BRANCH  22  24
ATOM     24  C   UNL     1       2.333  -2.746   0.327  0.00  0.00    +0.058 A 
ATOM     25  C   UNL     1       2.533  -3.103   1.654  0.00  0.00    +0.025 A 
ATOM     26  C   UNL     1       3.676  -3.785   2.020  0.00  0.00    +0.002 A 
ATOM     27  C   UNL     1       4.623  -4.113   1.067  0.00  0.00    +0.002 A 
ATOM     28  C   UNL     1       4.429  -3.760  -0.256  0.00  0.00    +0.022 A 
ATOM     29  C   UNL     1       3.284  -3.081  -0.630  0.00  0.00    +0.063 A 
ATOM     30 CL   UNL     1       3.037  -2.644  -2.292  0.00  0.00    -0.082 Cl
ENDBRANCH  22  24
BRANCH  21  31
ATOM     31  N   UNL     1       0.168  -4.068  -0.827  0.00  0.00    -0.345 N 
ATOM     32  H   UNL     1       1.039  -4.496  -0.843  0.00  0.00    +0.144 HD
ATOM     33  H   UNL     1      -0.621  -4.565  -1.093  0.00  0.00    +0.144 HD
ENDBRANCH  21  31
BRANCH  20  34
ATOM     34  C   UNL     1      -2.325  -2.900  -0.804  0.00  0.00    +0.100 C 
ATOM     35  N   UNL     1      -3.243  -3.487  -1.123  0.00  0.00    -0.191 NA
ENDBRANCH  20  34
TORSDOF 3
