REMARK  Name = ZINC24828989
REMARK  8 active torsions:
REMARK  status: ('A' for Active; 'I' for Inactive)
REMARK    1  A    between atoms: C_1  and  C_2
REMARK    2  A    between atoms: C_2  and  C_3
REMARK    3  A    between atoms: C_2  and  C_4
REMARK    4  A    between atoms: C_4  and  C_5
REMARK    5  A    between atoms: C_5  and  N_6
REMARK    6  A    between atoms: C_10  and  C_12
REMARK    7  A    between atoms: C_12  and  N_13
REMARK    8  A    between atoms: C_22  and  C_24
REMARK                            x       y       z     vdW  Elec       q    Type
REMARK                         _______ _______ _______ _____ _____    ______ ____
ROOT
ATOM      1  N   UNL     1       2.565   5.530   0.212  0.00  0.00    +0.396 N 
ATOM      2  C   UNL     1       2.689   4.212   0.841  0.00  0.00    -0.041 C 
ATOM      3  C   UNL     1       1.635   3.274   0.314  0.00  0.00    -0.061 A 
ATOM      4  C   UNL     1       1.808   1.911   0.503  0.00  0.00    +0.002 A 
ATOM      5  C   UNL     1       0.865   1.016   0.040  0.00  0.00    +0.000 A 
ATOM      6  C   UNL     1      -0.258   1.480  -0.620  0.00  0.00    +0.000 A 
ATOM      7  C   UNL     1      -0.435   2.836  -0.805  0.00  0.00    +0.004 A 
ATOM      8  C   UNL     1       0.513   3.736  -0.342  0.00  0.00    -0.047 A 
ATOM      9  C   UNL     1       0.284   5.207  -0.578  0.00  0.00    +0.029 C 
ATOM     10  C   UNL     1       1.187   6.029   0.342  0.00  0.00    +0.024 C 
ATOM     11  H   UNL     1       2.800   5.425  -0.858  0.00  0.00    -0.080 HD
ENDROOT
BRANCH  10  12
ATOM     12  C   UNL     1       1.134   7.480  -0.062  0.00  0.00    +0.197 C 
ATOM     13  O   UNL     1       1.865   7.893  -0.938  0.00  0.00    -0.278 OA
ATOM     14  N   UNL     1       0.274   8.319   0.548  0.00  0.00    -0.331 N 
ATOM     15  H   UNL     1       0.235   9.378   0.253  0.00  0.00    +0.145 HD
ATOM     16  H   UNL     1      -0.390   7.944   1.342  0.00  0.00    +0.145 HD
ENDBRANCH  10  12
BRANCH   1  17
ATOM     17  C   UNL     1       3.526   6.481   0.787  0.00  0.00    +0.021 C 
BRANCH  17  22
ATOM     18  N   UNL     1       4.196   8.852   4.915  0.00  0.00    -0.299 N 
ATOM     19  C   UNL     1       3.522   7.918   4.215  0.00  0.00    +0.306 C 
ATOM     20  O   UNL     1       2.626   7.291   4.744  0.00  0.00    -0.252 OA
ATOM     21  N   UNL     1       3.842   7.681   2.927  0.00  0.00    -0.242 N 
ATOM     22  C   UNL     1       3.168   6.747   2.227  0.00  0.00    +0.204 C 
ATOM     23  O   UNL     1       2.274   6.121   2.755  0.00  0.00    -0.277 OA
ATOM     24  H   UNL     1       5.007   9.420   4.436  0.00  0.00    +0.150 HD
ATOM     25  H   UNL     1       4.653   8.248   2.448  0.00  0.00    +0.159 HD
BRANCH  18  26
ATOM     26  C   UNL     1       3.848   9.111   6.314  0.00  0.00    +0.106 C 
BRANCH  26  27
ATOM     27  C   UNL     1       4.757  10.208   6.872  0.00  0.00    +0.022 C 
BRANCH  27  29
ATOM     28  C   UNL     1       5.382  11.484   8.927  0.00  0.00    +0.007 C 
ATOM     29  C   UNL     1       4.394  10.478   8.333  0.00  0.00    -0.016 C 
ATOM     30  C   UNL     1       2.977  11.050   8.409  0.00  0.00    +0.007 C 
ENDBRANCH  27  29
ENDBRANCH  26  27
ENDBRANCH  18  26
ENDBRANCH  17  22
ENDBRANCH   1  17
TORSDOF 6
