REMARK  Name = ZINC06635084
REMARK  10 active torsions:
REMARK  status: ('A' for Active; 'I' for Inactive)
REMARK    1  A    between atoms: C_1  and  C_2
REMARK    2  A    between atoms: C_2  and  C_3
REMARK    3  A    between atoms: C_3  and  C_4
REMARK    4  A    between atoms: C_4  and  C_5
REMARK    5  A    between atoms: C_5  and  C_6
REMARK    6  A    between atoms: N_8  and  C_9
REMARK    7  A    between atoms: C_9  and  N_11
REMARK    8  A    between atoms: N_11  and  C_12
REMARK    9  A    between atoms: C_13  and  C_23
REMARK   10  A    between atoms: C_18  and  C_22
REMARK                            x       y       z     vdW  Elec       q    Type
REMARK                         _______ _______ _______ _____ _____    ______ ____
ROOT
ATOM      1  C   UNL     1      -1.044   1.802   5.933  0.00  0.00    +0.084 A 
ATOM      2  C   UNL     1      -0.710   1.574   7.260  0.00  0.00    +0.068 A 
ATOM      3  C   UNL     1      -1.565   2.162   8.278  0.00  0.00    -0.023 A 
ATOM      4  C   UNL     1      -2.608   2.879   7.809  0.00  0.00    -0.004 A 
ATOM      5  S   UNL     1      -2.465   2.787   6.047  0.00  0.00    -0.077 S 
ATOM      6  C   UNL     1      -3.648   3.594   8.615  0.00  0.00    +0.046 C 
ATOM      7  C   UNL     1      -3.573   3.085  10.062  0.00  0.00    -0.009 C 
ATOM      8  C   UNL     1      -2.110   3.095  10.513  0.00  0.00    +0.008 C 
ATOM      9  C   UNL     1      -1.331   2.004   9.776  0.00  0.00    +0.037 C 
ATOM     10  C   UNL     1      -4.399   3.998  10.970  0.00  0.00    +0.008 C 
ENDROOT
BRANCH   2  11
ATOM     11  C   UNL     1       0.461   0.770   7.622  0.00  0.00    +0.244 C 
ATOM     12  O   UNL     1       1.544   1.305   7.771  0.00  0.00    -0.270 OA
ATOM     13  N   UNL     1       0.338  -0.562   7.790  0.00  0.00    -0.325 N 
ATOM     14  H   UNL     1      -0.525  -0.988   7.672  0.00  0.00    +0.145 HD
ATOM     15  H   UNL     1       1.113  -1.094   8.030  0.00  0.00    +0.145 HD
ENDBRANCH   2  11
BRANCH   1  16
ATOM     16  N   UNL     1      -0.396   1.355   4.793  0.00  0.00    -0.291 N 
ATOM     17  H   UNL     1       0.401   0.807   4.871  0.00  0.00    +0.154 HD
BRANCH  16  18
ATOM     18  C   UNL     1      -0.872   1.681   3.575  0.00  0.00    +0.141 C 
ATOM     19  S   UNL     1      -2.279   2.647   3.436  0.00  0.00    -0.018 S 
BRANCH  18  22
ATOM     20  C   UNL     1      -0.718   1.572   1.248  0.00  0.00    +0.218 C 
ATOM     21  O   UNL     1      -1.714   2.256   1.150  0.00  0.00    -0.275 OA
ATOM     22  N   UNL     1      -0.242   1.246   2.466  0.00  0.00    -0.268 N 
ATOM     23  H   UNL     1       0.555   0.699   2.544  0.00  0.00    +0.156 HD
BRANCH  20  24
ATOM     24  C   UNL     1      -0.013   1.086   0.008  0.00  0.00    +0.096 C 
BRANCH  24  25
ATOM     25  C   UNL     1      -0.753   1.593  -1.232  0.00  0.00    +0.009 C 
BRANCH  25  26
ATOM     26  C   UNL     1      -0.037   1.099  -2.490  0.00  0.00    +0.000 C 
BRANCH  26  28
ATOM     27  C   UNL     1      -0.060   1.113  -4.989  0.00  0.00    +0.004 C 
ATOM     28  C   UNL     1      -0.777   1.606  -3.730  0.00  0.00    -0.003 C 
ENDBRANCH  26  28
ENDBRANCH  25  26
ENDBRANCH  24  25
ENDBRANCH  20  24
ENDBRANCH  18  22
ENDBRANCH  16  18
ENDBRANCH   1  16
TORSDOF 8
