REMARK  Name = ZINC16218217
REMARK  11 active torsions:
REMARK  status: ('A' for Active; 'I' for Inactive)
REMARK    1  A    between atoms: C_1  and  C_2
REMARK    2  A    between atoms: C_2  and  C_3
REMARK    3  A    between atoms: C_3  and  C_4
REMARK    4  A    between atoms: C_4  and  N_5
REMARK    5  A    between atoms: N_5  and  C_6
REMARK    6  A    between atoms: C_6  and  N_8
REMARK    7  A    between atoms: N_8  and  N_9
REMARK    8  A    between atoms: N_9  and  C_10
REMARK    9  A    between atoms: C_13  and  S_19
REMARK   10  A    between atoms: C_15  and  N_16
REMARK   11  A    between atoms: S_19  and  N_22
REMARK                            x       y       z     vdW  Elec       q    Type
REMARK                         _______ _______ _______ _____ _____    ______ ____
ROOT
ATOM      1  C   UNL     1       3.272  -3.825   5.926  0.00  0.00    +0.075 A 
ATOM      2  C   UNL     1       3.336  -5.188   6.189  0.00  0.00    +0.028 A 
ATOM      3  C   UNL     1       4.203  -5.664   7.153  0.00  0.00    +0.030 A 
ATOM      4  C   UNL     1       5.007  -4.785   7.856  0.00  0.00    +0.107 A 
ATOM      5  C   UNL     1       4.946  -3.429   7.598  0.00  0.00    +0.063 A 
ATOM      6  C   UNL     1       4.085  -2.946   6.631  0.00  0.00    +0.150 A 
ENDROOT
BRANCH   6   7
ATOM      7  N   UNL     1       4.025  -1.494   6.350  0.00  0.00    +0.058 N 
ATOM      8  O   UNL     1       3.872  -1.104   5.216  0.00  0.00    -0.126 OA
ATOM      9  O   UNL     1       4.129  -0.699   7.255  0.00  0.00    -0.126 OA
ENDBRANCH   6   7
BRANCH   4  10
ATOM     10  S   UNL     1       6.111  -5.397   9.086  0.00  0.00    +0.056 S 
ATOM     11  O   UNL     1       6.358  -4.322   9.981  0.00  0.00    -0.153 OA
ATOM     12  O   UNL     1       5.586  -6.644   9.519  0.00  0.00    -0.153 OA
BRANCH  10  13
ATOM     13  N   UNL     1       7.549  -5.725   8.333  0.00  0.00    -0.204 NA
ATOM     14  H   UNL     1       7.645  -5.567   7.380  0.00  0.00    +0.144 HD
ATOM     15  H   UNL     1       8.296  -6.075   8.844  0.00  0.00    +0.144 HD
ENDBRANCH  10  13
ENDBRANCH   4  10
BRANCH   1  16
ATOM     16  N   UNL     1       2.397  -3.340   4.952  0.00  0.00    -0.263 N 
ATOM     17  H   UNL     1       2.295  -2.384   4.824  0.00  0.00    +0.170 HD
BRANCH  16  18
ATOM     18  N   UNL     1       1.667  -4.235   4.159  0.00  0.00    -0.248 N 
ATOM     19  H   UNL     1       1.769  -5.191   4.286  0.00  0.00    +0.172 HD
BRANCH  18  20
ATOM     20  C   UNL     1       0.822  -3.767   3.218  0.00  0.00    +0.147 C 
ATOM     21  S   UNL     1      -0.070  -4.861   2.249  0.00  0.00    -0.017 S 
BRANCH  20  22
ATOM     22  N   UNL     1       0.680  -2.439   3.041  0.00  0.00    -0.325 N 
ATOM     23  H   UNL     1       1.185  -1.819   3.590  0.00  0.00    +0.148 HD
BRANCH  22  24
ATOM     24  C   UNL     1      -0.238  -1.930   2.019  0.00  0.00    +0.103 C 
BRANCH  24  25
ATOM     25  C   UNL     1      -0.212  -0.401   2.025  0.00  0.00    +0.018 C 
BRANCH  25  27
ATOM     26  C   UNL     1      -1.144   1.660   0.964  0.00  0.00    +0.004 C 
ATOM     27  C   UNL     1      -1.171   0.131   0.958  0.00  0.00    -0.002 C 
ENDBRANCH  25  27
ENDBRANCH  24  25
ENDBRANCH  22  24
ENDBRANCH  20  22
ENDBRANCH  18  20
ENDBRANCH  16  18
ENDBRANCH   1  16
TORSDOF 10
