REMARK  Name = ZINC02955676
REMARK  6 active torsions:
REMARK  status: ('A' for Active; 'I' for Inactive)
REMARK    1  A    between atoms: C_4  and  C_10
REMARK    2  A    between atoms: C_6  and  N_7
REMARK    3  A    between atoms: C_13  and  C_15
REMARK    4  A    between atoms: N_16  and  N_17
REMARK    5  A    between atoms: N_17  and  C_18
REMARK    6  A    between atoms: C_18  and  N_20
REMARK                            x       y       z     vdW  Elec       q    Type
REMARK                         _______ _______ _______ _____ _____    ______ ____
ROOT
ATOM      1  C   UNL     1      -2.467   4.235   0.048  0.00  0.00    +0.139 A 
ATOM      2  C   UNL     1      -2.811   5.275   0.945  0.00  0.00    +0.050 A 
ATOM      3  C   UNL     1      -4.070   5.681   0.639  0.00  0.00    +0.051 A 
ATOM      4  C   UNL     1      -4.512   4.845  -0.486  0.00  0.00    +0.148 A 
ATOM      5  O   UNL     1      -3.498   4.003  -0.784  0.00  0.00    -0.454 OA
ENDROOT
BRANCH   1   9
ATOM      6  C   UNL     1       1.181   2.182   0.003  0.00  0.00    +0.036 A 
ATOM      7  C   UNL     1       1.185   3.563   0.009  0.00  0.00    +0.054 A 
ATOM      8  C   UNL     1      -0.014   4.260   0.024  0.00  0.00    +0.190 A 
ATOM      9  C   UNL     1      -1.236   3.543   0.032  0.00  0.00    +0.066 A 
ATOM     10  C   UNL     1      -1.211   2.135   0.019  0.00  0.00    +0.048 A 
ATOM     11  C   UNL     1      -0.018   1.476   0.010  0.00  0.00    +0.127 A 
ATOM     12  O   UNL     1      -0.016   5.614   0.031  0.00  0.00    -0.287 OA
BRANCH  11  13
ATOM     13  N   UNL     1       0.002  -0.004   0.002  0.00  0.00    +0.056 N 
ATOM     14  O   UNL     1       1.151  -0.647  -0.012  0.00  0.00    -0.126 OA
ATOM     15  O   UNL     1      -1.129  -0.678   0.009  0.00  0.00    -0.126 OA
ENDBRANCH  11  13
ENDBRANCH   1   9
BRANCH   4  16
ATOM     16  C   UNL     1      -5.743   4.909  -1.124  0.00  0.00    +0.176 C 
ATOM     17  N   UNL     1      -6.011   4.089  -2.132  0.00  0.00    -0.185 NA
BRANCH  17  18
ATOM     18  N   UNL     1      -7.155   4.149  -2.725  0.00  0.00    -0.218 N 
ATOM     19  H   UNL     1      -7.819   4.793  -2.434  0.00  0.00    +0.176 HD
BRANCH  18  20
ATOM     20  C   UNL     1      -7.427   3.316  -3.750  0.00  0.00    +0.147 C 
ATOM     21  S   UNL     1      -8.946   3.395  -4.537  0.00  0.00    -0.017 S 
BRANCH  20  22
ATOM     22  N   UNL     1      -6.504   2.421  -4.154  0.00  0.00    -0.339 N 
ATOM     23  H   UNL     1      -5.644   2.377  -3.708  0.00  0.00    +0.144 HD
ATOM     24  H   UNL     1      -6.700   1.822  -4.891  0.00  0.00    +0.144 HD
ENDBRANCH  20  22
ENDBRANCH  18  20
ENDBRANCH  17  18
ENDBRANCH   4  16
TORSDOF 6
