REMARK  Name = ZINC15982526
REMARK  9 active torsions:
REMARK  status: ('A' for Active; 'I' for Inactive)
REMARK    1  A    between atoms: C_1  and  S_2
REMARK    2  A    between atoms: S_2  and  C_3
REMARK    3  A    between atoms: C_3  and  C_4
REMARK    4  A    between atoms: C_4  and  C_5
REMARK    5  A    between atoms: C_5  and  C_7
REMARK    6  A    between atoms: C_5  and  N_23
REMARK    7  A    between atoms: N_9  and  C_10
REMARK    8  A    between atoms: C_24  and  C_26
REMARK    9  A    between atoms: C_30  and  N_32
REMARK                            x       y       z     vdW  Elec       q    Type
REMARK                         _______ _______ _______ _____ _____    ______ ____
ROOT
ATOM      1  C   UNL     1      -3.221  -2.413  -0.068  0.00  0.00    +0.160 C 
ENDROOT
BRANCH   1   2
ATOM      2  C   UNL     1      -3.331  -3.910   0.062  0.00  0.00    +0.238 C 
ATOM      3  O   UNL     1      -3.748  -4.570  -0.866  0.00  0.00    -0.273 OA
ATOM      4  N   UNL     1      -2.966  -4.516   1.209  0.00  0.00    -0.284 N 
ATOM      5  H   UNL     1      -2.562  -3.999   1.923  0.00  0.00    +0.155 HD
BRANCH   4   6
ATOM      6  C   UNL     1      -3.171  -5.890   1.370  0.00  0.00    +0.034 A 
ATOM      7  C   UNL     1      -2.278  -6.643   2.123  0.00  0.00    +0.024 A 
ATOM      8  C   UNL     1      -2.477  -7.997   2.284  0.00  0.00    +0.010 A 
ATOM      9  C   UNL     1      -3.578  -8.618   1.690  0.00  0.00    -0.014 A 
ATOM     10  C   UNL     1      -4.470  -7.857   0.938  0.00  0.00    -0.034 A 
ATOM     11  C   UNL     1      -4.272  -6.503   0.783  0.00  0.00    +0.028 A 
ATOM     12  C   UNL     1      -5.544  -8.787   0.429  0.00  0.00    +0.071 C 
ATOM     13  C   UNL     1      -5.193 -10.157   0.956  0.00  0.00    -0.035 A 
ATOM     14  C   UNL     1      -4.023 -10.033   1.701  0.00  0.00    -0.014 A 
ATOM     15  C   UNL     1      -3.474 -11.165   2.307  0.00  0.00    +0.009 A 
ATOM     16  C   UNL     1      -4.091 -12.390   2.163  0.00  0.00    +0.001 A 
ATOM     17  C   UNL     1      -5.252 -12.504   1.421  0.00  0.00    +0.000 A 
ATOM     18  C   UNL     1      -5.802 -11.386   0.817  0.00  0.00    +0.004 A 
ENDBRANCH   4   6
ENDBRANCH   1   2
BRANCH   1  19
ATOM     19  N   UNL     1      -3.675  -2.003  -1.399  0.00  0.00    -0.300 N 
ATOM     20  C   UNL     1      -4.146  -0.756  -1.596  0.00  0.00    +0.245 C 
ATOM     21  O   UNL     1      -4.193   0.029  -0.669  0.00  0.00    -0.270 OA
ATOM     22  H   UNL     1      -3.637  -2.630  -2.138  0.00  0.00    +0.150 HD
BRANCH  20  23
ATOM     23  C   UNL     1      -4.604  -0.342  -2.939  0.00  0.00    +0.039 A 
ATOM     24  C   UNL     1      -4.557  -1.244  -4.004  0.00  0.00    +0.013 A 
ATOM     25  C   UNL     1      -4.986  -0.852  -5.255  0.00  0.00    +0.003 A 
ATOM     26  C   UNL     1      -5.464   0.432  -5.455  0.00  0.00    +0.033 A 
ATOM     27  C   UNL     1      -5.513   1.330  -4.404  0.00  0.00    +0.127 A 
ATOM     28  C   UNL     1      -5.092   0.949  -3.147  0.00  0.00    +0.045 A 
BRANCH  27  29
ATOM     29  N   UNL     1      -6.024   2.701  -4.628  0.00  0.00    +0.056 N 
ATOM     30  O   UNL     1      -6.398   3.035  -5.728  0.00  0.00    -0.126 OA
ATOM     31  O   UNL     1      -6.068   3.487  -3.710  0.00  0.00    -0.126 OA
ENDBRANCH  27  29
ENDBRANCH  20  23
ENDBRANCH   1  19
BRANCH   1  32
ATOM     32  C   UNL     1      -1.763  -1.991   0.126  0.00  0.00    +0.042 C 
BRANCH  32  33
ATOM     33  C   UNL     1      -1.669  -0.464   0.119  0.00  0.00    +0.071 C 
BRANCH  33  35
ATOM     34  C   UNL     1      -0.002   1.850   0.316  0.00  0.00    +0.084 C 
ATOM     35  S   UNL     1       0.059   0.037   0.348  0.00  0.00    -0.164 S 
ENDBRANCH  33  35
ENDBRANCH  32  33
ENDBRANCH   1  32
TORSDOF 8
