REMARK  Name = ZINC43548098
REMARK  12 active torsions:
REMARK  status: ('A' for Active; 'I' for Inactive)
REMARK    1  A    between atoms: C_1  and  C_2
REMARK    2  A    between atoms: C_2  and  O_35
REMARK    3  A    between atoms: C_5  and  C_24
REMARK    4  A    between atoms: C_9  and  C_22
REMARK    5  A    between atoms: C_9  and  C_23
REMARK    6  A    between atoms: C_11  and  N_13
REMARK    7  A    between atoms: N_13  and  C_14
REMARK    8  A    between atoms: C_14  and  C_15
REMARK    9  A    between atoms: C_24  and  C_25
REMARK   10  A    between atoms: C_25  and  C_26
REMARK   11  A    between atoms: N_28  and  C_29
REMARK   12  A    between atoms: C_29  and  C_30
REMARK                            x       y       z     vdW  Elec       q    Type
REMARK                         _______ _______ _______ _____ _____    ______ ____
ROOT
ATOM      1  C   UNL     1      -0.084   1.533  -0.023  0.00  0.00    +0.041 C 
ATOM      2  C   UNL     1      -0.047   0.003  -0.025  0.00  0.00    +0.064 C 
ATOM      3  C   UNL     1      -1.476  -0.531  -0.060  0.00  0.00    +0.035 C 
ATOM      4  C   UNL     1      -1.507  -2.064   0.054  0.00  0.00    +0.008 C 
ATOM      5  C   UNL     1      -0.811  -2.433   1.351  0.00  0.00    -0.038 C 
ATOM      6  C   UNL     1       0.673  -1.999   1.209  0.00  0.00    +0.002 C 
ATOM      7  C   UNL     1       0.704  -0.483   1.226  0.00  0.00    +0.039 C 
ATOM      8  C   UNL     1       1.359  -2.708   2.373  0.00  0.00    -0.033 C 
ATOM      9  C   UNL     1       0.529  -3.993   2.615  0.00  0.00    -0.009 C 
ATOM     10  C   UNL     1      -0.669  -3.934   1.628  0.00  0.00    -0.064 C 
ATOM     11  C   UNL     1       1.339  -1.821   3.619  0.00  0.00    +0.011 C 
ATOM     12  C   UNL     1       2.798  -3.068   2.000  0.00  0.00    +0.011 C 
ENDROOT
BRANCH  10  13
ATOM     13  N   UNL     1      -0.361  -4.664   0.391  0.00  0.00    +0.384 N 
ATOM     14  H   UNL     1      -1.063  -4.459  -0.304  0.00  0.00    -0.085 HD
ATOM     15  H   UNL     1       0.545  -4.379   0.049  0.00  0.00    -0.085 HD
BRANCH  13  16
ATOM     16  C   UNL     1      -0.349  -6.107   0.665  0.00  0.00    -0.046 C 
BRANCH  16  17
ATOM     17  C   UNL     1      -0.033  -6.856  -0.604  0.00  0.00    -0.064 A 
ATOM     18  C   UNL     1      -1.056  -7.253  -1.445  0.00  0.00    +0.004 A 
ATOM     19  C   UNL     1      -0.767  -7.939  -2.609  0.00  0.00    +0.038 A 
ATOM     20  C   UNL     1       0.547  -8.230  -2.933  0.00  0.00    +0.123 A 
ATOM     21  C   UNL     1       1.571  -7.833  -2.090  0.00  0.00    +0.038 A 
ATOM     22  C   UNL     1       1.280  -7.142  -0.929  0.00  0.00    +0.004 A 
ATOM     23  F   UNL     1       0.831  -8.902  -4.070  0.00  0.00    -0.205 F 
ENDBRANCH  16  17
ENDBRANCH  13  16
ENDBRANCH  10  13
BRANCH   2  24
ATOM     24  O   UNL     1       0.647  -0.446  -1.190  0.00  0.00    -0.389 OA
ATOM     25  H   UNL     1       0.241  -0.166  -2.022  0.00  0.00    +0.210 HD
ENDBRANCH   2  24
BRANCH   5  26
ATOM     26  C   UNL     1      -1.482  -1.733   2.534  0.00  0.00    +0.015 C 
BRANCH  26  27
ATOM     27  C   UNL     1      -2.982  -2.037   2.522  0.00  0.00    +0.096 C 
BRANCH  27  28
ATOM     28  C   UNL     1      -3.643  -1.348   3.688  0.00  0.00    +0.213 C 
ATOM     29  O   UNL     1      -2.981  -0.679   4.452  0.00  0.00    -0.276 OA
ATOM     30  N   UNL     1      -4.971  -1.475   3.881  0.00  0.00    -0.308 N 
ATOM     31  H   UNL     1      -5.501  -2.010   3.269  0.00  0.00    +0.149 HD
BRANCH  30  32
ATOM     32  C   UNL     1      -5.614  -0.804   5.013  0.00  0.00    +0.178 C 
BRANCH  32  33
ATOM     33  C   UNL     1      -7.091  -1.105   5.002  0.00  0.00    +0.122 A 
ATOM     34  C   UNL     1      -7.688  -2.139   5.621  0.00  0.00    +0.046 A 
ATOM     35  C   UNL     1      -9.072  -2.036   5.348  0.00  0.00    +0.041 A 
ATOM     36  C   UNL     1      -9.237  -0.944   4.579  0.00  0.00    +0.195 A 
ATOM     37  O   UNL     1      -8.034  -0.381   4.378  0.00  0.00    -0.466 OA
ENDBRANCH  32  33
ENDBRANCH  30  32
ENDBRANCH  27  28
ENDBRANCH  26  27
ENDBRANCH   5  26
TORSDOF 9
