REMARK  Name = ZINC23935364
REMARK  15 active torsions:
REMARK  status: ('A' for Active; 'I' for Inactive)
REMARK    1  A    between atoms: C_1  and  C_2
REMARK    2  A    between atoms: C_2  and  C_3
REMARK    3  A    between atoms: C_8  and  N_9
REMARK    4  A    between atoms: C_10  and  C_12
REMARK    5  A    between atoms: C_12  and  N_13
REMARK    6  A    between atoms: N_13  and  C_14
REMARK    7  A    between atoms: C_15  and  C_17
REMARK    8  A    between atoms: C_17  and  C_19
REMARK    9  A    between atoms: C_17  and  S_20
REMARK   10  A    between atoms: S_20  and  C_21
REMARK   11  A    between atoms: C_24  and  C_26
REMARK   12  A    between atoms: C_26  and  O_27
REMARK   13  A    between atoms: O_27  and  C_28
REMARK   14  A    between atoms: C_30  and  C_35
REMARK   15  A    between atoms: C_33  and  C_34
REMARK                            x       y       z     vdW  Elec       q    Type
REMARK                         _______ _______ _______ _____ _____    ______ ____
ROOT
ATOM      1  C   UNL     1       1.306  -0.756  -0.006  0.00  0.00    +0.139 C 
ATOM      2  C   UNL     1       1.854  -0.789  -1.435  0.00  0.00    +0.029 C 
ENDROOT
BRANCH   1   5
ATOM      3  N   UNL     1      -0.025   1.329   0.009  0.00  0.00    -0.295 N 
ATOM      4  C   UNL     1       1.234   2.077  -0.010  0.00  0.00    +0.132 C 
ATOM      5  C   UNL     1      -0.008  -0.019   0.011  0.00  0.00    +0.229 C 
ATOM      6  O   UNL     1      -1.050  -0.638   0.026  0.00  0.00    -0.274 OA
BRANCH   3   7
ATOM      7  C   UNL     1      -1.303   2.046   0.019  0.00  0.00    +0.203 C 
BRANCH   7   9
ATOM      8  N   UNL     1      -2.882   2.942   1.699  0.00  0.00    -0.284 N 
ATOM      9  C   UNL     1      -1.728   2.293   1.443  0.00  0.00    +0.235 C 
ATOM     10  O   UNL     1      -1.032   1.909   2.360  0.00  0.00    -0.274 OA
ATOM     11  H   UNL     1      -3.467   3.370   0.872  0.00  0.00    +0.155 HD
BRANCH   8  17
ATOM     12  C   UNL     1      -4.185   4.113   3.361  0.00  0.00    -0.026 A 
ATOM     13  C   UNL     1      -4.630   4.237   4.663  0.00  0.00    +0.005 A 
ATOM     14  C   UNL     1      -4.231   3.325   5.622  0.00  0.00    +0.000 A 
ATOM     15  C   UNL     1      -3.385   2.285   5.282  0.00  0.00    +0.002 A 
ATOM     16  C   UNL     1      -2.940   2.152   3.981  0.00  0.00    +0.023 A 
ATOM     17  C   UNL     1      -3.335   3.071   3.016  0.00  0.00    +0.037 A 
BRANCH  12  19
ATOM     18  C   UNL     1      -5.837   4.559   1.567  0.00  0.00    +0.009 C 
ATOM     19  C   UNL     1      -4.621   5.107   2.316  0.00  0.00    +0.033 C 
ENDBRANCH  12  19
ENDBRANCH   8  17
ENDBRANCH   7   9
ENDBRANCH   3   7
ENDBRANCH   1   5
BRANCH   1  20
ATOM     20  S   UNL     1       1.056  -2.449   0.583  0.00  0.00    -0.053 S 
BRANCH  20  21
ATOM     21  C   UNL     1       2.725  -3.015   0.605  0.00  0.00    +0.278 A 
ATOM     22  N   UNL     1       3.785  -2.324   0.262  0.00  0.00    -0.101 NA
ATOM     23  N   UNL     1       4.834  -3.054   0.407  0.00  0.00    -0.108 NA
ATOM     24  C   UNL     1       4.489  -4.233   0.835  0.00  0.00    +0.255 A 
ATOM     25  O   UNL     1       3.148  -4.239   0.971  0.00  0.00    -0.412 OA
BRANCH  24  26
ATOM     26  C   UNL     1       5.418  -5.383   1.125  0.00  0.00    +0.326 C 
BRANCH  26  27
ATOM     27  O   UNL     1       5.840  -5.322   2.489  0.00  0.00    -0.482 OA
BRANCH  27  28
ATOM     28  C   UNL     1       6.688  -6.294   2.916  0.00  0.00    +0.124 A 
ATOM     29  C   UNL     1       7.106  -7.286   2.041  0.00  0.00    +0.049 A 
ATOM     30  C   UNL     1       7.968  -8.273   2.477  0.00  0.00    -0.047 A 
ATOM     31  C   UNL     1       8.415  -8.273   3.786  0.00  0.00    +0.004 A 
ATOM     32  C   UNL     1       7.999  -7.286   4.661  0.00  0.00    +0.007 A 
ATOM     33  C   UNL     1       7.141  -6.293   4.227  0.00  0.00    -0.009 A 
ATOM     34  C   UNL     1       6.694  -5.214   5.179  0.00  0.00    +0.047 C 
ATOM     35  C   UNL     1       8.423  -9.350   1.527  0.00  0.00    +0.044 C 
ENDBRANCH  27  28
ENDBRANCH  26  27
ENDBRANCH  24  26
ENDBRANCH  20  21
ENDBRANCH   1  20
TORSDOF 10
