REMARK  Name = ZINC44811985
REMARK  10 active torsions:
REMARK  status: ('A' for Active; 'I' for Inactive)
REMARK    1  A    between atoms: C_1  and  C_2
REMARK    2  A    between atoms: C_6  and  C_8
REMARK    3  A    between atoms: C_10  and  C_13
REMARK    4  A    between atoms: C_13  and  N_14
REMARK    5  A    between atoms: C_18  and  C_21
REMARK    6  A    between atoms: N_23  and  C_24
REMARK    7  A    between atoms: C_24  and  C_25
REMARK    8  A    between atoms: C_25  and  S_26
REMARK    9  A    between atoms: S_26  and  C_27
REMARK   10  A    between atoms: C_27  and  C_28
REMARK                            x       y       z     vdW  Elec       q    Type
REMARK                         _______ _______ _______ _____ _____    ______ ____
ROOT
ATOM      1  N   UNL     1       1.501  -6.360   4.554  0.00  0.00    +0.386 N 
ATOM      2  C   UNL     1       2.156  -6.426   3.242  0.00  0.00    -0.078 C 
ATOM      3  C   UNL     1       3.629  -6.799   3.422  0.00  0.00    -0.018 C 
ATOM      4  C   UNL     1       3.724  -8.164   4.110  0.00  0.00    +0.009 C 
ATOM      5  C   UNL     1       2.973  -8.105   5.444  0.00  0.00    +0.058 C 
ATOM      6  C   UNL     1       1.524  -7.683   5.189  0.00  0.00    -0.065 C 
ATOM      7  H   UNL     1       1.988  -5.699   5.139  0.00  0.00    -0.081 HD
ENDROOT
BRANCH   5   8
ATOM      8  C   UNL     1       2.995  -9.465   6.094  0.00  0.00    +0.214 C 
ATOM      9  O   UNL     1       1.954 -10.039   6.334  0.00  0.00    -0.276 OA
ATOM     10  N   UNL     1       4.172 -10.042   6.409  0.00  0.00    -0.314 N 
ATOM     11  H   UNL     1       5.004  -9.582   6.216  0.00  0.00    +0.149 HD
BRANCH  10  12
ATOM     12  C   UNL     1       4.193 -11.363   7.040  0.00  0.00    +0.115 C 
BRANCH  12  13
ATOM     13  C   UNL     1       5.643 -11.786   7.290  0.00  0.00    +0.088 C 
BRANCH  13  14
ATOM     14  S   UNL     1       5.670 -13.422   8.073  0.00  0.00    -0.155 S 
BRANCH  14  15
ATOM     15  C   UNL     1       7.435 -13.772   8.298  0.00  0.00    +0.104 C 
BRANCH  15  16
ATOM     16  C   UNL     1       7.601 -15.121   8.948  0.00  0.00    -0.036 A 
ATOM     17  C   UNL     1       7.636 -15.225  10.326  0.00  0.00    +0.006 A 
ATOM     18  C   UNL     1       7.788 -16.461  10.924  0.00  0.00    +0.022 A 
ATOM     19  C   UNL     1       7.906 -17.597  10.143  0.00  0.00    +0.059 A 
ATOM     20  C   UNL     1       7.870 -17.494   8.762  0.00  0.00    +0.060 A 
ATOM     21  C   UNL     1       7.712 -16.255   8.166  0.00  0.00    +0.026 A 
ATOM     22 CL   UNL     1       8.018 -18.918   7.781  0.00  0.00    -0.082 Cl
ATOM     23 CL   UNL     1       8.098 -19.151  10.893  0.00  0.00    -0.082 Cl
ENDBRANCH  15  16
ENDBRANCH  14  15
ENDBRANCH  13  14
ENDBRANCH  12  13
ENDBRANCH  10  12
ENDBRANCH   5   8
BRANCH   1  24
ATOM     24  C   UNL     1       0.108  -5.926   4.382  0.00  0.00    +0.022 C 
BRANCH  24  27
ATOM     25  C   UNL     1       0.051  -2.846   2.464  0.00  0.00    +0.202 A 
ATOM     26  N   UNL     1       0.075  -4.185   2.585  0.00  0.00    -0.193 NA
ATOM     27  C   UNL     1       0.083  -4.518   3.844  0.00  0.00    +0.211 A 
ATOM     28  O   UNL     1       0.066  -3.400   4.580  0.00  0.00    -0.340 OA
ATOM     29  N   UNL     1       0.051  -2.316   3.662  0.00  0.00    -0.056 NA
BRANCH  25  35
ATOM     30  C   UNL     1      -0.018   1.503   0.010  0.00  0.00    +0.044 C 
ATOM     31  C   UNL     1       0.002  -0.004   0.002  0.00  0.00    -0.050 A 
ATOM     32  C   UNL     1       0.006  -0.688  -1.201  0.00  0.00    +0.003 A 
ATOM     33  C   UNL     1       0.024  -2.071  -1.216  0.00  0.00    +0.001 A 
ATOM     34  C   UNL     1       0.039  -2.776  -0.029  0.00  0.00    +0.012 A 
ATOM     35  C   UNL     1       0.036  -2.092   1.185  0.00  0.00    +0.023 A 
ATOM     36  C   UNL     1       0.023  -0.699   1.194  0.00  0.00    +0.015 A 
ENDBRANCH  25  35
ENDBRANCH  24  27
ENDBRANCH   1  24
TORSDOF 9
