REMARK  Name = ZINC16238228
REMARK  6 active torsions:
REMARK  status: ('A' for Active; 'I' for Inactive)
REMARK    1  A    between atoms: C_6  and  O_28
REMARK    2  A    between atoms: C_7  and  C_11
REMARK    3  A    between atoms: N_13  and  N_14
REMARK    4  A    between atoms: N_14  and  C_15
REMARK    5  A    between atoms: C_15  and  N_17
REMARK    6  A    between atoms: N_17  and  C_18
REMARK                            x       y       z     vdW  Elec       q    Type
REMARK                         _______ _______ _______ _____ _____    ______ ____
ROOT
ATOM      1  C   UNL     1      -1.259   7.397   0.056  0.00  0.00    +0.264 C 
ATOM      2  O   UNL     1      -2.321   7.986  -0.009  0.00  0.00    -0.269 OA
ATOM      3  N   UNL     1      -0.103   8.090   0.049  0.00  0.00    -0.231 N 
ATOM      4  H   UNL     1       0.745   7.620   0.101  0.00  0.00    +0.173 HD
ENDROOT
BRANCH   1  11
ATOM      5  C   UNL     1       1.187   1.791   0.455  0.00  0.00    +0.001 A 
ATOM      6  C   UNL     1      -0.017   1.088   0.461  0.00  0.00    +0.001 A 
ATOM      7  C   UNL     1      -1.210   1.739   0.383  0.00  0.00    +0.008 A 
ATOM      8  C   UNL     1      -1.234   3.143   0.305  0.00  0.00    -0.014 A 
ATOM      9  C   UNL     1      -2.450   3.842   0.230  0.00  0.00    +0.054 A 
ATOM     10  C   UNL     1      -2.449   5.203   0.150  0.00  0.00    +0.130 A 
ATOM     11  C   UNL     1      -1.236   5.924   0.143  0.00  0.00    +0.080 A 
ATOM     12  C   UNL     1      -0.024   5.258   0.217  0.00  0.00    +0.025 A 
ATOM     13  C   UNL     1      -0.008   3.858   0.299  0.00  0.00    -0.017 A 
ATOM     14  C   UNL     1       1.204   3.149   0.375  0.00  0.00    +0.008 A 
BRANCH  10  15
ATOM     15  O   UNL     1      -3.628   5.872   0.077  0.00  0.00    -0.506 OA
ATOM     16  H   UNL     1      -3.995   6.117   0.938  0.00  0.00    +0.292 HD
ENDBRANCH  10  15
ENDBRANCH   1  11
BRANCH   3  17
ATOM     17  N   UNL     1      -0.124   9.488  -0.034  0.00  0.00    -0.246 N 
ATOM     18  H   UNL     1      -0.971   9.958  -0.086  0.00  0.00    +0.172 HD
BRANCH  17  19
ATOM     19  C   UNL     1       1.032  10.181  -0.042  0.00  0.00    +0.147 C 
ATOM     20  S   UNL     1       1.005  11.890  -0.142  0.00  0.00    -0.017 S 
BRANCH  19  21
ATOM     21  N   UNL     1       2.209   9.528   0.031  0.00  0.00    -0.322 N 
ATOM     22  H   UNL     1       2.224   8.560   0.088  0.00  0.00    +0.148 HD
BRANCH  21  23
ATOM     23  C   UNL     1       3.466  10.281   0.023  0.00  0.00    +0.075 C 
ATOM     24  C   UNL     1       4.607   9.431   0.625  0.00  0.00    +0.026 C 
ATOM     25  C   UNL     1       5.642   9.284  -0.532  0.00  0.00    -0.009 C 
ATOM     26  C   UNL     1       4.947   8.339  -1.560  0.00  0.00    +0.004 C 
ATOM     27  C   UNL     1       3.805   9.190  -2.162  0.00  0.00    +0.005 C 
ATOM     28  C   UNL     1       3.918  10.568  -1.442  0.00  0.00    +0.010 C 
ATOM     29  C   UNL     1       5.473  10.669  -1.250  0.00  0.00    +0.009 C 
ENDBRANCH  21  23
ENDBRANCH  19  21
ENDBRANCH  17  19
ENDBRANCH   3  17
TORSDOF 6
