REMARK  Name = ZINC39533351
REMARK  14 active torsions:
REMARK  status: ('A' for Active; 'I' for Inactive)
REMARK    1  A    between atoms: C_1  and  C_2
REMARK    2  A    between atoms: C_2  and  C_3
REMARK    3  A    between atoms: C_2  and  C_4
REMARK    4  A    between atoms: C_4  and  C_5
REMARK    5  A    between atoms: C_8  and  C_11
REMARK    6  A    between atoms: C_11  and  C_13
REMARK    7  A    between atoms: C_11  and  N_21
REMARK    8  A    between atoms: C_13  and  N_14
REMARK    9  A    between atoms: N_14  and  S_15
REMARK   10  A    between atoms: S_15  and  C_18
REMARK   11  A    between atoms: C_18  and  C_19
REMARK   12  A    between atoms: C_18  and  C_20
REMARK   13  A    between atoms: C_25  and  C_28
REMARK   14  A    between atoms: C_33  and  O_34
REMARK                            x       y       z     vdW  Elec       q    Type
REMARK                         _______ _______ _______ _____ _____    ______ ____
ROOT
ATOM      1  C   UNL     1      -1.367  -6.290  -0.493  0.00  0.00    +0.102 C 
ENDROOT
BRANCH   1   2
ATOM      2  N   UNL     1      -0.348  -6.849   0.405  0.00  0.00    -0.297 NA
ATOM      3  C   UNL     1      -0.679  -6.577   1.811  0.00  0.00    +0.066 C 
ATOM      4  C   UNL     1       0.372  -7.226   2.714  0.00  0.00    -0.066 C 
ATOM      5  N   UNL     1       1.698  -6.682   2.390  0.00  0.00    +0.385 N 
ATOM      6  C   UNL     1       2.025  -6.983   0.990  0.00  0.00    -0.023 C 
ATOM      7  C   UNL     1       0.987  -6.332   0.073  0.00  0.00    +0.074 C 
ATOM      8  H   UNL     1       1.694  -5.683   2.527  0.00  0.00    -0.085 HD
ATOM      9  H   UNL     1       2.389  -7.101   2.994  0.00  0.00    -0.085 HD
BRANCH   6  10
ATOM     10  C   UNL     1       3.393  -6.440   0.666  0.00  0.00    -0.019 A 
ATOM     11  C   UNL     1       3.950  -5.453   1.456  0.00  0.00    +0.005 A 
ATOM     12  C   UNL     1       5.205  -4.955   1.159  0.00  0.00    +0.000 A 
ATOM     13  C   UNL     1       5.905  -5.442   0.070  0.00  0.00    +0.004 A 
ATOM     14  C   UNL     1       5.352  -6.429  -0.722  0.00  0.00    +0.045 A 
ATOM     15  C   UNL     1       4.096  -6.935  -0.423  0.00  0.00    +0.118 A 
BRANCH  15  16
ATOM     16  O   UNL     1       3.552  -7.910  -1.198  0.00  0.00    -0.507 OA
ATOM     17  H   UNL     1       3.028  -7.577  -1.939  0.00  0.00    +0.292 HD
ENDBRANCH  15  16
ENDBRANCH   6  10
ENDBRANCH   1   2
BRANCH   1  21
ATOM     18  C   UNL     1      -1.673  -2.078   0.151  0.00  0.00    -0.047 A 
ATOM     19  C   UNL     1      -2.143  -2.959   1.107  0.00  0.00    +0.004 A 
ATOM     20  C   UNL     1      -2.044  -4.322   0.898  0.00  0.00    +0.005 A 
ATOM     21  C   UNL     1      -1.476  -4.804  -0.267  0.00  0.00    -0.029 A 
ATOM     22  C   UNL     1      -1.007  -3.922  -1.222  0.00  0.00    +0.005 A 
ATOM     23  C   UNL     1      -1.109  -2.560  -1.016  0.00  0.00    +0.004 A 
BRANCH  18  24
ATOM     24  C   UNL     1      -1.780  -0.592   0.379  0.00  0.00    +0.038 C 
BRANCH  24  26
ATOM     25  C   UNL     1      -3.280   1.395   0.169  0.00  0.00    +0.007 C 
ATOM     26  C   UNL     1      -3.115  -0.087  -0.172  0.00  0.00    -0.013 C 
ATOM     27  C   UNL     1      -3.141  -0.267  -1.692  0.00  0.00    +0.007 C 
ENDBRANCH  24  26
ENDBRANCH  18  24
ENDBRANCH   1  21
BRANCH   1  28
ATOM     28  C   UNL     1      -2.717  -6.949  -0.207  0.00  0.00    +0.129 C 
BRANCH  28  29
ATOM     29  N   UNL     1      -2.582  -8.405  -0.311  0.00  0.00    -0.192 NA
ATOM     30  H   UNL     1      -1.801  -8.789  -0.739  0.00  0.00    +0.148 HD
BRANCH  29  31
ATOM     31  S   UNL     1      -3.762  -9.392   0.301  0.00  0.00    +0.032 S 
ATOM     32  O   UNL     1      -3.297 -10.711   0.050  0.00  0.00    -0.158 OA
ATOM     33  O   UNL     1      -3.963  -8.935   1.631  0.00  0.00    -0.158 OA
BRANCH  31  34
ATOM     34  C   UNL     1      -5.230  -9.045  -0.707  0.00  0.00    +0.142 C 
ATOM     35  C   UNL     1      -4.929  -9.364  -2.173  0.00  0.00    +0.033 C 
ATOM     36  C   UNL     1      -6.396  -9.911  -0.226  0.00  0.00    +0.033 C 
ENDBRANCH  31  34
ENDBRANCH  29  31
ENDBRANCH  28  29
ENDBRANCH   1  28
TORSDOF 10
