REMARK  Name = ZINC36045157
REMARK  11 active torsions:
REMARK  status: ('A' for Active; 'I' for Inactive)
REMARK    1  A    between atoms: C_1  and  C_2
REMARK    2  A    between atoms: C_2  and  N_3
REMARK    3  A    between atoms: C_11  and  C_30
REMARK    4  A    between atoms: C_13  and  S_15
REMARK    5  A    between atoms: S_15  and  C_16
REMARK    6  A    between atoms: C_16  and  C_17
REMARK    7  A    between atoms: C_20  and  C_23
REMARK    8  A    between atoms: N_25  and  C_26
REMARK    9  A    between atoms: C_26  and  C_27
REMARK   10  A    between atoms: C_27  and  C_28
REMARK   11  A    between atoms: C_27  and  C_29
REMARK                            x       y       z     vdW  Elec       q    Type
REMARK                         _______ _______ _______ _____ _____    ______ ____
ROOT
ATOM      1  N   UNL     1      -1.339  -0.643   0.119  0.00  0.00    +0.382 N 
ATOM      2  C   UNL     1      -1.832  -0.317  -1.225  0.00  0.00    -0.060 C 
ATOM      3  C   UNL     1      -3.337  -0.596  -1.297  0.00  0.00    +0.088 C 
ATOM      4  N   UNL     1      -3.574  -1.988  -0.884  0.00  0.00    -0.319 N 
ATOM      5  C   UNL     1      -2.974  -2.449   0.378  0.00  0.00    +0.088 C 
ATOM      6  C   UNL     1      -1.486  -2.082   0.370  0.00  0.00    -0.060 C 
ATOM      7  C   UNL     1      -4.340  -2.841  -1.662  0.00  0.00    +0.126 A 
ATOM      8  C   UNL     1      -5.076  -2.347  -2.741  0.00  0.00    +0.076 A 
ATOM      9  C   UNL     1      -5.825  -3.234  -3.489  0.00  0.00    +0.150 A 
ATOM     10  N   UNL     1      -5.824  -4.519  -3.164  0.00  0.00    -0.218 NA
ATOM     11  C   UNL     1      -5.116  -4.960  -2.134  0.00  0.00    +0.191 A 
ATOM     12  N   UNL     1      -4.381  -4.143  -1.395  0.00  0.00    -0.207 NA
ATOM     13  H   UNL     1      -1.870  -0.127   0.804  0.00  0.00    -0.082 HD
ENDROOT
BRANCH   9  14
ATOM     14  C   UNL     1      -6.636  -2.746  -4.662  0.00  0.00    +0.434 C 
ATOM     15  F   UNL     1      -5.854  -2.796  -5.821  0.00  0.00    -0.164 F 
ATOM     16  F   UNL     1      -7.761  -3.562  -4.823  0.00  0.00    -0.164 F 
ATOM     17  F   UNL     1      -7.044  -1.428  -4.431  0.00  0.00    -0.164 F 
ENDBRANCH   9  14
BRANCH   1  19
ATOM     18  C   UNL     1       0.221   1.244   0.083  0.00  0.00    -0.017 C 
ATOM     19  C   UNL     1       0.079  -0.273   0.221  0.00  0.00    -0.082 C 
ENDBRANCH   1  19
BRANCH  11  20
ATOM     20  S   UNL     1      -5.149  -6.678  -1.742  0.00  0.00    -0.081 S 
BRANCH  20  21
ATOM     21  C   UNL     1      -6.253  -7.392  -2.992  0.00  0.00    +0.112 C 
BRANCH  21  22
ATOM     22  C   UNL     1      -6.370  -8.878  -2.768  0.00  0.00    -0.037 A 
ATOM     23  C   UNL     1      -5.481  -9.740  -3.386  0.00  0.00    +0.005 A 
ATOM     24  C   UNL     1      -5.583 -11.101  -3.186  0.00  0.00    +0.013 A 
ATOM     25  C   UNL     1      -6.586 -11.608  -2.358  0.00  0.00    +0.037 A 
ATOM     26  C   UNL     1      -7.479 -10.733  -1.738  0.00  0.00    +0.013 A 
ATOM     27  C   UNL     1      -7.363  -9.374  -1.942  0.00  0.00    +0.005 A 
BRANCH  25  28
ATOM     28  C   UNL     1      -6.701 -13.066  -2.139  0.00  0.00    +0.244 C 
ATOM     29  O   UNL     1      -5.922 -13.825  -2.680  0.00  0.00    -0.270 OA
ATOM     30  N   UNL     1      -7.670 -13.552  -1.338  0.00  0.00    -0.311 N 
ATOM     31  H   UNL     1      -8.292 -12.946  -0.906  0.00  0.00    +0.149 HD
BRANCH  30  32
ATOM     32  C   UNL     1      -7.785 -14.996  -1.121  0.00  0.00    +0.107 C 
BRANCH  32  33
ATOM     33  C   UNL     1      -8.957 -15.279  -0.180  0.00  0.00    -0.000 C 
ATOM     34  C   UNL     1      -9.155 -16.791  -0.052  0.00  0.00    +0.009 C 
ATOM     35  C   UNL     1      -8.660 -14.685   1.198  0.00  0.00    +0.009 C 
ENDBRANCH  32  33
ENDBRANCH  30  32
ENDBRANCH  25  28
ENDBRANCH  21  22
ENDBRANCH  20  21
ENDBRANCH  11  20
TORSDOF 8
