REMARK  Name = ZINC00042581
REMARK  10 active torsions:
REMARK  status: ('A' for Active; 'I' for Inactive)
REMARK    1  A    between atoms: C_1  and  C_2
REMARK    2  A    between atoms: C_2  and  C_3
REMARK    3  A    between atoms: C_4  and  C_19
REMARK    4  A    between atoms: C_5  and  C_17
REMARK    5  A    between atoms: C_6  and  C_11
REMARK    6  A    between atoms: C_7  and  C_9
REMARK    7  A    between atoms: C_9  and  C_10
REMARK    8  A    between atoms: N_12  and  N_13
REMARK    9  A    between atoms: C_17  and  C_18
REMARK   10  A    between atoms: N_20  and  N_21
REMARK                            x       y       z     vdW  Elec       q    Type
REMARK                         _______ _______ _______ _____ _____    ______ ____
ROOT
ATOM      1  C   UNL     1      -1.441  -0.460  -0.081  0.00  0.00    -0.038 A 
ATOM      2  C   UNL     1      -2.242  -0.581  -1.220  0.00  0.00    +0.001 A 
ATOM      3  C   UNL     1      -3.519  -1.130  -1.115  0.00  0.00    -0.030 A 
ATOM      4  C   UNL     1      -3.988  -1.554   0.128  0.00  0.00    +0.001 A 
ATOM      5  C   UNL     1      -3.175  -1.427   1.258  0.00  0.00    -0.038 A 
ATOM      6  C   UNL     1      -1.910  -0.887   1.145  0.00  0.00    +0.008 A 
ENDROOT
BRANCH   1   8
ATOM      7  C   UNL     1      -0.165   1.656  -0.289  0.00  0.00    +0.009 C 
ATOM      8  C   UNL     1      -0.060   0.133  -0.193  0.00  0.00    +0.032 C 
ENDBRANCH   1   8
BRANCH   5   9
ATOM      9  C   UNL     1      -3.680  -1.885   2.602  0.00  0.00    +0.032 C 
ATOM     10  C   UNL     1      -3.584  -3.409   2.691  0.00  0.00    +0.009 C 
ENDBRANCH   5   9
BRANCH   4  11
ATOM     11  C   UNL     1      -5.338  -2.136   0.249  0.00  0.00    +0.139 C 
ATOM     12  N   UNL     1      -5.814  -2.432   1.419  0.00  0.00    -0.186 NA
BRANCH  12  13
ATOM     13  N   UNL     1      -7.096  -2.985   1.534  0.00  0.00    -0.191 N 
ATOM     14  C   UNL     1      -7.590  -3.292   2.750  0.00  0.00    +0.317 C 
ATOM     15  O   UNL     1      -8.703  -3.772   2.850  0.00  0.00    -0.251 OA
ATOM     16  N   UNL     1      -6.851  -3.068   3.854  0.00  0.00    -0.312 N 
ATOM     17  H   UNL     1      -7.628  -3.146   0.739  0.00  0.00    +0.179 HD
ATOM     18  H   UNL     1      -5.964  -2.685   3.775  0.00  0.00    +0.147 HD
ATOM     19  H   UNL     1      -7.207  -3.289   4.729  0.00  0.00    +0.147 HD
ENDBRANCH  12  13
ENDBRANCH   4  11
BRANCH   3  20
ATOM     20  C   UNL     1      -4.389  -1.263  -2.338  0.00  0.00    +0.033 C 
ATOM     21  C   UNL     1      -4.139  -2.622  -2.996  0.00  0.00    +0.009 C 
ENDBRANCH   3  20
BRANCH   2  22
ATOM     22  C   UNL     1      -1.737  -0.128  -2.530  0.00  0.00    +0.139 C 
ATOM     23  N   UNL     1      -0.514   0.289  -2.646  0.00  0.00    -0.186 NA
BRANCH  23  24
ATOM     24  N   UNL     1      -0.035   0.719  -3.890  0.00  0.00    -0.191 N 
ATOM     25  C   UNL     1       1.235   1.152  -4.010  0.00  0.00    +0.317 C 
ATOM     26  O   UNL     1       1.651   1.525  -5.090  0.00  0.00    -0.251 OA
ATOM     27  N   UNL     1       2.045   1.172  -2.933  0.00  0.00    -0.312 N 
ATOM     28  H   UNL     1      -0.618   0.704  -4.665  0.00  0.00    +0.179 HD
ATOM     29  H   UNL     1       1.713   0.874  -2.071  0.00  0.00    +0.147 HD
ATOM     30  H   UNL     1       2.959   1.484  -3.019  0.00  0.00    +0.147 HD
ENDBRANCH  23  24
ENDBRANCH   2  22
TORSDOF 7
