REMARK  Name = ZINC09076900
REMARK  12 active torsions:
REMARK  status: ('A' for Active; 'I' for Inactive)
REMARK    1  A    between atoms: C_1  and  C_2
REMARK    2  A    between atoms: C_2  and  N_3
REMARK    3  A    between atoms: N_3  and  C_4
REMARK    4  A    between atoms: N_3  and  S_10
REMARK    5  A    between atoms: S_10  and  C_13
REMARK    6  A    between atoms: C_16  and  C_19
REMARK    7  A    between atoms: C_19  and  N_21
REMARK    8  A    between atoms: N_23  and  C_32
REMARK    9  A    between atoms: C_27  and  C_31
REMARK   10  A    between atoms: C_32  and  C_33
REMARK   11  A    between atoms: C_33  and  O_35
REMARK   12  A    between atoms: O_35  and  C_36
REMARK                            x       y       z     vdW  Elec       q    Type
REMARK                         _______ _______ _______ _____ _____    ______ ____
ROOT
ATOM      1  C   UNL     1      -6.865   9.526   2.470  0.00  0.00    +0.109 A 
ATOM      2  C   UNL     1      -5.649  10.119   2.180  0.00  0.00    +0.029 A 
ATOM      3  C   UNL     1      -4.627   9.372   1.633  0.00  0.00    +0.015 A 
ATOM      4  C   UNL     1      -4.821   8.015   1.372  0.00  0.00    +0.039 A 
ATOM      5  C   UNL     1      -6.051   7.424   1.662  0.00  0.00    +0.015 A 
ATOM      6  C   UNL     1      -7.064   8.181   2.213  0.00  0.00    +0.029 A 
ENDROOT
BRANCH   1   7
ATOM      7  S   UNL     1      -8.165  10.487   3.170  0.00  0.00    +0.075 S 
ATOM      8  O   UNL     1      -9.019   9.580   3.854  0.00  0.00    -0.150 OA
ATOM      9  O   UNL     1      -7.551  11.591   3.819  0.00  0.00    -0.150 OA
BRANCH   7  10
ATOM     10  N   UNL     1      -9.046  11.108   1.912  0.00  0.00    -0.203 N 
BRANCH  10  11
ATOM     11  C   UNL     1      -8.669  12.318   1.325  0.00  0.00    +0.051 A 
ATOM     12  C   UNL     1      -8.291  12.356  -0.011  0.00  0.00    +0.025 A 
ATOM     13  C   UNL     1      -7.923  13.555  -0.589  0.00  0.00    +0.002 A 
ATOM     14  C   UNL     1      -7.920  14.715   0.163  0.00  0.00    +0.000 A 
ATOM     15  C   UNL     1      -8.290  14.680   1.495  0.00  0.00    +0.002 A 
ATOM     16  C   UNL     1      -8.664  13.485   2.078  0.00  0.00    +0.025 A 
ENDBRANCH  10  11
BRANCH  10  18
ATOM     17  C   UNL     1     -11.479  10.938   2.088  0.00  0.00    +0.026 C 
ATOM     18  C   UNL     1     -10.221  10.388   1.415  0.00  0.00    +0.128 C 
ENDBRANCH  10  18
ENDBRANCH   7  10
ENDBRANCH   1   7
BRANCH   4  19
ATOM     19  C   UNL     1      -3.728   7.207   0.784  0.00  0.00    +0.269 C 
ATOM     20  O   UNL     1      -2.656   7.727   0.527  0.00  0.00    -0.268 OA
BRANCH  19  21
ATOM     21  N   UNL     1      -3.917   5.907   0.535  0.00  0.00    -0.152 NA
ATOM     22  C   UNL     1      -2.936   5.183   0.007  0.00  0.00    +0.167 A 
ATOM     23  N   UNL     1      -2.942   3.861  -0.313  0.00  0.00    -0.310 N 
ATOM     24  C   UNL     1      -1.815   3.274  -0.859  0.00  0.00    +0.058 A 
ATOM     25  C   UNL     1      -1.633   1.940  -1.254  0.00  0.00    +0.027 A 
ATOM     26  C   UNL     1      -0.434   1.520  -1.780  0.00  0.00    +0.005 A 
ATOM     27  C   UNL     1       0.625   2.398  -1.944  0.00  0.00    -0.049 A 
ATOM     28  C   UNL     1       0.471   3.721  -1.567  0.00  0.00    +0.020 A 
ATOM     29  C   UNL     1      -0.727   4.140  -1.037  0.00  0.00    +0.039 A 
ATOM     30  S   UNL     1      -1.340   5.695  -0.439  0.00  0.00    -0.052 S 
ATOM     31  C   UNL     1       1.929   1.919  -2.528  0.00  0.00    +0.044 C 
BRANCH  23  32
ATOM     32  C   UNL     1      -4.144   3.057  -0.078  0.00  0.00    +0.244 C 
BRANCH  32  33
ATOM     33  C   UNL     1      -4.761   3.448   1.240  0.00  0.00    +0.327 C 
ATOM     34  O   UNL     1      -4.162   4.179   1.994  0.00  0.00    -0.249 OA
BRANCH  33  35
ATOM     35  O   UNL     1      -5.975   2.986   1.576  0.00  0.00    -0.467 OA
ATOM     36  C   UNL     1      -6.508   3.405   2.861  0.00  0.00    +0.280 C 
ENDBRANCH  33  35
ENDBRANCH  32  33
ENDBRANCH  23  32
ENDBRANCH  19  21
ENDBRANCH   4  19
TORSDOF 9
