REMARK  Name = ZINC32947577
REMARK  5 active torsions:
REMARK  status: ('A' for Active; 'I' for Inactive)
REMARK    1  A    between atoms: C_1  and  C_2
REMARK    2  A    between atoms: C_6  and  N_8
REMARK    3  A    between atoms: C_11  and  N_26
REMARK    4  A    between atoms: C_12  and  C_14
REMARK    5  A    between atoms: C_14  and  C_16
REMARK                            x       y       z     vdW  Elec       q    Type
REMARK                         _______ _______ _______ _____ _____    ______ ____
ROOT
ATOM      1  N   UNL     1      -0.069   5.240   0.031  0.00  0.00    -0.294 N 
ATOM      2  C   UNL     1       1.111   5.945   0.128  0.00  0.00    +0.165 A 
ATOM      3  N   UNL     1       2.352   5.482   0.131  0.00  0.00    -0.210 NA
ATOM      4  C   UNL     1       3.385   6.285   0.231  0.00  0.00    +0.136 A 
ATOM      5  C   UNL     1       3.127   7.656   0.334  0.00  0.00    +0.102 A 
ATOM      6  S   UNL     1       1.341   7.660   0.270  0.00  0.00    -0.047 S 
ATOM      7  H   UNL     1      -1.025   5.778  -0.054  0.00  0.00    +0.154 HD
ENDROOT
BRANCH   1  13
ATOM      8  C   UNL     1      -2.176   0.974  -1.201  0.00  0.00    +0.044 C 
ATOM      9  C   UNL     1      -1.060   1.748  -0.548  0.00  0.00    -0.049 A 
ATOM     10  C   UNL     1      -0.018   1.076   0.063  0.00  0.00    +0.003 A 
ATOM     11  C   UNL     1       1.011   1.783   0.658  0.00  0.00    +0.002 A 
ATOM     12  C   UNL     1       0.997   3.164   0.649  0.00  0.00    +0.023 A 
ATOM     13  C   UNL     1      -0.052   3.842   0.042  0.00  0.00    +0.033 A 
ATOM     14  C   UNL     1      -1.083   3.129  -0.556  0.00  0.00    +0.026 A 
ENDBRANCH   1  13
BRANCH   4  15
ATOM     15  N   UNL     1       4.682   5.793   0.233  0.00  0.00    -0.342 N 
ATOM     16  H   UNL     1       5.533   6.486   0.318  0.00  0.00    +0.144 HD
ATOM     17  H   UNL     1       4.861   4.711   0.151  0.00  0.00    +0.144 HD
ENDBRANCH   4  15
BRANCH   5  18
ATOM     18  C   UNL     1       4.026   8.737   0.452  0.00  0.00    +0.205 C 
ATOM     19  O   UNL     1       5.229   8.530   0.475  0.00  0.00    -0.286 OA
BRANCH  18  20
ATOM     20  C   UNL     1       3.514  10.115   0.548  0.00  0.00    +0.048 A 
ATOM     21  C   UNL     1       2.208  10.502   0.531  0.00  0.00    +0.095 A 
ATOM     22  N   UNL     1       2.128  11.852   0.644  0.00  0.00    -0.360 N 
ATOM     23  H   UNL     1       1.145  12.345   0.655  0.00  0.00    +0.165 HD
ATOM     24  C   UNL     1       3.390  12.402   0.731  0.00  0.00    +0.047 A 
ATOM     25  C   UNL     1       4.314  11.346   0.675  0.00  0.00    +0.011 A 
ATOM     26  C   UNL     1       5.680  11.609   0.742  0.00  0.00    +0.011 A 
ATOM     27  C   UNL     1       6.119  12.910   0.863  0.00  0.00    +0.001 A 
ATOM     28  C   UNL     1       5.207  13.954   0.917  0.00  0.00    +0.002 A 
ATOM     29  C   UNL     1       3.853  13.708   0.852  0.00  0.00    +0.026 A 
ENDBRANCH  18  20
ENDBRANCH   5  18
TORSDOF 4
