REMARK  Name = ZINC13024009
REMARK  15 active torsions:
REMARK  status: ('A' for Active; 'I' for Inactive)
REMARK    1  A    between atoms: C_1  and  C_2
REMARK    2  A    between atoms: C_2  and  C_3
REMARK    3  A    between atoms: C_3  and  C_4
REMARK    4  A    between atoms: C_3  and  C_5
REMARK    5  A    between atoms: C_3  and  N_6
REMARK    6  A    between atoms: C_7  and  C_9
REMARK    7  A    between atoms: C_9  and  C_11
REMARK    8  A    between atoms: C_9  and  N_20
REMARK    9  A    between atoms: C_14  and  C_17
REMARK   10  A    between atoms: C_17  and  C_18
REMARK   11  A    between atoms: C_17  and  C_19
REMARK   12  A    between atoms: N_20  and  C_21
REMARK   13  A    between atoms: C_21  and  C_22
REMARK   14  A    between atoms: C_27  and  C_29
REMARK   15  A    between atoms: C_29  and  N_30
REMARK                            x       y       z     vdW  Elec       q    Type
REMARK                         _______ _______ _______ _____ _____    ______ ____
ROOT
ATOM      1  C   UNL     1      -0.494   2.056   2.228  0.00  0.00    +0.193 C 
ENDROOT
BRANCH   1   2
ATOM      2  C   UNL     1       0.764   1.883   1.417  0.00  0.00    -0.018 A 
ATOM      3  C   UNL     1       0.947   0.740   0.660  0.00  0.00    +0.006 A 
ATOM      4  C   UNL     1       2.099   0.583  -0.087  0.00  0.00    +0.004 A 
ATOM      5  C   UNL     1       3.073   1.563  -0.069  0.00  0.00    -0.045 A 
ATOM      6  C   UNL     1       2.893   2.703   0.692  0.00  0.00    +0.004 A 
ATOM      7  C   UNL     1       1.739   2.863   1.435  0.00  0.00    +0.006 A 
BRANCH   5   8
ATOM      8  C   UNL     1       4.332   1.389  -0.878  0.00  0.00    +0.013 C 
ATOM      9  C   UNL     1       5.066   0.129  -0.415  0.00  0.00    +0.012 C 
ATOM     10  C   UNL     1       3.972   1.254  -2.359  0.00  0.00    +0.012 C 
ENDBRANCH   5   8
ENDBRANCH   1   2
BRANCH   1  12
ATOM     11  N   UNL     1      -0.336   1.641   4.661  0.00  0.00    -0.308 N 
ATOM     12  C   UNL     1      -0.457   1.133   3.418  0.00  0.00    +0.239 C 
ATOM     13  O   UNL     1      -0.536  -0.066   3.258  0.00  0.00    -0.273 OA
ATOM     14  H   UNL     1      -0.272   2.600   4.789  0.00  0.00    +0.149 HD
BRANCH  11  15
ATOM     15  C   UNL     1      -0.299   0.743   5.818  0.00  0.00    +0.029 C 
ATOM     16  C   UNL     1      -1.595  -0.069   5.875  0.00  0.00    +0.031 C 
ATOM     17  C   UNL     1       0.893  -0.208   5.689  0.00  0.00    +0.031 C 
BRANCH  15  19
ATOM     18  C   UNL     1      -0.119   0.630   8.308  0.00  0.00    +0.006 C 
ATOM     19  C   UNL     1      -0.157   1.568   7.099  0.00  0.00    +0.022 C 
ENDBRANCH  15  19
ENDBRANCH  11  15
ENDBRANCH   1  12
BRANCH   1  20
ATOM     20  N   UNL     1      -1.658   1.736   1.397  0.00  0.00    -0.277 N 
ATOM     21  C   UNL     1      -1.898   2.438   0.273  0.00  0.00    +0.238 C 
ATOM     22  O   UNL     1      -1.150   3.337  -0.052  0.00  0.00    -0.274 OA
BRANCH  20  23
ATOM     23  C   UNL     1      -2.561   0.651   1.790  0.00  0.00    +0.183 C 
BRANCH  23  24
ATOM     24  C   UNL     1      -2.130  -0.629   1.120  0.00  0.00    +0.122 A 
ATOM     25  C   UNL     1      -2.000  -1.825   1.721  0.00  0.00    +0.046 A 
ATOM     26  C   UNL     1      -1.577  -2.738   0.727  0.00  0.00    +0.041 A 
ATOM     27  C   UNL     1      -1.475  -2.045  -0.421  0.00  0.00    +0.195 A 
ATOM     28  O   UNL     1      -1.817  -0.769  -0.178  0.00  0.00    -0.466 OA
ENDBRANCH  23  24
ENDBRANCH  20  23
BRANCH  21  29
ATOM     29  C   UNL     1      -3.095   2.108  -0.581  0.00  0.00    +0.241 C 
BRANCH  29  30
ATOM     30  N   UNL     1      -3.133   3.008  -1.737  0.00  0.00    -0.235 N 
ATOM     31  C   UNL     1      -3.767   4.225  -1.812  0.00  0.00    +0.090 A 
ATOM     32  C   UNL     1      -4.514   4.982  -0.915  0.00  0.00    +0.029 A 
ATOM     33  C   UNL     1      -5.016   6.193  -1.302  0.00  0.00    +0.002 A 
ATOM     34  C   UNL     1      -4.783   6.678  -2.583  0.00  0.00    +0.002 A 
ATOM     35  C   UNL     1      -4.049   5.958  -3.479  0.00  0.00    +0.032 A 
ATOM     36  C   UNL     1      -3.522   4.713  -3.107  0.00  0.00    +0.113 A 
ATOM     37  N   UNL     1      -2.778   3.796  -3.756  0.00  0.00    -0.129 NA
ATOM     38  N   UNL     1      -2.534   2.794  -2.988  0.00  0.00    -0.064 NA
ENDBRANCH  29  30
ENDBRANCH  21  29
ENDBRANCH   1  20
TORSDOF 10
