REMARK  Name = ZINC55912926
REMARK  7 active torsions:
REMARK  status: ('A' for Active; 'I' for Inactive)
REMARK    1  A    between atoms: C_1  and  C_2
REMARK    2  A    between atoms: C_5  and  N_8
REMARK    3  A    between atoms: C_12  and  C_14
REMARK    4  A    between atoms: C_14  and  C_16
REMARK    5  A    between atoms: C_14  and  N_17
REMARK    6  A    between atoms: C_20  and  C_23
REMARK    7  A    between atoms: N_25  and  C_26
REMARK                            x       y       z     vdW  Elec       q    Type
REMARK                         _______ _______ _______ _____ _____    ______ ____
ROOT
ATOM      1  C   UNL     1       0.545  -8.371   2.265  0.00  0.00    +0.017 C 
ATOM      2  C   UNL     1      -0.656  -8.938   1.505  0.00  0.00    -0.004 C 
ENDROOT
BRANCH   1   7
ATOM      3  N   UNL     1       1.473  -4.088   0.289  0.00  0.00    -0.269 N 
ATOM      4  C   UNL     1       0.932  -4.804   1.294  0.00  0.00    +0.310 C 
ATOM      5  O   UNL     1       0.378  -4.237   2.215  0.00  0.00    -0.252 OA
ATOM      6  N   UNL     1       1.005  -6.150   1.278  0.00  0.00    -0.241 N 
ATOM      7  C   UNL     1       0.463  -6.866   2.283  0.00  0.00    +0.207 C 
ATOM      8  O   UNL     1      -0.089  -6.300   3.202  0.00  0.00    -0.277 OA
ATOM      9  H   UNL     1       1.848  -4.541  -0.482  0.00  0.00    +0.156 HD
ATOM     10  H   UNL     1       1.447  -6.603   0.543  0.00  0.00    +0.159 HD
BRANCH   3  15
ATOM     11  C   UNL     1       1.563   1.578   0.570  0.00  0.00    +0.044 C 
ATOM     12  C   UNL     1       1.539   0.073   0.495  0.00  0.00    -0.050 A 
ATOM     13  C   UNL     1       1.654  -0.677   1.651  0.00  0.00    +0.005 A 
ATOM     14  C   UNL     1       1.632  -2.057   1.587  0.00  0.00    +0.023 A 
ATOM     15  C   UNL     1       1.495  -2.690   0.358  0.00  0.00    +0.035 A 
ATOM     16  C   UNL     1       1.379  -1.934  -0.801  0.00  0.00    +0.023 A 
ATOM     17  C   UNL     1       1.396  -0.555  -0.728  0.00  0.00    +0.005 A 
ENDBRANCH   3  15
ENDBRANCH   1   7
BRANCH   1  18
ATOM     18  N   UNL     1       0.536  -8.878   3.644  0.00  0.00    +0.387 N 
ATOM     19  C   UNL     1       1.721  -8.382   4.354  0.00  0.00    -0.077 C 
ATOM     20  C   UNL     1       1.675  -8.841   5.813  0.00  0.00    -0.006 C 
ATOM     21  C   UNL     1       1.652 -10.372   5.861  0.00  0.00    +0.071 C 
ATOM     22  C   UNL     1       0.454 -10.880   5.054  0.00  0.00    -0.006 C 
ATOM     23  C   UNL     1       0.545 -10.346   3.623  0.00  0.00    -0.077 C 
ATOM     24  H   UNL     1      -0.296  -8.555   4.115  0.00  0.00    -0.081 HD
BRANCH  21  25
ATOM     25  C   UNL     1       1.528 -10.829   7.291  0.00  0.00    +0.216 C 
ATOM     26  O   UNL     1       1.464 -10.013   8.186  0.00  0.00    -0.276 OA
ATOM     27  N   UNL     1       1.488 -12.146   7.576  0.00  0.00    -0.312 N 
ATOM     28  H   UNL     1       1.540 -12.799   6.861  0.00  0.00    +0.149 HD
BRANCH  27  29
ATOM     29  C   UNL     1       1.368 -12.591   8.967  0.00  0.00    +0.073 C 
ATOM     30  C   UNL     1       2.256 -13.753   9.416  0.00  0.00    +0.024 C 
ATOM     31  C   UNL     1       0.755 -13.971   9.216  0.00  0.00    +0.024 C 
ENDBRANCH  27  29
ENDBRANCH  21  25
ENDBRANCH   1  18
TORSDOF 5
