REMARK  Name = ZINC41020646
REMARK  12 active torsions:
REMARK  status: ('A' for Active; 'I' for Inactive)
REMARK    1  A    between atoms: C_1  and  C_2
REMARK    2  A    between atoms: C_2  and  S_3
REMARK    3  A    between atoms: S_3  and  C_4
REMARK    4  A    between atoms: C_9  and  C_26
REMARK    5  A    between atoms: C_11  and  C_15
REMARK    6  A    between atoms: C_12  and  C_14
REMARK    7  A    between atoms: N_17  and  C_18
REMARK    8  A    between atoms: C_22  and  C_25
REMARK    9  A    between atoms: C_23  and  C_24
REMARK   10  A    between atoms: C_29  and  C_32
REMARK   11  A    between atoms: C_32  and  C_33
REMARK   12  A    between atoms: C_32  and  C_34
REMARK                            x       y       z     vdW  Elec       q    Type
REMARK                         _______ _______ _______ _____ _____    ______ ____
ROOT
ATOM      1  C   UNL     1       0.566  -2.357  -1.423  0.00  0.00    +0.210 A 
ATOM      2  N   UNL     1       0.055  -3.057  -0.400  0.00  0.00    -0.187 NA
ATOM      3  C   UNL     1       0.237  -4.333  -0.610  0.00  0.00    +0.219 A 
ATOM      4  N   UNL     1       0.886  -4.476  -1.792  0.00  0.00    -0.220 N 
ATOM      5  N   UNL     1       1.079  -3.192  -2.300  0.00  0.00    -0.141 NA
ATOM      6  C   UNL     1       1.270  -5.769  -2.352  0.00  0.00    +0.177 C 
ATOM      7  C   UNL     1       0.585  -6.870  -1.586  0.00  0.00    +0.060 C 
ATOM      8  C   UNL     1      -0.046  -6.668  -0.421  0.00  0.00    +0.018 C 
ATOM      9  N   UNL     1      -0.126  -5.427   0.163  0.00  0.00    -0.287 N 
ATOM     10  C   UNL     1      -0.691  -7.841   0.272  0.00  0.00    +0.061 C 
ATOM     11  H   UNL     1      -0.423  -5.319   1.080  0.00  0.00    +0.155 HD
ENDROOT
BRANCH   6  12
ATOM     12  C   UNL     1       2.764  -5.939  -2.246  0.00  0.00    -0.018 A 
ATOM     13  C   UNL     1       3.376  -5.921  -1.007  0.00  0.00    +0.006 A 
ATOM     14  C   UNL     1       4.746  -6.076  -0.910  0.00  0.00    +0.004 A 
ATOM     15  C   UNL     1       5.504  -6.250  -2.053  0.00  0.00    -0.045 A 
ATOM     16  C   UNL     1       4.892  -6.268  -3.292  0.00  0.00    +0.004 A 
ATOM     17  C   UNL     1       3.522  -6.117  -3.389  0.00  0.00    +0.006 A 
BRANCH  15  18
ATOM     18  C   UNL     1       6.998  -6.418  -1.948  0.00  0.00    +0.013 C 
ATOM     19  C   UNL     1       7.402  -7.770  -2.539  0.00  0.00    +0.012 C 
ATOM     20  C   UNL     1       7.694  -5.295  -2.720  0.00  0.00    +0.012 C 
ENDBRANCH  15  18
ENDBRANCH   6  12
BRANCH   7  21
ATOM     21  C   UNL     1       0.608  -8.179  -2.122  0.00  0.00    +0.248 C 
ATOM     22  O   UNL     1      -0.167  -8.487  -3.010  0.00  0.00    -0.270 OA
ATOM     23  N   UNL     1       1.488  -9.085  -1.651  0.00  0.00    -0.281 N 
ATOM     24  H   UNL     1       2.061  -8.860  -0.901  0.00  0.00    +0.155 HD
BRANCH  23  25
ATOM     25  C   UNL     1       1.574 -10.349  -2.243  0.00  0.00    +0.037 A 
ATOM     26  C   UNL     1       0.433 -10.962  -2.745  0.00  0.00    +0.023 A 
ATOM     27  C   UNL     1       0.522 -12.210  -3.328  0.00  0.00    +0.002 A 
ATOM     28  C   UNL     1       1.745 -12.850  -3.413  0.00  0.00    +0.004 A 
ATOM     29  C   UNL     1       2.883 -12.243  -2.914  0.00  0.00    -0.046 A 
ATOM     30  C   UNL     1       2.802 -10.992  -2.334  0.00  0.00    -0.026 A 
ATOM     31  C   UNL     1       4.043 -10.328  -1.796  0.00  0.00    +0.046 C 
ATOM     32  C   UNL     1       4.213 -12.944  -3.009  0.00  0.00    +0.044 C 
ENDBRANCH  23  25
ENDBRANCH   7  21
BRANCH   1  33
ATOM     33  S   UNL     1       0.547  -0.601  -1.571  0.00  0.00    -0.085 S 
BRANCH  33  35
ATOM     34  C   UNL     1      -0.373   1.486  -0.061  0.00  0.00    +0.016 C 
ATOM     35  C   UNL     1      -0.287  -0.042  -0.061  0.00  0.00    +0.074 C 
ENDBRANCH  33  35
ENDBRANCH   1  33
TORSDOF 6
