REMARK  Name = ZINC08826947
REMARK  12 active torsions:
REMARK  status: ('A' for Active; 'I' for Inactive)
REMARK    1  A    between atoms: C_1  and  C_2
REMARK    2  A    between atoms: C_9  and  C_33
REMARK    3  A    between atoms: C_10  and  C_11
REMARK    4  A    between atoms: C_11  and  C_13
REMARK    5  A    between atoms: C_14  and  O_32
REMARK    6  A    between atoms: N_17  and  C_27
REMARK    7  A    between atoms: C_18  and  C_20
REMARK    8  A    between atoms: C_27  and  C_28
REMARK    9  A    between atoms: C_28  and  C_29
REMARK   10  A    between atoms: C_29  and  N_60
REMARK   11  A    between atoms: C_30  and  N_60
REMARK   12  A    between atoms: C_31  and  N_60
REMARK                            x       y       z     vdW  Elec       q    Type
REMARK                         _______ _______ _______ _____ _____    ______ ____
ROOT
ATOM      1  C   UNL     1       2.685  -3.110   4.063  0.00  0.00    +0.073 C 
ATOM      2  C   UNL     1       1.460  -2.985   4.622  0.00  0.00    +0.188 C 
ATOM      3  C   UNL     1       0.456  -2.799   3.557  0.00  0.00    +0.282 C 
ATOM      4  O   UNL     1      -0.737  -2.659   3.740  0.00  0.00    -0.267 OA
ATOM      5  N   UNL     1       1.056  -2.809   2.352  0.00  0.00    -0.284 N 
ATOM      6  C   UNL     1       2.494  -3.009   2.567  0.00  0.00    +0.145 C 
ENDROOT
BRANCH   6   7
ATOM      7  C   UNL     1       3.267  -1.834   2.026  0.00  0.00    -0.022 A 
ATOM      8  C   UNL     1       2.870  -0.546   2.332  0.00  0.00    +0.007 A 
ATOM      9  C   UNL     1       3.583   0.532   1.841  0.00  0.00    +0.020 A 
ATOM     10  C   UNL     1       4.686   0.322   1.033  0.00  0.00    +0.041 A 
ATOM     11  C   UNL     1       5.079  -0.968   0.722  0.00  0.00    +0.020 A 
ATOM     12  C   UNL     1       4.370  -2.045   1.219  0.00  0.00    +0.007 A 
ATOM     13 CL   UNL     1       5.576   1.675   0.409  0.00  0.00    -0.084 Cl
ENDBRANCH   6   7
BRANCH   1  14
ATOM     14  C   UNL     1       3.955  -3.309   4.772  0.00  0.00    +0.213 C 
ATOM     15  O   UNL     1       4.690  -2.359   4.984  0.00  0.00    -0.285 OA
BRANCH  14  25
ATOM     16  C   UNL     1       6.394  -8.408   7.104  0.00  0.00    +0.047 C 
ATOM     17  C   UNL     1       6.422  -6.917   6.883  0.00  0.00    -0.008 A 
ATOM     18  C   UNL     1       7.437  -6.165   7.396  0.00  0.00    +0.008 A 
ATOM     19  C   UNL     1       7.448  -4.780   7.182  0.00  0.00    +0.018 A 
ATOM     20  C   UNL     1       6.457  -4.195   6.471  0.00  0.00    +0.093 A 
ATOM     21  N   UNL     1       5.442  -4.939   5.957  0.00  0.00    -0.296 N 
ATOM     22  C   UNL     1       5.402  -6.291   6.147  0.00  0.00    +0.141 A 
ATOM     23  N   UNL     1       4.314  -6.774   5.547  0.00  0.00    -0.232 NA
ATOM     24  C   UNL     1       3.641  -5.790   4.978  0.00  0.00    +0.068 A 
ATOM     25  C   UNL     1       4.327  -4.604   5.209  0.00  0.00    +0.116 A 
ATOM     26  C   UNL     1       2.353  -5.929   4.207  0.00  0.00    +0.068 C 
ENDBRANCH  14  25
ENDBRANCH   1  14
BRANCH   2  27
ATOM     27  O   UNL     1       1.196  -3.025   5.950  0.00  0.00    -0.502 OA
ATOM     28  H   UNL     1       0.214  -2.908   6.098  0.00  0.00    +0.292 HD
ENDBRANCH   2  27
BRANCH   5  29
ATOM     29  C   UNL     1       0.391  -2.655   1.056  0.00  0.00    +0.107 C 
BRANCH  29  30
ATOM     30  C   UNL     1       0.340  -1.172   0.682  0.00  0.00    +0.000 C 
BRANCH  30  31
ATOM     31  C   UNL     1      -0.355  -1.011  -0.671  0.00  0.00    -0.078 C 
BRANCH  31  34
ATOM     32  C   UNL     1       0.947   0.943  -1.265  0.00  0.00    -0.097 C 
ATOM     33  C   UNL     1      -1.265   0.632  -2.199  0.00  0.00    -0.097 C 
ATOM     34  N   UNL     1      -0.415   0.427  -1.008  0.00  0.00    +0.376 N 
ATOM     35  H   UNL     1      -0.821   0.938  -0.216  0.00  0.00    -0.083 HD
ENDBRANCH  31  34
ENDBRANCH  30  31
ENDBRANCH  29  30
ENDBRANCH   5  29
TORSDOF 8
