REMARK  Name = ZINC35105846
REMARK  11 active torsions:
REMARK  status: ('A' for Active; 'I' for Inactive)
REMARK    1  A    between atoms: C_1  and  C_2
REMARK    2  A    between atoms: C_2  and  C_3
REMARK    3  A    between atoms: C_2  and  N_4
REMARK    4  A    between atoms: C_5  and  C_31
REMARK    5  A    between atoms: C_6  and  C_25
REMARK    6  A    between atoms: C_8  and  S_9
REMARK    7  A    between atoms: S_9  and  C_10
REMARK    8  A    between atoms: C_10  and  C_11
REMARK    9  A    between atoms: C_11  and  N_12
REMARK   10  A    between atoms: C_13  and  C_15
REMARK   11  A    between atoms: C_18  and  N_22
REMARK                            x       y       z     vdW  Elec       q    Type
REMARK                         _______ _______ _______ _____ _____    ______ ____
ROOT
ATOM      1  N   UNL     1      -1.372  -0.511   0.012  0.00  0.00    -0.316 N 
ATOM      2  C   UNL     1      -1.957  -1.317  -0.947  0.00  0.00    +0.077 A 
ATOM      3  C   UNL     1      -3.253  -1.544  -0.526  0.00  0.00    +0.098 A 
ATOM      4  N   UNL     1      -3.424  -0.894   0.642  0.00  0.00    -0.221 NA
ATOM      5  C   UNL     1      -2.311  -0.282   0.972  0.00  0.00    +0.170 A 
ENDROOT
BRANCH   3   6
ATOM      6  C   UNL     1      -4.271  -2.356  -1.232  0.00  0.00    +0.002 A 
ATOM      7  C   UNL     1      -4.308  -2.376  -2.626  0.00  0.00    +0.010 A 
ATOM      8  C   UNL     1      -5.259  -3.134  -3.278  0.00  0.00    +0.001 A 
ATOM      9  C   UNL     1      -6.175  -3.873  -2.551  0.00  0.00    +0.000 A 
ATOM     10  C   UNL     1      -6.144  -3.857  -1.168  0.00  0.00    +0.001 A 
ATOM     11  C   UNL     1      -5.194  -3.107  -0.505  0.00  0.00    +0.010 A 
ENDBRANCH   3   6
BRANCH   2  12
ATOM     12  C   UNL     1      -1.324  -1.831  -2.177  0.00  0.00    +0.001 A 
ATOM     13  C   UNL     1      -0.551  -0.984  -2.975  0.00  0.00    +0.010 A 
ATOM     14  C   UNL     1       0.039  -1.471  -4.122  0.00  0.00    +0.001 A 
ATOM     15  C   UNL     1      -0.134  -2.796  -4.484  0.00  0.00    +0.000 A 
ATOM     16  C   UNL     1      -0.898  -3.641  -3.698  0.00  0.00    +0.001 A 
ATOM     17  C   UNL     1      -1.489  -3.168  -2.545  0.00  0.00    +0.010 A 
ENDBRANCH   2  12
BRANCH   1  19
ATOM     18  C   UNL     1      -0.019   1.526   0.010  0.00  0.00    +0.030 C 
ATOM     19  C   UNL     1       0.002  -0.004   0.002  0.00  0.00    +0.084 C 
ATOM     20  C   UNL     1       0.742  -0.511   1.242  0.00  0.00    +0.030 C 
ENDBRANCH   1  19
BRANCH   5  21
ATOM     21  S   UNL     1      -2.071   0.685   2.425  0.00  0.00    -0.086 S 
BRANCH  21  22
ATOM     22  C   UNL     1      -3.670   0.602   3.277  0.00  0.00    +0.096 C 
BRANCH  22  23
ATOM     23  C   UNL     1      -3.600   1.411   4.574  0.00  0.00    +0.115 C 
BRANCH  23  24
ATOM     24  N   UNL     1      -4.892   1.344   5.262  0.00  0.00    -0.311 N 
ATOM     25  C   UNL     1      -5.065   1.987   6.434  0.00  0.00    +0.246 C 
ATOM     26  O   UNL     1      -4.150   2.622   6.920  0.00  0.00    -0.270 OA
ATOM     27  H   UNL     1      -5.622   0.837   4.874  0.00  0.00    +0.149 HD
BRANCH  25  28
ATOM     28  C   UNL     1      -6.368   1.919   7.128  0.00  0.00    +0.055 A 
ATOM     29  C   UNL     1      -7.420   1.186   6.575  0.00  0.00    +0.017 A 
ATOM     30  C   UNL     1      -8.633   1.126   7.228  0.00  0.00    +0.033 A 
ATOM     31  C   UNL     1      -8.810   1.792   8.428  0.00  0.00    +0.128 A 
ATOM     32  C   UNL     1      -7.774   2.521   8.982  0.00  0.00    +0.053 A 
ATOM     33  C   UNL     1      -6.551   2.584   8.342  0.00  0.00    +0.055 A 
ATOM     34 CL   UNL     1      -5.249   3.494   9.042  0.00  0.00    -0.083 Cl
BRANCH  31  35
ATOM     35  N   UNL     1     -10.116   1.724   9.123  0.00  0.00    +0.056 N 
ATOM     36  O   UNL     1     -11.024   1.087   8.641  0.00  0.00    -0.126 OA
ATOM     37  O   UNL     1     -10.274   2.304  10.171  0.00  0.00    -0.126 OA
ENDBRANCH  31  35
ENDBRANCH  25  28
ENDBRANCH  23  24
ENDBRANCH  22  23
ENDBRANCH  21  22
ENDBRANCH   5  21
TORSDOF 9
