REMARK  Name = ZINC36504743
REMARK  15 active torsions:
REMARK  status: ('A' for Active; 'I' for Inactive)
REMARK    1  A    between atoms: C_1  and  C_2
REMARK    2  A    between atoms: C_2  and  C_3
REMARK    3  A    between atoms: C_2  and  C_4
REMARK    4  A    between atoms: C_2  and  C_5
REMARK    5  A    between atoms: C_5  and  C_6
REMARK    6  A    between atoms: C_6  and  C_7
REMARK    7  A    between atoms: C_6  and  C_8
REMARK    8  A    between atoms: C_6  and  N_9
REMARK    9  A    between atoms: C_10  and  C_12
REMARK   10  A    between atoms: C_12  and  C_14
REMARK   11  A    between atoms: C_12  and  N_20
REMARK   12  A    between atoms: N_20  and  C_21
REMARK   13  A    between atoms: C_21  and  C_22
REMARK   14  A    between atoms: C_27  and  C_29
REMARK   15  A    between atoms: C_33  and  N_35
REMARK                            x       y       z     vdW  Elec       q    Type
REMARK                         _______ _______ _______ _____ _____    ______ ____
ROOT
ATOM      1  C   UNL     1       4.349  -2.282  -4.367  0.00  0.00    +0.166 C 
ENDROOT
BRANCH   1   2
ATOM      2  C   UNL     1       4.039  -2.374  -5.862  0.00  0.00    +0.019 C 
ATOM      3  C   UNL     1       2.599  -1.924  -6.113  0.00  0.00    +0.006 C 
ATOM      4  C   UNL     1       2.289  -2.016  -7.608  0.00  0.00    +0.000 C 
ATOM      5  C   UNL     1       2.460  -3.463  -8.076  0.00  0.00    +0.000 C 
ATOM      6  C   UNL     1       3.901  -3.913  -7.826  0.00  0.00    +0.000 C 
ATOM      7  C   UNL     1       4.211  -3.821  -6.330  0.00  0.00    +0.006 C 
ENDBRANCH   1   2
BRANCH   1   9
ATOM      8  N   UNL     1       2.833  -0.403  -3.828  0.00  0.00    -0.309 N 
ATOM      9  C   UNL     1       4.094  -0.876  -3.886  0.00  0.00    +0.234 C 
ATOM     10  O   UNL     1       5.022  -0.172  -3.552  0.00  0.00    -0.274 OA
ATOM     11  H   UNL     1       2.083  -1.000  -3.978  0.00  0.00    +0.149 HD
BRANCH   8  12
ATOM     12  C   UNL     1       2.595   1.013  -3.537  0.00  0.00    +0.030 C 
ATOM     13  C   UNL     1       3.304   1.875  -4.584  0.00  0.00    +0.031 C 
ATOM     14  C   UNL     1       3.141   1.347  -2.148  0.00  0.00    +0.031 C 
BRANCH  12  15
ATOM     15  C   UNL     1       1.092   1.296  -3.576  0.00  0.00    +0.031 C 
BRANCH  15  17
ATOM     16  C   UNL     1       0.798   1.453  -1.100  0.00  0.00    +0.010 C 
ATOM     17  C   UNL     1       0.422   0.663  -2.355  0.00  0.00    -0.036 C 
ATOM     18  C   UNL     1       0.895  -0.785  -2.208  0.00  0.00    +0.010 C 
ATOM     19  C   UNL     1      -1.097   0.688  -2.537  0.00  0.00    +0.010 C 
ENDBRANCH  15  17
ENDBRANCH  12  15
ENDBRANCH   8  12
ENDBRANCH   1   9
BRANCH   1  20
ATOM     20  N   UNL     1       5.754  -2.629  -4.137  0.00  0.00    -0.278 N 
ATOM     21  C   UNL     1       6.082  -3.499  -3.162  0.00  0.00    +0.248 C 
ATOM     22  O   UNL     1       7.251  -3.691  -2.886  0.00  0.00    -0.270 OA
BRANCH  21  23
ATOM     23  C   UNL     1       5.021  -4.222  -2.428  0.00  0.00    +0.039 A 
ATOM     24  C   UNL     1       3.845  -3.562  -2.068  0.00  0.00    +0.013 A 
ATOM     25  C   UNL     1       2.859  -4.242  -1.383  0.00  0.00    +0.003 A 
ATOM     26  C   UNL     1       3.034  -5.575  -1.053  0.00  0.00    +0.033 A 
ATOM     27  C   UNL     1       4.198  -6.234  -1.406  0.00  0.00    +0.127 A 
ATOM     28  C   UNL     1       5.190  -5.567  -2.097  0.00  0.00    +0.045 A 
BRANCH  27  29
ATOM     29  N   UNL     1       4.378  -7.659  -1.049  0.00  0.00    +0.056 N 
ATOM     30  O   UNL     1       3.508  -8.245  -0.448  0.00  0.00    -0.126 OA
ATOM     31  O   UNL     1       5.394  -8.236  -1.357  0.00  0.00    -0.126 OA
ENDBRANCH  27  29
ENDBRANCH  21  23
BRANCH  20  32
ATOM     32  C   UNL     1       6.802  -2.029  -4.966  0.00  0.00    +0.183 C 
BRANCH  32  33
ATOM     33  C   UNL     1       7.387  -0.837  -4.253  0.00  0.00    +0.122 A 
ATOM     34  C   UNL     1       8.402  -0.869  -3.371  0.00  0.00    +0.046 A 
ATOM     35  C   UNL     1       8.622   0.464  -2.953  0.00  0.00    +0.041 A 
ATOM     36  C   UNL     1       7.729   1.230  -3.604  0.00  0.00    +0.195 A 
ATOM     37  O   UNL     1       6.987   0.437  -4.395  0.00  0.00    -0.466 OA
ENDBRANCH  32  33
ENDBRANCH  20  32
ENDBRANCH   1  20
TORSDOF 10
