REMARK  Name = ZINC10716452
REMARK  10 active torsions:
REMARK  status: ('A' for Active; 'I' for Inactive)
REMARK    1  A    between atoms: C_1  and  O_2
REMARK    2  A    between atoms: O_2  and  C_3
REMARK    3  A    between atoms: C_6  and  C_9
REMARK    4  A    between atoms: C_9  and  C_10
REMARK    5  A    between atoms: C_10  and  O_12
REMARK    6  A    between atoms: O_12  and  C_13
REMARK    7  A    between atoms: C_13  and  C_15
REMARK    8  A    between atoms: C_13  and  C_21
REMARK    9  A    between atoms: N_23  and  C_24
REMARK   10  A    between atoms: C_27  and  N_31
REMARK                            x       y       z     vdW  Elec       q    Type
REMARK                         _______ _______ _______ _____ _____    ______ ____
ROOT
ATOM      1  C   UNL     1       1.126   5.801   3.083  0.00  0.00    +0.292 C 
ENDROOT
BRANCH   1   2
ATOM      2  C   UNL     1       2.551   5.953   3.550  0.00  0.00    +0.002 A 
ATOM      3  C   UNL     1       3.496   6.518   2.714  0.00  0.00    +0.008 A 
ATOM      4  C   UNL     1       4.802   6.661   3.144  0.00  0.00    +0.000 A 
ATOM      5  C   UNL     1       5.165   6.232   4.407  0.00  0.00    +0.000 A 
ATOM      6  C   UNL     1       4.221   5.663   5.242  0.00  0.00    +0.000 A 
ATOM      7  C   UNL     1       2.914   5.524   4.813  0.00  0.00    +0.008 A 
ENDBRANCH   1   2
BRANCH   1   8
ATOM      8  C   UNL     1       0.407   7.117   3.229  0.00  0.00    +0.263 C 
ATOM      9  O   UNL     1      -0.069   7.660   2.254  0.00  0.00    -0.271 OA
ATOM     10  N   UNL     1       0.292   7.692   4.443  0.00  0.00    -0.281 N 
ATOM     11  H   UNL     1       0.614   7.228   5.231  0.00  0.00    +0.155 HD
BRANCH  10  12
ATOM     12  C   UNL     1      -0.293   8.957   4.565  0.00  0.00    +0.048 A 
ATOM     13  C   UNL     1      -1.338   9.325   3.729  0.00  0.00    +0.026 A 
ATOM     14  C   UNL     1      -1.913  10.575   3.852  0.00  0.00    +0.034 A 
ATOM     15  C   UNL     1      -1.449  11.460   4.808  0.00  0.00    +0.127 A 
ATOM     16  C   UNL     1      -0.409  11.098   5.643  0.00  0.00    +0.049 A 
ATOM     17  C   UNL     1       0.168   9.847   5.528  0.00  0.00    +0.041 A 
ATOM     18 BR   UNL     1       1.586   9.348   6.676  0.00  0.00    -0.048 Br
BRANCH  15  19
ATOM     19  N   UNL     1      -2.069  12.798   4.938  0.00  0.00    +0.056 N 
ATOM     20  O   UNL     1      -2.986  13.119   4.204  0.00  0.00    -0.126 OA
ATOM     21  O   UNL     1      -1.661  13.579   5.780  0.00  0.00    -0.126 OA
ENDBRANCH  15  19
ENDBRANCH  10  12
ENDBRANCH   1   8
BRANCH   1  22
ATOM     22  O   UNL     1       1.115   5.395   1.689  0.00  0.00    -0.447 OA
BRANCH  22  23
ATOM     23  C   UNL     1       1.123   4.077   1.438  0.00  0.00    +0.312 C 
ATOM     24  O   UNL     1       1.139   3.288   2.353  0.00  0.00    -0.250 OA
BRANCH  23  25
ATOM     25  C   UNL     1       1.112   3.580   0.015  0.00  0.00    +0.155 C 
BRANCH  25  29
ATOM     26  C   UNL     1       1.147  -0.693  -0.002  0.00  0.00    +0.120 A 
ATOM     27  C   UNL     1      -0.060  -0.008   0.013  0.00  0.00    +0.046 A 
ATOM     28  C   UNL     1      -0.068   1.373   0.019  0.00  0.00    +0.008 A 
ATOM     29  C   UNL     1       1.124   2.073   0.009  0.00  0.00    -0.037 A 
ATOM     30  C   UNL     1       2.328   1.393  -0.006  0.00  0.00    +0.008 A 
ATOM     31  C   UNL     1       2.342   0.011  -0.012  0.00  0.00    +0.046 A 
BRANCH  26  33
ATOM     32  C   UNL     1       2.436  -2.691  -0.023  0.00  0.00    +0.277 C 
ATOM     33  O   UNL     1       1.157  -2.052  -0.007  0.00  0.00    -0.495 OA
ENDBRANCH  26  33
ENDBRANCH  25  29
ENDBRANCH  23  25
ENDBRANCH  22  23
ENDBRANCH   1  22
TORSDOF 9
