REMARK  Name = ZINC58871845
REMARK  8 active torsions:
REMARK  status: ('A' for Active; 'I' for Inactive)
REMARK    1  A    between atoms: C_1  and  C_2
REMARK    2  A    between atoms: C_2  and  O_3
REMARK    3  A    between atoms: O_3  and  C_4
REMARK    4  A    between atoms: C_6  and  C_23
REMARK    5  A    between atoms: C_9  and  O_10
REMARK    6  A    between atoms: O_10  and  C_11
REMARK    7  A    between atoms: C_11  and  C_13
REMARK    8  A    between atoms: N_24  and  N_25
REMARK                            x       y       z     vdW  Elec       q    Type
REMARK                         _______ _______ _______ _____ _____    ______ ____
ROOT
ATOM      1  C   UNL     1      -1.497  -1.835   0.038  0.00  0.00    +0.163 A 
ATOM      2  C   UNL     1      -0.384  -2.655   0.031  0.00  0.00    +0.059 A 
ATOM      3  C   UNL     1      -0.543  -4.042  -0.004  0.00  0.00    -0.002 A 
ATOM      4  C   UNL     1      -1.827  -4.594  -0.030  0.00  0.00    +0.013 A 
ATOM      5  C   UNL     1      -2.932  -3.770  -0.022  0.00  0.00    +0.051 A 
ATOM      6  C   UNL     1      -2.773  -2.392   0.017  0.00  0.00    +0.173 A 
ENDROOT
BRANCH   3   7
ATOM      7  C   UNL     1       0.640  -4.922  -0.012  0.00  0.00    +0.138 C 
ATOM      8  N   UNL     1       0.490  -6.211  -0.044  0.00  0.00    -0.186 NA
BRANCH   8   9
ATOM      9  N   UNL     1       1.615  -7.046  -0.053  0.00  0.00    -0.191 N 
ATOM     10  C   UNL     1       1.459  -8.385  -0.086  0.00  0.00    +0.317 C 
ATOM     11  O   UNL     1       2.435  -9.110  -0.093  0.00  0.00    -0.251 OA
ATOM     12  N   UNL     1       0.222  -8.919  -0.111  0.00  0.00    -0.312 N 
ATOM     13  H   UNL     1       2.505  -6.662  -0.035  0.00  0.00    +0.179 HD
ATOM     14  H   UNL     1      -0.557  -8.340  -0.105  0.00  0.00    +0.147 HD
ATOM     15  H   UNL     1       0.110  -9.882  -0.135  0.00  0.00    +0.147 HD
ENDBRANCH   8   9
ENDBRANCH   3   7
BRANCH   1  16
ATOM     16  O   UNL     1      -1.345  -0.484   0.072  0.00  0.00    -0.489 OA
BRANCH  16  18
ATOM     17  C   UNL     1      -0.038   1.548   0.130  0.00  0.00    +0.048 C 
ATOM     18  C   UNL     1      -0.008   0.019   0.093  0.00  0.00    +0.226 C 
ENDBRANCH  16  18
ENDBRANCH   1  16
BRANCH   6  19
ATOM     19  O   UNL     1      -3.866  -1.584   0.030  0.00  0.00    -0.418 OA
BRANCH  19  20
ATOM     20  C   UNL     1      -4.258  -1.029  -1.135  0.00  0.00    +0.353 C 
ATOM     21  O   UNL     1      -3.699  -1.334  -2.171  0.00  0.00    -0.244 OA
BRANCH  20  22
ATOM     22  C   UNL     1      -5.356  -0.058  -1.152  0.00  0.00    +0.116 A 
ATOM     23  C   UNL     1      -5.892   0.599  -2.218  0.00  0.00    +0.070 A 
ATOM     24  C   UNL     1      -6.954   1.501  -2.023  0.00  0.00    +0.008 A 
ATOM     25  C   UNL     1      -7.639   2.274  -2.996  0.00  0.00    +0.010 A 
ATOM     26  C   UNL     1      -8.652   3.104  -2.637  0.00  0.00    +0.001 A 
ATOM     27  C   UNL     1      -9.056   3.230  -1.313  0.00  0.00    +0.001 A 
ATOM     28  C   UNL     1      -8.417   2.496  -0.335  0.00  0.00    +0.016 A 
ATOM     29  C   UNL     1      -7.387   1.649  -0.684  0.00  0.00    +0.022 A 
ATOM     30  S   UNL     1      -6.326   0.548   0.218  0.00  0.00    -0.080 S 
ATOM     31 CL   UNL     1      -5.265   0.324  -3.813  0.00  0.00    -0.082 Cl
ENDBRANCH  20  22
ENDBRANCH  19  20
ENDBRANCH   6  19
TORSDOF 7
