REMARK  Name = ZINC67190230
REMARK  3 active torsions:
REMARK  status: ('A' for Active; 'I' for Inactive)
REMARK    1  A    between atoms: C_9  and  N_11
REMARK    2  A    between atoms: N_11  and  N_12
REMARK    3  A    between atoms: N_12  and  C_13
REMARK                            x       y       z     vdW  Elec       q    Type
REMARK                         _______ _______ _______ _____ _____    ______ ____
ROOT
ATOM      1  N   UNL     1       4.888  -3.962  -0.005  0.00  0.00    -0.272 N 
ATOM      2  H   UNL     1       4.075  -4.451   0.197  0.00  0.00    +0.169 HD
ENDROOT
BRANCH   1   3
ATOM      3  C   UNL     1       6.065  -4.613  -0.080  0.00  0.00    +0.106 C 
ATOM      4  C   UNL     1       6.100  -5.995   0.017  0.00  0.00    +0.116 C 
ATOM      5  C   UNL     1       7.370  -6.726   0.120  0.00  0.00    +0.276 C 
ATOM      6  O   UNL     1       8.548  -6.066   0.122  0.00  0.00    -0.268 OA
ATOM      7  N   UNL     1       7.334  -8.045   0.210  0.00  0.00    -0.154 NA
ATOM      8  C   UNL     1       6.189  -8.721   0.211  0.00  0.00    +0.164 C 
ATOM      9  S   UNL     1       6.256 -10.427   0.333  0.00  0.00    -0.016 S 
ATOM     10  N   UNL     1       4.984  -8.139   0.121  0.00  0.00    -0.262 N 
ATOM     11  C   UNL     1       4.863  -6.798   0.029  0.00  0.00    +0.256 C 
ATOM     12  O   UNL     1       3.769  -6.269  -0.048  0.00  0.00    -0.270 OA
ATOM     13  H   UNL     1       4.186  -8.691   0.128  0.00  0.00    +0.157 HD
ENDBRANCH   1   3
BRANCH   1  14
ATOM     14  N   UNL     1       4.839  -2.578  -0.220  0.00  0.00    -0.250 N 
ATOM     15  H   UNL     1       5.652  -2.089  -0.422  0.00  0.00    +0.171 HD
BRANCH  14  24
ATOM     16  C   UNL     1      -0.027   1.347  -0.107  0.00  0.00    +0.002 A 
ATOM     17  C   UNL     1       1.135   2.058  -0.398  0.00  0.00    +0.002 A 
ATOM     18  C   UNL     1       2.339   1.428  -0.480  0.00  0.00    +0.030 A 
ATOM     19  C   UNL     1       2.416   0.041  -0.270  0.00  0.00    +0.091 A 
ATOM     20  C   UNL     1       1.234  -0.683   0.026  0.00  0.00    +0.089 A 
ATOM     21  C   UNL     1       0.009   0.002   0.103  0.00  0.00    +0.030 A 
ATOM     22  N   UNL     1       1.298  -2.005   0.228  0.00  0.00    -0.250 NA
ATOM     23  C   UNL     1       2.452  -2.622   0.151  0.00  0.00    +0.156 A 
ATOM     24  C   UNL     1       3.627  -1.908  -0.142  0.00  0.00    +0.154 A 
ATOM     25  N   UNL     1       3.586  -0.604  -0.345  0.00  0.00    -0.228 NA
ENDBRANCH  14  24
ENDBRANCH   1  14
TORSDOF 3
