REMARK  Name = ZINC08797512
REMARK  15 active torsions:
REMARK  status: ('A' for Active; 'I' for Inactive)
REMARK    1  A    between atoms: C_1  and  C_2
REMARK    2  A    between atoms: C_2  and  N_3
REMARK    3  A    between atoms: C_5  and  C_34
REMARK    4  A    between atoms: N_12  and  C_13
REMARK    5  A    between atoms: C_13  and  C_15
REMARK    6  A    between atoms: C_18  and  S_21
REMARK    7  A    between atoms: S_21  and  N_24
REMARK    8  A    between atoms: N_24  and  C_25
REMARK    9  A    between atoms: N_24  and  C_29
REMARK   10  A    between atoms: C_25  and  C_26
REMARK   11  A    between atoms: C_26  and  O_27
REMARK   12  A    between atoms: O_27  and  C_28
REMARK   13  A    between atoms: C_29  and  C_30
REMARK   14  A    between atoms: C_30  and  O_31
REMARK   15  A    between atoms: O_31  and  C_32
REMARK                            x       y       z     vdW  Elec       q    Type
REMARK                         _______ _______ _______ _____ _____    ______ ____
ROOT
ATOM      1  C   UNL     1      -4.856   3.023  -0.994  0.00  0.00    +0.039 A 
ATOM      2  C   UNL     1      -4.435   2.563  -2.242  0.00  0.00    +0.015 A 
ATOM      3  C   UNL     1      -5.312   2.566  -3.307  0.00  0.00    +0.029 A 
ATOM      4  C   UNL     1      -6.604   3.032  -3.141  0.00  0.00    +0.106 A 
ATOM      5  C   UNL     1      -7.026   3.494  -1.907  0.00  0.00    +0.029 A 
ATOM      6  C   UNL     1      -6.159   3.492  -0.833  0.00  0.00    +0.015 A 
ENDROOT
BRANCH   4   7
ATOM      7  S   UNL     1      -7.717   3.039  -4.507  0.00  0.00    +0.061 S 
ATOM      8  O   UNL     1      -7.250   2.051  -5.416  0.00  0.00    -0.153 OA
ATOM      9  O   UNL     1      -9.029   3.015  -3.963  0.00  0.00    -0.153 OA
BRANCH   7  10
ATOM     10  N   UNL     1      -7.547   4.500  -5.269  0.00  0.00    -0.172 NA
BRANCH  10  11
ATOM     11  C   UNL     1      -6.566   4.655  -6.346  0.00  0.00    +0.137 C 
BRANCH  11  12
ATOM     12  C   UNL     1      -7.254   4.442  -7.697  0.00  0.00    +0.176 C 
BRANCH  12  13
ATOM     13  O   UNL     1      -8.216   5.478  -7.909  0.00  0.00    -0.382 OA
ATOM     14  C   UNL     1      -8.918   5.372  -9.149  0.00  0.00    +0.194 C 
ENDBRANCH  12  13
ENDBRANCH  11  12
ENDBRANCH  10  11
BRANCH  10  15
ATOM     15  C   UNL     1      -8.378   5.637  -4.866  0.00  0.00    +0.137 C 
BRANCH  15  16
ATOM     16  C   UNL     1      -7.617   6.491  -3.851  0.00  0.00    +0.176 C 
BRANCH  16  17
ATOM     17  O   UNL     1      -6.468   7.065  -4.478  0.00  0.00    -0.382 OA
ATOM     18  C   UNL     1      -5.682   7.886  -3.611  0.00  0.00    +0.194 C 
ENDBRANCH  16  17
ENDBRANCH  15  16
ENDBRANCH  10  15
ENDBRANCH   7  10
ENDBRANCH   4   7
BRANCH   1  19
ATOM     19  C   UNL     1      -3.920   3.018   0.154  0.00  0.00    +0.269 C 
ATOM     20  O   UNL     1      -4.289   3.424   1.242  0.00  0.00    -0.268 OA
BRANCH  19  30
ATOM     21  N   UNL     1      -0.537   2.147   1.059  0.00  0.00    -0.321 N 
ATOM     22  C   UNL     1       0.187   2.225   2.234  0.00  0.00    +0.062 A 
ATOM     23  C   UNL     1       1.522   1.854   2.460  0.00  0.00    -0.008 A 
ATOM     24  C   UNL     1       2.091   2.000   3.704  0.00  0.00    +0.046 A 
ATOM     25  C   UNL     1       1.369   2.516   4.768  0.00  0.00    +0.021 A 
ATOM     26  C   UNL     1       0.051   2.889   4.572  0.00  0.00    +0.018 A 
ATOM     27  C   UNL     1      -0.518   2.744   3.330  0.00  0.00    +0.039 A 
ATOM     28  S   UNL     1      -2.125   3.084   2.655  0.00  0.00    -0.052 S 
ATOM     29  C   UNL     1      -1.832   2.563   1.027  0.00  0.00    +0.167 A 
ATOM     30  N   UNL     1      -2.671   2.568  -0.003  0.00  0.00    -0.152 NA
ATOM     31 CL   UNL     1       3.746   1.531   3.944  0.00  0.00    -0.083 Cl
ATOM     32  C   UNL     1       2.340   1.289   1.328  0.00  0.00    +0.047 C 
BRANCH  21  34
ATOM     33  C   UNL     1      -0.647   2.155  -1.384  0.00  0.00    +0.027 C 
ATOM     34  C   UNL     1       0.092   1.622  -0.155  0.00  0.00    +0.121 C 
ENDBRANCH  21  34
ENDBRANCH  19  30
ENDBRANCH   1  19
TORSDOF 11
