REMARK  Name = ZINC22795386
REMARK  8 active torsions:
REMARK  status: ('A' for Active; 'I' for Inactive)
REMARK    1  A    between atoms: C_1  and  C_2
REMARK    2  A    between atoms: C_6  and  C_8
REMARK    3  A    between atoms: C_8  and  C_10
REMARK    4  A    between atoms: C_8  and  N_24
REMARK    5  A    between atoms: C_11  and  O_23
REMARK    6  A    between atoms: C_16  and  C_18
REMARK    7  A    between atoms: N_27  and  C_30
REMARK    8  A    between atoms: C_30  and  C_31
REMARK                            x       y       z     vdW  Elec       q    Type
REMARK                         _______ _______ _______ _____ _____    ______ ____
ROOT
ATOM      1  C   UNL     1       0.054  -2.845   2.489  0.00  0.00    +0.129 C 
ENDROOT
BRANCH   1   2
ATOM      2  C   UNL     1      -1.375  -3.246   2.753  0.00  0.00    +0.076 A 
ATOM      3  C   UNL     1      -2.205  -2.825   3.714  0.00  0.00    +0.228 A 
ATOM      4  N   UNL     1      -3.487  -3.311   3.795  0.00  0.00    -0.173 N 
ATOM      5  C   UNL     1      -3.865  -4.232   2.856  0.00  0.00    +0.200 A 
ATOM      6  S   UNL     1      -2.404  -4.401   1.860  0.00  0.00    -0.047 S 
ATOM      7  N   UNL     1      -5.100  -4.593   3.066  0.00  0.00    -0.197 NA
ATOM      8  C   UNL     1      -5.579  -3.936   4.132  0.00  0.00    +0.218 A 
ATOM      9  N   UNL     1      -4.639  -3.148   4.608  0.00  0.00    -0.138 NA
BRANCH   8  10
ATOM     10  C   UNL     1      -6.942  -4.075   4.684  0.00  0.00    +0.173 A 
ATOM     11  C   UNL     1      -7.918  -4.891   4.204  0.00  0.00    +0.053 A 
ATOM     12  C   UNL     1      -9.045  -4.705   5.029  0.00  0.00    +0.042 A 
ATOM     13  C   UNL     1      -8.705  -3.795   5.962  0.00  0.00    +0.196 A 
ATOM     14  O   UNL     1      -7.433  -3.421   5.754  0.00  0.00    -0.460 OA
ENDBRANCH   8  10
BRANCH   3  15
ATOM     15  O   UNL     1      -1.775  -1.907   4.621  0.00  0.00    -0.492 OA
ATOM     16  H   UNL     1      -2.440  -1.662   5.279  0.00  0.00    +0.294 HD
ENDBRANCH   3  15
ENDBRANCH   1   2
BRANCH   1  22
ATOM     17  C   UNL     1       0.580   1.389  -0.129  0.00  0.00    +0.044 C 
ATOM     18  C   UNL     1       0.390  -0.106  -0.088  0.00  0.00    -0.050 A 
ATOM     19  C   UNL     1       0.292  -0.822  -1.267  0.00  0.00    +0.003 A 
ATOM     20  C   UNL     1       0.117  -2.193  -1.230  0.00  0.00    +0.001 A 
ATOM     21  C   UNL     1       0.040  -2.847  -0.014  0.00  0.00    +0.005 A 
ATOM     22  C   UNL     1       0.138  -2.131   1.164  0.00  0.00    -0.025 A 
ATOM     23  C   UNL     1       0.318  -0.761   1.127  0.00  0.00    +0.009 A 
ENDBRANCH   1  22
BRANCH   1  24
ATOM     24  N   UNL     1       0.901  -4.044   2.454  0.00  0.00    -0.295 NA
ATOM     25  C   UNL     1       0.771  -4.817   3.697  0.00  0.00    +0.067 C 
ATOM     26  C   UNL     1       1.621  -6.085   3.597  0.00  0.00    -0.063 C 
ATOM     27  N   UNL     1       3.025  -5.718   3.373  0.00  0.00    +0.384 N 
ATOM     28  C   UNL     1       3.142  -4.968   2.115  0.00  0.00    -0.063 C 
ATOM     29  C   UNL     1       2.305  -3.690   2.203  0.00  0.00    +0.067 C 
ATOM     30  H   UNL     1       3.349  -5.144   4.137  0.00  0.00    -0.081 HD
BRANCH  27  31
ATOM     31  C   UNL     1       3.843  -6.936   3.294  0.00  0.00    -0.043 C 
BRANCH  31  32
ATOM     32  C   UNL     1       5.298  -6.557   3.187  0.00  0.00    -0.064 A 
ATOM     33  C   UNL     1       5.872  -6.363   1.945  0.00  0.00    +0.002 A 
ATOM     34  C   UNL     1       7.207  -6.016   1.846  0.00  0.00    +0.000 A 
ATOM     35  C   UNL     1       7.967  -5.863   2.991  0.00  0.00    +0.000 A 
ATOM     36  C   UNL     1       7.393  -6.056   4.233  0.00  0.00    +0.000 A 
ATOM     37  C   UNL     1       6.057  -6.399   4.332  0.00  0.00    +0.002 A 
ENDBRANCH  31  32
ENDBRANCH  27  31
ENDBRANCH   1  24
TORSDOF 7
