REMARK  Name = ZINC20219858
REMARK  15 active torsions:
REMARK  status: ('A' for Active; 'I' for Inactive)
REMARK    1  A    between atoms: C_1  and  C_2
REMARK    2  A    between atoms: C_2  and  N_3
REMARK    3  A    between atoms: N_3  and  C_4
REMARK    4  A    between atoms: N_3  and  C_6
REMARK    5  A    between atoms: C_4  and  C_5
REMARK    6  A    between atoms: C_6  and  C_7
REMARK    7  A    between atoms: C_7  and  N_8
REMARK    8  A    between atoms: C_9  and  C_29
REMARK    9  A    between atoms: C_11  and  C_16
REMARK   10  A    between atoms: C_16  and  C_18
REMARK   11  A    between atoms: C_24  and  O_27
REMARK   12  A    between atoms: O_27  and  C_28
REMARK   13  A    between atoms: C_32  and  O_35
REMARK   14  A    between atoms: O_35  and  C_36
REMARK   15  A    between atoms: C_36  and  C_37
REMARK                            x       y       z     vdW  Elec       q    Type
REMARK                         _______ _______ _______ _____ _____    ______ ____
ROOT
ATOM      1  N   UNL     1       1.026  -4.744  -0.979  0.00  0.00    -0.285 N 
ATOM      2  C   UNL     1       0.070  -4.234   0.011  0.00  0.00    +0.145 C 
ATOM      3  C   UNL     1       0.529  -4.763   1.350  0.00  0.00    +0.079 C 
ATOM      4  C   UNL     1       1.641  -5.499   1.119  0.00  0.00    +0.249 C 
ATOM      5  C   UNL     1       1.942  -5.483  -0.327  0.00  0.00    +0.288 C 
ATOM      6  O   UNL     1       2.879  -6.052  -0.851  0.00  0.00    -0.266 OA
ATOM      7  O   UNL     1       2.362  -6.148   2.063  0.00  0.00    -0.282 OA
ENDROOT
BRANCH   2   8
ATOM      8  C   UNL     1       0.083  -2.727   0.017  0.00  0.00    -0.022 A 
ATOM      9  C   UNL     1      -1.107  -2.026  -0.039  0.00  0.00    +0.009 A 
ATOM     10  C   UNL     1      -1.097  -0.645  -0.034  0.00  0.00    +0.046 A 
ATOM     11  C   UNL     1       0.108   0.039   0.026  0.00  0.00    +0.121 A 
ATOM     12  C   UNL     1       1.302  -0.667   0.077  0.00  0.00    +0.046 A 
ATOM     13  C   UNL     1       1.286  -2.048   0.077  0.00  0.00    +0.009 A 
BRANCH  11  14
ATOM     14  O   UNL     1       0.120   1.398   0.031  0.00  0.00    -0.492 OA
BRANCH  14  15
ATOM     15  C   UNL     1       1.398   2.035   0.095  0.00  0.00    +0.225 C 
ATOM     16  C   UNL     1       1.211   3.554   0.091  0.00  0.00    +0.048 C 
ENDBRANCH  14  15
ENDBRANCH  11  14
ENDBRANCH   2   8
BRANCH   3  17
ATOM     17  C   UNL     1      -0.106  -4.523   2.650  0.00  0.00    +0.230 C 
ATOM     18  O   UNL     1       0.481  -3.889   3.508  0.00  0.00    -0.283 OA
BRANCH  17  19
ATOM     19  C   UNL     1      -1.452  -5.048   2.918  0.00  0.00    +0.176 A 
ATOM     20  C   UNL     1      -2.179  -4.806   4.043  0.00  0.00    +0.062 A 
ATOM     21  C   UNL     1      -3.441  -5.523   3.872  0.00  0.00    +0.025 A 
ATOM     22  C   UNL     1      -4.590  -5.674   4.656  0.00  0.00    +0.012 A 
ATOM     23  C   UNL     1      -5.629  -6.432   4.198  0.00  0.00    +0.004 A 
ATOM     24  C   UNL     1      -5.554  -7.056   2.960  0.00  0.00    +0.049 A 
ATOM     25  C   UNL     1      -4.429  -6.921   2.169  0.00  0.00    +0.163 A 
ATOM     26  C   UNL     1      -3.356  -6.151   2.616  0.00  0.00    +0.177 A 
ATOM     27  O   UNL     1      -2.159  -5.837   2.082  0.00  0.00    -0.448 OA
BRANCH  25  28
ATOM     28  O   UNL     1      -4.368  -7.537   0.958  0.00  0.00    -0.491 OA
ATOM     29  C   UNL     1      -5.505  -8.309   0.565  0.00  0.00    +0.277 C 
ENDBRANCH  25  28
ENDBRANCH  17  19
ENDBRANCH   3  17
BRANCH   1  30
ATOM     30  C   UNL     1       0.989  -4.493  -2.422  0.00  0.00    +0.090 C 
BRANCH  30  31
ATOM     31  C   UNL     1       1.793  -3.231  -2.740  0.00  0.00    -0.060 C 
BRANCH  31  32
ATOM     32  N   UNL     1       1.756  -2.978  -4.187  0.00  0.00    +0.380 N 
ATOM     33  H   UNL     1       2.062  -3.903  -4.699  0.00  0.00    -0.082 HD
BRANCH  32  35
ATOM     34  C   UNL     1      -0.046  -1.333  -3.979  0.00  0.00    -0.017 C 
ATOM     35  C   UNL     1       0.395  -2.646  -4.629  0.00  0.00    -0.082 C 
ENDBRANCH  32  35
BRANCH  32  36
ATOM     36  C   UNL     1       2.704  -1.921  -4.561  0.00  0.00    -0.082 C 
ATOM     37  C   UNL     1       2.744  -1.788  -6.085  0.00  0.00    -0.017 C 
ENDBRANCH  32  36
ENDBRANCH  31  32
ENDBRANCH  30  31
ENDBRANCH   1  30
TORSDOF 11
