REMARK  Name = ZINC20835370
REMARK  7 active torsions:
REMARK  status: ('A' for Active; 'I' for Inactive)
REMARK    1  A    between atoms: C_1  and  C_2
REMARK    2  A    between atoms: C_5  and  C_21
REMARK    3  A    between atoms: C_6  and  N_8
REMARK    4  A    between atoms: N_8  and  C_9
REMARK    5  A    between atoms: C_9  and  N_11
REMARK    6  A    between atoms: N_11  and  C_12
REMARK    7  A    between atoms: C_15  and  N_19
REMARK                            x       y       z     vdW  Elec       q    Type
REMARK                         _______ _______ _______ _____ _____    ______ ____
ROOT
ATOM      1  N   UNL     1       2.439   1.041   0.219  0.00  0.00    -0.297 N 
ATOM      2  H   UNL     1       2.451  -0.051   0.086  0.00  0.00    +0.154 HD
ENDROOT
BRANCH   1   3
ATOM      3  C   UNL     1       1.232   1.702   0.486  0.00  0.00    +0.035 A 
ATOM      4  C   UNL     1       0.948   2.907  -0.142  0.00  0.00    +0.045 A 
ATOM      5  C   UNL     1      -0.240   3.561   0.125  0.00  0.00    +0.065 A 
ATOM      6  C   UNL     1      -1.154   3.007   1.012  0.00  0.00    +0.062 A 
ATOM      7  C   UNL     1      -0.869   1.801   1.640  0.00  0.00    +0.065 A 
ATOM      8  C   UNL     1       0.322   1.151   1.377  0.00  0.00    +0.045 A 
ATOM      9 CL   UNL     1      -2.007   1.112   2.754  0.00  0.00    -0.082 Cl
ATOM     10 CL   UNL     1      -0.593   5.072  -0.654  0.00  0.00    -0.082 Cl
BRANCH   6  11
ATOM     11  N   UNL     1      -2.361   3.667   1.278  0.00  0.00    -0.356 N 
ATOM     12  H   UNL     1      -3.084   3.228   1.981  0.00  0.00    +0.142 HD
ATOM     13  H   UNL     1      -2.585   4.624   0.784  0.00  0.00    +0.142 HD
ENDBRANCH   6  11
ENDBRANCH   1   3
BRANCH   1  14
ATOM     14  C   UNL     1       3.586   1.744   0.126  0.00  0.00    +0.139 C 
ATOM     15  S   UNL     1       3.592   3.421   0.470  0.00  0.00    -0.018 S 
BRANCH  14  16
ATOM     16  N   UNL     1       4.726   1.126  -0.239  0.00  0.00    -0.296 N 
ATOM     17  H   UNL     1       4.709   0.066  -0.531  0.00  0.00    +0.154 HD
BRANCH  16  23
ATOM     18  C   UNL     1       7.269   5.142  -1.495  0.00  0.00    +0.044 C 
ATOM     19  C   UNL     1       7.194   3.783  -0.849  0.00  0.00    -0.049 A 
ATOM     20  C   UNL     1       8.320   3.234  -0.263  0.00  0.00    +0.004 A 
ATOM     21  C   UNL     1       8.255   1.986   0.331  0.00  0.00    +0.005 A 
ATOM     22  C   UNL     1       7.064   1.288   0.345  0.00  0.00    -0.029 A 
ATOM     23  C   UNL     1       5.933   1.834  -0.247  0.00  0.00    +0.036 A 
ATOM     24  C   UNL     1       6.001   3.087  -0.843  0.00  0.00    +0.027 A 
ATOM     25  C   UNL     1       6.993  -0.069   0.998  0.00  0.00    +0.045 C 
ENDBRANCH  16  23
ENDBRANCH  14  16
ENDBRANCH   1  14
TORSDOF 5
