REMARK  Name = ZINC33071753
REMARK  4 active torsions:
REMARK  status: ('A' for Active; 'I' for Inactive)
REMARK    1  A    between atoms: C_7  and  C_11
REMARK    2  A    between atoms: C_11  and  C_12
REMARK    3  A    between atoms: C_12  and  N_13
REMARK    4  A    between atoms: C_14  and  C_16
REMARK                            x       y       z     vdW  Elec       q    Type
REMARK                         _______ _______ _______ _____ _____    ______ ____
ROOT
ATOM      1  C   UNL     1      -0.752   1.593  -1.232  0.00  0.00    +0.092 C 
ATOM      2  C   UNL     1      -0.788   3.123  -1.209  0.00  0.00    +0.016 C 
ATOM      3  C   UNL     1      -1.465   3.591   0.082  0.00  0.00    +0.020 C 
ATOM      4  C   UNL     1      -0.705   3.026   1.284  0.00  0.00    +0.108 C 
ATOM      5  N   UNL     1      -0.700   1.559   1.216  0.00  0.00    -0.302 N 
ATOM      6  C   UNL     1      -0.013   1.086   0.008  0.00  0.00    +0.120 C 
ATOM      7  C   UNL     1      -0.136   1.014   2.351  0.00  0.00    +0.174 A 
ATOM      8  N   UNL     1      -0.547   1.264   3.629  0.00  0.00    -0.327 N 
ATOM      9  H   UNL     1      -1.389   1.948   3.812  0.00  0.00    +0.169 HD
ATOM     10  C   UNL     1       0.268   0.529   4.474  0.00  0.00    +0.065 A 
ATOM     11  C   UNL     1       0.335   0.373   5.850  0.00  0.00    +0.028 A 
ATOM     12  C   UNL     1       1.294  -0.452   6.402  0.00  0.00    +0.002 A 
ATOM     13  C   UNL     1       2.192  -1.127   5.589  0.00  0.00    +0.002 A 
ATOM     14  C   UNL     1       2.140  -0.985   4.220  0.00  0.00    +0.028 A 
ATOM     15  C   UNL     1       1.175  -0.153   3.646  0.00  0.00    +0.065 A 
ATOM     16  N   UNL     1       0.877   0.184   2.363  0.00  0.00    -0.327 N 
ATOM     17  H   UNL     1       1.344  -0.128   1.418  0.00  0.00    +0.169 HD
ENDROOT
BRANCH   1  19
ATOM     18  N   UNL     1      -0.510   1.454  -3.690  0.00  0.00    -0.315 N 
ATOM     19  C   UNL     1      -0.035   1.125  -2.472  0.00  0.00    +0.218 C 
ATOM     20  O   UNL     1       0.969   0.452  -2.374  0.00  0.00    -0.275 OA
ATOM     21  H   UNL     1      -1.421   2.064  -3.779  0.00  0.00    +0.149 HD
BRANCH  18  22
ATOM     22  C   UNL     1       0.188   0.999  -4.895  0.00  0.00    +0.109 C 
BRANCH  22  23
ATOM     23  C   UNL     1      -0.552   1.506  -6.135  0.00  0.00    +0.056 C 
BRANCH  23  30
ATOM     24  C   UNL     1      -0.717  -2.458  -8.632  0.00  0.00    +0.001 A 
ATOM     25  C   UNL     1       0.140  -2.446  -9.723  0.00  0.00    +0.002 A 
ATOM     26  C   UNL     1       0.929  -1.347  -9.985  0.00  0.00    +0.026 A 
ATOM     27  C   UNL     1       0.868  -0.237  -9.147  0.00  0.00    +0.047 A 
ATOM     28  C   UNL     1      -0.003  -0.255  -8.043  0.00  0.00    +0.003 A 
ATOM     29  C   UNL     1      -0.793  -1.379  -7.796  0.00  0.00    +0.010 A 
ATOM     30  C   UNL     1       0.165   1.038  -7.375  0.00  0.00    -0.021 A 
ATOM     31  C   UNL     1       1.074   1.729  -8.080  0.00  0.00    +0.087 A 
ATOM     32  N   UNL     1       1.510   0.981  -9.139  0.00  0.00    -0.360 N 
ATOM     33  H   UNL     1       2.249   1.218  -9.918  0.00  0.00    +0.165 HD
ENDBRANCH  23  30
ENDBRANCH  22  23
ENDBRANCH  18  22
ENDBRANCH   1  19
TORSDOF 4
