REMARK  Name = ZINC60199519
REMARK  9 active torsions:
REMARK  status: ('A' for Active; 'I' for Inactive)
REMARK    1  A    between atoms: C_1  and  C_2
REMARK    2  A    between atoms: C_7  and  C_9
REMARK    3  A    between atoms: C_7  and  C_10
REMARK    4  A    between atoms: N_13  and  C_17
REMARK    5  A    between atoms: C_17  and  C_18
REMARK    6  A    between atoms: N_20  and  C_21
REMARK    7  A    between atoms: C_21  and  C_23
REMARK    8  A    between atoms: C_21  and  C_24
REMARK    9  A    between atoms: C_28  and  C_30
REMARK                            x       y       z     vdW  Elec       q    Type
REMARK                         _______ _______ _______ _____ _____    ______ ____
ROOT
ATOM      1  C   UNL     1      -2.295  -3.328  -4.359  0.00  0.00    +0.232 C 
ATOM      2  O   UNL     1      -1.953  -2.188  -4.591  0.00  0.00    -0.274 OA
ATOM      3  N   UNL     1      -3.321  -3.876  -5.040  0.00  0.00    -0.305 N 
ATOM      4  H   UNL     1      -3.595  -4.788  -4.855  0.00  0.00    +0.149 HD
ENDROOT
BRANCH   3   5
ATOM      5  C   UNL     1      -4.024  -3.093  -6.060  0.00  0.00    +0.134 C 
ATOM      6  C   UNL     1      -3.276  -3.201  -7.390  0.00  0.00    +0.036 C 
BRANCH   5   7
ATOM      7  C   UNL     1      -5.423  -3.626  -6.226  0.00  0.00    +0.105 A 
ATOM      8  N   UNL     1      -5.804  -4.907  -6.029  0.00  0.00    -0.348 N 
ATOM      9  H   UNL     1      -5.230  -5.641  -5.758  0.00  0.00    +0.167 HD
ATOM     10  C   UNL     1      -7.145  -4.980  -6.281  0.00  0.00    +0.110 A 
ATOM     11  C   UNL     1      -7.545  -3.728  -6.628  0.00  0.00    +0.064 A 
ATOM     12  N   UNL     1      -6.464  -2.924  -6.577  0.00  0.00    -0.342 N 
ATOM     13  H   UNL     1      -6.461  -1.974  -6.774  0.00  0.00    +0.167 HD
BRANCH  11  14
ATOM     14  C   UNL     1      -8.925  -3.320  -6.990  0.00  0.00    -0.000 A 
ATOM     15  C   UNL     1      -9.194  -1.996  -7.333  0.00  0.00    +0.010 A 
ATOM     16  C   UNL     1     -10.479  -1.621  -7.669  0.00  0.00    +0.001 A 
ATOM     17  C   UNL     1     -11.498  -2.556  -7.666  0.00  0.00    +0.000 A 
ATOM     18  C   UNL     1     -11.236  -3.871  -7.327  0.00  0.00    +0.001 A 
ATOM     19  C   UNL     1      -9.954  -4.259  -6.995  0.00  0.00    +0.010 A 
ENDBRANCH  11  14
ENDBRANCH   5   7
ENDBRANCH   3   5
BRANCH   1  20
ATOM     20  C   UNL     1      -1.572  -4.133  -3.310  0.00  0.00    +0.213 C 
BRANCH  20  32
ATOM     21  C   UNL     1      -0.019   1.528   0.010  0.00  0.00    +0.007 C 
ATOM     22  C   UNL     1       0.002  -0.004   0.002  0.00  0.00    -0.011 C 
ATOM     23  C   UNL     1       0.727  -0.492  -1.254  0.00  0.00    +0.038 C 
ATOM     24  C   UNL     1       0.711  -2.014  -1.298  0.00  0.00    +0.113 C 
ATOM     25  C   UNL     1       1.263  -2.646  -0.036  0.00  0.00    +0.041 C 
ATOM     26  C   UNL     1       0.787  -2.030   1.268  0.00  0.00    -0.032 C 
ATOM     27  C   UNL     1       0.763  -0.507   1.227  0.00  0.00    +0.009 C 
ATOM     28  C   UNL     1       1.769  -2.455   2.382  0.00  0.00    +0.011 C 
ATOM     29  C   UNL     1      -0.596  -2.567   1.648  0.00  0.00    +0.011 C 
ATOM     30  C   UNL     1      -0.666  -2.529  -1.638  0.00  0.00    +0.247 C 
ATOM     31  O   UNL     1      -1.717  -2.280  -1.086  0.00  0.00    -0.273 OA
ATOM     32  N   UNL     1      -0.505  -3.321  -2.720  0.00  0.00    -0.215 N 
ATOM     33  C   UNL     1       0.748  -3.270  -3.183  0.00  0.00    +0.310 C 
ATOM     34  O   UNL     1       1.136  -3.886  -4.157  0.00  0.00    -0.252 OA
ATOM     35  N   UNL     1       1.531  -2.463  -2.446  0.00  0.00    -0.285 N 
ATOM     36  H   UNL     1       2.451  -2.215  -2.619  0.00  0.00    +0.151 HD
ENDBRANCH  20  32
ENDBRANCH   1  20
TORSDOF 5
