REMARK  Name = ZINC40959913
REMARK  13 active torsions:
REMARK  status: ('A' for Active; 'I' for Inactive)
REMARK    1  A    between atoms: C_1  and  C_2
REMARK    2  A    between atoms: C_2  and  C_3
REMARK    3  A    between atoms: C_8  and  O_9
REMARK    4  A    between atoms: O_9  and  C_10
REMARK    5  A    between atoms: C_10  and  C_11
REMARK    6  A    between atoms: N_13  and  N_14
REMARK    7  A    between atoms: C_15  and  C_16
REMARK    8  A    between atoms: C_19  and  O_24
REMARK    9  A    between atoms: C_20  and  O_22
REMARK   10  A    between atoms: O_22  and  C_23
REMARK   11  A    between atoms: O_24  and  C_25
REMARK   12  A    between atoms: C_25  and  C_26
REMARK   13  A    between atoms: C_31  and  C_32
REMARK                            x       y       z     vdW  Elec       q    Type
REMARK                         _______ _______ _______ _____ _____    ______ ____
ROOT
ATOM      1  N   UNL     1       6.771   0.308   2.454  0.00  0.00    -0.188 NA
ATOM      2  C   UNL     1       8.060   0.258   2.602  0.00  0.00    +0.138 C 
ENDROOT
BRANCH   2   3
ATOM      3  C   UNL     1       8.671   0.653   3.884  0.00  0.00    -0.002 A 
ATOM      4  C   UNL     1       7.864   1.078   4.943  0.00  0.00    +0.013 A 
ATOM      5  C   UNL     1       8.437   1.448   6.141  0.00  0.00    +0.050 A 
ATOM      6  C   UNL     1       9.814   1.400   6.299  0.00  0.00    +0.162 A 
ATOM      7  C   UNL     1      10.625   0.978   5.248  0.00  0.00    +0.162 A 
ATOM      8  C   UNL     1      10.057   0.600   4.045  0.00  0.00    +0.059 A 
BRANCH   7   9
ATOM      9  O   UNL     1      11.975   0.933   5.406  0.00  0.00    -0.491 OA
ATOM     10  C   UNL     1      12.745   0.490   4.287  0.00  0.00    +0.277 C 
ENDBRANCH   7   9
BRANCH   6  11
ATOM     11  O   UNL     1      10.374   1.767   7.482  0.00  0.00    -0.484 OA
BRANCH  11  12
ATOM     12  C   UNL     1       9.485   2.190   8.517  0.00  0.00    +0.265 C 
BRANCH  12  13
ATOM     13  C   UNL     1      10.279   2.554   9.745  0.00  0.00    -0.007 A 
ATOM     14  C   UNL     1      11.658   2.453   9.731  0.00  0.00    +0.007 A 
ATOM     15  C   UNL     1      12.387   2.787  10.856  0.00  0.00    +0.000 A 
ATOM     16  C   UNL     1      11.738   3.223  11.996  0.00  0.00    +0.000 A 
ATOM     17  C   UNL     1      10.359   3.325  12.010  0.00  0.00    +0.004 A 
ATOM     18  C   UNL     1       9.630   2.995  10.883  0.00  0.00    -0.044 A 
ATOM     19  C   UNL     1       8.128   3.111  10.896  0.00  0.00    +0.044 C 
ENDBRANCH  12  13
ENDBRANCH  11  12
ENDBRANCH   6  11
ENDBRANCH   2   3
BRANCH   1  22
ATOM     20  C   UNL     1       4.853  -0.015   1.081  0.00  0.00    +0.270 C 
ATOM     21  O   UNL     1       4.151   0.358   1.998  0.00  0.00    -0.270 OA
ATOM     22  N   UNL     1       6.191  -0.068   1.235  0.00  0.00    -0.204 N 
ATOM     23  H   UNL     1       6.752  -0.366   0.502  0.00  0.00    +0.177 HD
BRANCH  20  24
ATOM     24  C   UNL     1       4.229  -0.420  -0.229  0.00  0.00    +0.326 C 
BRANCH  24  25
ATOM     25  O   UNL     1       2.809  -0.278  -0.144  0.00  0.00    -0.482 OA
BRANCH  25  31
ATOM     26  C   UNL     1       0.707  -0.490  -1.238  0.00  0.00    -0.005 A 
ATOM     27  C   UNL     1      -0.022  -0.817  -2.365  0.00  0.00    +0.022 A 
ATOM     28  C   UNL     1       0.625  -1.263  -3.503  0.00  0.00    +0.018 A 
ATOM     29  C   UNL     1       2.003  -1.383  -3.516  0.00  0.00    +0.019 A 
ATOM     30  C   UNL     1       2.736  -1.057  -2.392  0.00  0.00    +0.047 A 
ATOM     31  C   UNL     1       2.090  -0.604  -1.250  0.00  0.00    +0.124 A 
ATOM     32 BR   UNL     1      -0.376  -1.711  -5.044  0.00  0.00    -0.050 Br
BRANCH  26  34
ATOM     33  C   UNL     1      -0.019   1.526   0.010  0.00  0.00    +0.009 C 
ATOM     34  C   UNL     1       0.002  -0.004   0.002  0.00  0.00    +0.035 C 
ENDBRANCH  26  34
ENDBRANCH  25  31
ENDBRANCH  24  25
ENDBRANCH  20  24
ENDBRANCH   1  22
TORSDOF 10
