REMARK  Name = ZINC39673510
REMARK  8 active torsions:
REMARK  status: ('A' for Active; 'I' for Inactive)
REMARK    1  A    between atoms: C_1  and  C_2
REMARK    2  A    between atoms: C_2  and  C_3
REMARK    3  A    between atoms: C_3  and  C_4
REMARK    4  A    between atoms: C_4  and  C_6
REMARK    5  A    between atoms: C_4  and  N_7
REMARK    6  A    between atoms: C_8  and  C_10
REMARK    7  A    between atoms: C_21  and  C_23
REMARK    8  A    between atoms: C_26  and  C_29
REMARK                            x       y       z     vdW  Elec       q    Type
REMARK                         _______ _______ _______ _____ _____    ______ ____
ROOT
ATOM      1  C   UNL     1       2.267  -4.467   0.919  0.00  0.00    +0.100 C 
ATOM      2  C   UNL     1       3.804  -4.555   0.784  0.00  0.00    +0.121 C 
ATOM      3  N   UNL     1       4.180  -5.758   1.563  0.00  0.00    -0.296 N 
ATOM      4  C   UNL     1       3.110  -6.740   1.266  0.00  0.00    +0.115 C 
ATOM      5  C   UNL     1       1.815  -5.903   1.236  0.00  0.00    -0.004 C 
ATOM      6  C   UNL     1       1.123  -5.952   2.594  0.00  0.00    -0.010 C 
ATOM      7  C   UNL     1       0.633  -7.378   2.861  0.00  0.00    -0.082 C 
ATOM      8  N   UNL     1      -0.297  -7.784   1.800  0.00  0.00    +0.379 N 
ATOM      9  C   UNL     1       0.401  -7.823   0.509  0.00  0.00    -0.082 C 
ATOM     10  C   UNL     1       0.882  -6.416   0.143  0.00  0.00    -0.010 C 
ATOM     11  C   UNL     1       5.253  -5.922   2.362  0.00  0.00    +0.247 C 
ATOM     12  O   UNL     1       5.988  -4.982   2.594  0.00  0.00    -0.270 OA
ATOM     13  H   UNL     1      -0.665  -8.699   2.009  0.00  0.00    -0.086 HD
ATOM     14  H   UNL     1      -1.057  -7.122   1.749  0.00  0.00    -0.086 HD
ENDROOT
BRANCH  11  15
ATOM     15  C   UNL     1       5.536  -7.246   2.957  0.00  0.00    +0.037 A 
ATOM     16  C   UNL     1       5.009  -8.402   2.379  0.00  0.00    +0.013 A 
ATOM     17  C   UNL     1       5.277  -9.634   2.938  0.00  0.00    +0.013 A 
ATOM     18  C   UNL     1       6.067  -9.725   4.071  0.00  0.00    +0.055 A 
ATOM     19  C   UNL     1       6.592  -8.584   4.649  0.00  0.00    +0.013 A 
ATOM     20  C   UNL     1       6.337  -7.346   4.096  0.00  0.00    +0.013 A 
BRANCH  18  21
ATOM     21  C   UNL     1       6.355 -11.074   4.677  0.00  0.00    +0.417 C 
ATOM     22  F   UNL     1       7.519 -11.603   4.107  0.00  0.00    -0.166 F 
ATOM     23  F   UNL     1       6.534 -10.937   6.058  0.00  0.00    -0.166 F 
ATOM     24  F   UNL     1       5.282 -11.936   4.429  0.00  0.00    -0.166 F 
ENDBRANCH  18  21
ENDBRANCH  11  15
BRANCH   1  26
ATOM     25  N   UNL     1       0.496  -3.304  -0.357  0.00  0.00    -0.312 N 
ATOM     26  C   UNL     1       1.653  -3.996  -0.373  0.00  0.00    +0.218 C 
ATOM     27  O   UNL     1       2.199  -4.240  -1.429  0.00  0.00    -0.275 OA
ATOM     28  H   UNL     1       0.060  -3.109   0.487  0.00  0.00    +0.149 HD
BRANCH  25  29
ATOM     29  C   UNL     1      -0.101  -2.846  -1.614  0.00  0.00    +0.070 C 
ATOM     30  C   UNL     1       0.523  -1.509  -2.018  0.00  0.00    +0.028 C 
BRANCH  29  31
ATOM     31  C   UNL     1      -1.609  -2.669  -1.427  0.00  0.00    +0.022 C 
BRANCH  31  33
ATOM     32  C   UNL     1      -3.760  -3.852  -0.958  0.00  0.00    +0.004 C 
ATOM     33  C   UNL     1      -2.252  -4.029  -1.145  0.00  0.00    -0.002 C 
ENDBRANCH  31  33
ENDBRANCH  29  31
ENDBRANCH  25  29
ENDBRANCH   1  26
TORSDOF 6
