REMARK  Name = ZINC10065881
REMARK  10 active torsions:
REMARK  status: ('A' for Active; 'I' for Inactive)
REMARK    1  A    between atoms: C_1  and  N_60
REMARK    2  A    between atoms: C_2  and  N_60
REMARK    3  A    between atoms: C_3  and  C_4
REMARK    4  A    between atoms: C_3  and  N_60
REMARK    5  A    between atoms: C_4  and  N_5
REMARK    6  A    between atoms: C_16  and  C_18
REMARK    7  A    between atoms: C_21  and  S_24
REMARK    8  A    between atoms: S_24  and  N_27
REMARK    9  A    between atoms: N_27  and  C_28
REMARK   10  A    between atoms: N_27  and  C_29
REMARK                            x       y       z     vdW  Elec       q    Type
REMARK                         _______ _______ _______ _____ _____    ______ ____
ROOT
ATOM      1  N   UNL     1       4.383   0.560  -0.811  0.00  0.00    -0.248 N 
ATOM      2  C   UNL     1       3.117   0.974  -0.433  0.00  0.00    +0.168 A 
ATOM      3  N   UNL     1       2.070   0.244  -0.128  0.00  0.00    -0.221 NA
ATOM      4  C   UNL     1       0.885   0.788   0.228  0.00  0.00    +0.115 A 
ATOM      5  C   UNL     1      -0.313   0.119   0.579  0.00  0.00    +0.150 A 
ATOM      6  C   UNL     1      -1.438   0.830   0.917  0.00  0.00    +0.040 A 
ATOM      7  C   UNL     1      -1.442   2.217   0.929  0.00  0.00    +0.004 A 
ATOM      8  C   UNL     1      -0.288   2.901   0.597  0.00  0.00    +0.017 A 
ATOM      9  C   UNL     1       0.841   2.200   0.251  0.00  0.00    +0.044 A 
ATOM     10  S   UNL     1       2.493   2.637  -0.235  0.00  0.00    -0.052 S 
ATOM     11  F   UNL     1      -0.350  -1.231   0.579  0.00  0.00    -0.203 F 
ATOM     12  C   UNL     1       4.663  -0.755  -0.904  0.00  0.00    +0.252 C 
ATOM     13  O   UNL     1       3.828  -1.578  -0.583  0.00  0.00    -0.270 OA
ENDROOT
BRANCH  12  14
ATOM     14  C   UNL     1       5.984  -1.196  -1.397  0.00  0.00    +0.037 A 
ATOM     15  C   UNL     1       7.150  -0.614  -0.895  0.00  0.00    +0.015 A 
ATOM     16  C   UNL     1       8.381  -1.035  -1.354  0.00  0.00    +0.029 A 
ATOM     17  C   UNL     1       8.461  -2.024  -2.319  0.00  0.00    +0.109 A 
ATOM     18  C   UNL     1       7.310  -2.601  -2.825  0.00  0.00    +0.029 A 
ATOM     19  C   UNL     1       6.073  -2.193  -2.370  0.00  0.00    +0.015 A 
BRANCH  17  20
ATOM     20  S   UNL     1      10.037  -2.551  -2.905  0.00  0.00    +0.074 S 
ATOM     21  O   UNL     1      10.974  -2.244  -1.883  0.00  0.00    -0.150 OA
ATOM     22  O   UNL     1       9.863  -3.868  -3.409  0.00  0.00    -0.150 OA
BRANCH  20  23
ATOM     23  N   UNL     1      10.421  -1.595  -4.202  0.00  0.00    -0.206 N 
ATOM     24  C   UNL     1      11.046  -0.287  -3.988  0.00  0.00    +0.157 C 
BRANCH  23  25
ATOM     25  C   UNL     1      10.150  -2.036  -5.499  0.00  0.00    +0.051 A 
ATOM     26  C   UNL     1      10.749  -3.193  -5.980  0.00  0.00    +0.025 A 
ATOM     27  C   UNL     1      10.475  -3.629  -7.262  0.00  0.00    +0.002 A 
ATOM     28  C   UNL     1       9.614  -2.909  -8.070  0.00  0.00    +0.000 A 
ATOM     29  C   UNL     1       9.021  -1.754  -7.596  0.00  0.00    +0.002 A 
ATOM     30  C   UNL     1       9.286  -1.315  -6.313  0.00  0.00    +0.025 A 
ENDBRANCH  23  25
ENDBRANCH  20  23
ENDBRANCH  17  20
ENDBRANCH  12  14
BRANCH   1  31
ATOM     31  C   UNL     1       5.419   1.552  -1.111  0.00  0.00    +0.097 C 
BRANCH  31  32
ATOM     32  C   UNL     1       6.019   2.073   0.196  0.00  0.00    -0.060 C 
BRANCH  32  35
ATOM     33  C   UNL     1       6.691   4.181  -0.788  0.00  0.00    -0.097 C 
ATOM     34  C   UNL     1       7.897   3.295   1.116  0.00  0.00    -0.097 C 
ATOM     35  N   UNL     1       7.166   2.950  -0.122  0.00  0.00    +0.377 N 
ATOM     36  H   UNL     1       7.801   2.451  -0.756  0.00  0.00    -0.083 HD
ENDBRANCH  32  35
ENDBRANCH  31  32
ENDBRANCH   1  31
TORSDOF 7
