REMARK  Name = ZINC13064696
REMARK  12 active torsions:
REMARK  status: ('A' for Active; 'I' for Inactive)
REMARK    1  A    between atoms: C_1  and  C_2
REMARK    2  A    between atoms: C_2  and  C_3
REMARK    3  A    between atoms: C_3  and  C_5
REMARK    4  A    between atoms: C_3  and  N_66
REMARK    5  A    between atoms: N_9  and  C_10
REMARK    6  A    between atoms: C_10  and  C_11
REMARK    7  A    between atoms: C_18  and  C_19
REMARK    8  A    between atoms: C_18  and  N_66
REMARK    9  A    between atoms: C_24  and  C_25
REMARK   10  A    between atoms: C_24  and  N_66
REMARK   11  A    between atoms: C_29  and  C_38
REMARK   12  A    between atoms: C_30  and  C_37
REMARK                            x       y       z     vdW  Elec       q    Type
REMARK                         _______ _______ _______ _____ _____    ______ ____
ROOT
ATOM      1  N   UNL     1      -1.461  -1.810   1.558  0.00  0.00    +0.392 N 
ATOM      2  H   UNL     1      -1.303  -1.633   2.557  0.00  0.00    -0.080 HD
ENDROOT
BRANCH   1   3
ATOM      3  C   UNL     1      -1.426  -0.524   0.830  0.00  0.00    +0.003 C 
BRANCH   3   4
ATOM      4  C   UNL     1      -0.473   0.403   1.540  0.00  0.00    +0.138 A 
ATOM      5  N   UNL     1       0.433   0.066   2.426  0.00  0.00    -0.115 NA
ATOM      6  N   UNL     1       1.042   1.138   2.799  0.00  0.00    -0.023 NA
ATOM      7  N   UNL     1       0.548   2.150   2.175  0.00  0.00    -0.044 NA
ATOM      8  N   UNL     1      -0.389   1.738   1.389  0.00  0.00    -0.226 N 
BRANCH   8   9
ATOM      9  C   UNL     1      -1.203   2.566   0.497  0.00  0.00    +0.182 C 
BRANCH   9  10
ATOM     10  C   UNL     1      -2.438   3.028   1.227  0.00  0.00    -0.026 A 
ATOM     11  C   UNL     1      -3.590   2.266   1.185  0.00  0.00    +0.008 A 
ATOM     12  C   UNL     1      -4.722   2.686   1.858  0.00  0.00    +0.038 A 
ATOM     13  C   UNL     1      -4.703   3.876   2.566  0.00  0.00    +0.123 A 
ATOM     14  C   UNL     1      -3.550   4.641   2.603  0.00  0.00    +0.038 A 
ATOM     15  C   UNL     1      -2.418   4.216   1.933  0.00  0.00    +0.008 A 
ATOM     16  F   UNL     1      -5.810   4.290   3.221  0.00  0.00    -0.205 F 
ENDBRANCH   9  10
ENDBRANCH   8   9
ENDBRANCH   3   4
BRANCH   3  18
ATOM     17  C   UNL     1      -1.986  -1.572  -1.367  0.00  0.00    +0.002 C 
ATOM     18  C   UNL     1      -0.952  -0.738  -0.608  0.00  0.00    -0.011 C 
ENDBRANCH   3  18
ENDBRANCH   1   3
BRANCH   1  19
ATOM     19  C   UNL     1      -0.398  -2.705   1.055  0.00  0.00    -0.034 C 
BRANCH  19  20
ATOM     20  C   UNL     1       0.938  -2.172   1.508  0.00  0.00    -0.027 A 
ATOM     21  C   UNL     1       1.583  -2.372   2.683  0.00  0.00    +0.009 A 
ATOM     22  C   UNL     1       2.814  -1.777   2.882  0.00  0.00    +0.008 A 
ATOM     23  C   UNL     1       3.341  -1.012   1.895  0.00  0.00    +0.045 A 
ATOM     24  S   UNL     1       2.084  -1.121   0.632  0.00  0.00    -0.103 S 
ENDBRANCH  19  20
ENDBRANCH   1  19
BRANCH   1  25
ATOM     25  C   UNL     1      -2.782  -2.451   1.387  0.00  0.00    -0.036 C 
BRANCH  25  26
ATOM     26  C   UNL     1      -2.936  -3.529   2.430  0.00  0.00    +0.001 A 
ATOM     27  C   UNL     1      -3.551  -3.249   3.605  0.00  0.00    +0.017 A 
ATOM     28  C   UNL     1      -3.688  -4.319   4.595  0.00  0.00    -0.001 A 
ATOM     29  C   UNL     1      -4.318  -4.093   5.823  0.00  0.00    +0.013 A 
ATOM     30  C   UNL     1      -4.425  -5.112   6.727  0.00  0.00    -0.047 A 
ATOM     31  C   UNL     1      -3.914  -6.370   6.438  0.00  0.00    -0.046 A 
ATOM     32  C   UNL     1      -3.289  -6.615   5.234  0.00  0.00    +0.030 A 
ATOM     33  C   UNL     1      -3.168  -5.593   4.298  0.00  0.00    +0.049 A 
ATOM     34  N   UNL     1      -2.549  -5.811   3.086  0.00  0.00    -0.322 N 
ATOM     35  H   UNL     1      -2.192  -6.690   2.882  0.00  0.00    +0.169 HD
ATOM     36  C   UNL     1      -2.433  -4.824   2.181  0.00  0.00    +0.251 A 
ATOM     37  O   UNL     1      -1.879  -5.052   1.119  0.00  0.00    -0.268 OA
ATOM     38  C   UNL     1      -4.043  -7.478   7.450  0.00  0.00    +0.044 C 
ATOM     39  C   UNL     1      -5.103  -4.867   8.050  0.00  0.00    +0.044 C 
ENDBRANCH  25  26
ENDBRANCH   1  25
TORSDOF 9
