REMARK  Name = ZINC12935391
REMARK  8 active torsions:
REMARK  status: ('A' for Active; 'I' for Inactive)
REMARK    1  A    between atoms: C_1  and  C_2
REMARK    2  A    between atoms: C_7  and  C_8
REMARK    3  A    between atoms: C_8  and  C_10
REMARK    4  A    between atoms: C_8  and  N_11
REMARK    5  A    between atoms: N_14  and  C_15
REMARK    6  A    between atoms: C_15  and  C_16
REMARK    7  A    between atoms: C_19  and  S_22
REMARK    8  A    between atoms: S_22  and  N_25
REMARK                            x       y       z     vdW  Elec       q    Type
REMARK                         _______ _______ _______ _____ _____    ______ ____
ROOT
ATOM      1  C   UNL     1      -1.290   1.681   0.017  0.00  0.00    +0.141 C 
ENDROOT
BRANCH   1   5
ATOM      2  N   UNL     1       2.323   0.998  -0.015  0.00  0.00    -0.293 N 
ATOM      3  C   UNL     1       1.147   1.655   0.000  0.00  0.00    +0.300 C 
ATOM      4  O   UNL     1       1.130   2.871   0.007  0.00  0.00    -0.253 OA
ATOM      5  N   UNL     1      -0.011   0.966   0.007  0.00  0.00    -0.295 N 
ATOM      6  H   UNL     1       2.336   0.028  -0.020  0.00  0.00    +0.151 HD
ATOM      7  H   UNL     1       0.002  -0.004   0.002  0.00  0.00    +0.151 HD
BRANCH   2   8
ATOM      8  C   UNL     1       3.582   1.747  -0.023  0.00  0.00    +0.102 C 
ATOM      9  C   UNL     1       3.942   2.124  -1.461  0.00  0.00    +0.033 C 
BRANCH   8  16
ATOM     10  C   UNL     1       5.902   2.993   1.166  0.00  0.00    +0.044 C 
ATOM     11  C   UNL     1       5.788   1.491   1.131  0.00  0.00    -0.046 A 
ATOM     12  C   UNL     1       6.791   0.709   1.672  0.00  0.00    +0.004 A 
ATOM     13  C   UNL     1       6.689  -0.669   1.636  0.00  0.00    +0.000 A 
ATOM     14  C   UNL     1       5.581  -1.265   1.063  0.00  0.00    +0.000 A 
ATOM     15  C   UNL     1       4.576  -0.483   0.526  0.00  0.00    +0.006 A 
ATOM     16  C   UNL     1       4.678   0.895   0.563  0.00  0.00    -0.025 A 
ENDBRANCH   8  16
ENDBRANCH   2   8
ENDBRANCH   1   5
BRANCH   1  17
ATOM     17  C   UNL     1      -2.422   0.686   0.017  0.00  0.00    -0.030 A 
ATOM     18  C   UNL     1      -2.950   0.241  -1.180  0.00  0.00    +0.007 A 
ATOM     19  C   UNL     1      -3.986  -0.675  -1.180  0.00  0.00    +0.029 A 
ATOM     20  C   UNL     1      -4.499  -1.138   0.017  0.00  0.00    +0.105 A 
ATOM     21  C   UNL     1      -3.974  -0.689   1.214  0.00  0.00    +0.029 A 
ATOM     22  C   UNL     1      -2.935   0.224   1.214  0.00  0.00    +0.007 A 
BRANCH  20  23
ATOM     23  S   UNL     1      -5.822  -2.302   0.017  0.00  0.00    +0.061 S 
ATOM     24  O   UNL     1      -5.769  -2.977  -1.232  0.00  0.00    -0.153 OA
ATOM     25  O   UNL     1      -5.757  -2.991   1.258  0.00  0.00    -0.153 OA
BRANCH  23  26
ATOM     26  N   UNL     1      -7.234  -1.437   0.029  0.00  0.00    -0.177 NA
ATOM     27  C   UNL     1      -7.869  -1.059   1.299  0.00  0.00    +0.109 C 
ATOM     28  C   UNL     1      -8.103   0.459   1.295  0.00  0.00    +0.017 C 
ATOM     29  C   UNL     1      -8.908   0.842   0.051  0.00  0.00    +0.003 C 
ATOM     30  C   UNL     1      -8.116   0.474  -1.205  0.00  0.00    +0.017 C 
ATOM     31  C   UNL     1      -7.879  -1.039  -1.229  0.00  0.00    +0.109 C 
ENDBRANCH  23  26
ENDBRANCH  20  23
ENDBRANCH   1  17
TORSDOF 6
