REMARK  Name = ZINC13499099
REMARK  13 active torsions:
REMARK  status: ('A' for Active; 'I' for Inactive)
REMARK    1  A    between atoms: C_1  and  C_2
REMARK    2  A    between atoms: C_4  and  C_38
REMARK    3  A    between atoms: C_7  and  C_14
REMARK    4  A    between atoms: C_14  and  N_75
REMARK    5  A    between atoms: C_15  and  N_75
REMARK    6  A    between atoms: C_20  and  C_22
REMARK    7  A    between atoms: C_20  and  C_35
REMARK    8  A    between atoms: C_20  and  N_75
REMARK    9  A    between atoms: N_26  and  C_27
REMARK   10  A    between atoms: C_27  and  C_28
REMARK   11  A    between atoms: C_28  and  C_29
REMARK   12  A    between atoms: C_35  and  C_36
REMARK   13  A    between atoms: C_35  and  C_37
REMARK                            x       y       z     vdW  Elec       q    Type
REMARK                         _______ _______ _______ _____ _____    ______ ____
ROOT
ATOM      1  N   UNL     1       0.512  -0.399   2.663  0.00  0.00    +0.391 N 
ATOM      2  H   UNL     1      -0.504  -0.343   2.525  0.00  0.00    -0.080 HD
ENDROOT
BRANCH   1   3
ATOM      3  C   UNL     1       0.797  -1.363   3.747  0.00  0.00    -0.067 C 
ATOM      4  C   UNL     1       2.287  -1.325   4.145  0.00  0.00    -0.015 C 
ATOM      5  C   UNL     1       2.635  -2.804   4.452  0.00  0.00    -0.002 C 
ATOM      6  C   UNL     1       1.832  -3.575   3.375  0.00  0.00    -0.002 C 
ATOM      7  C   UNL     1       0.507  -2.793   3.258  0.00  0.00    -0.015 C 
ENDBRANCH   1   3
BRANCH   1   8
ATOM      8  C   UNL     1       1.144  -0.850   1.406  0.00  0.00    -0.036 C 
BRANCH   8  15
ATOM      9  C   UNL     1       9.079  -0.095   1.725  0.00  0.00    +0.044 C 
ATOM     10  C   UNL     1       7.616  -0.459   1.732  0.00  0.00    -0.048 A 
ATOM     11  C   UNL     1       7.229  -1.745   2.084  0.00  0.00    +0.007 A 
ATOM     12  C   UNL     1       5.909  -2.095   2.098  0.00  0.00    -0.041 A 
ATOM     13  C   UNL     1       4.938  -1.149   1.752  0.00  0.00    +0.002 A 
ATOM     14  C   UNL     1       3.513  -1.489   1.761  0.00  0.00    +0.017 A 
ATOM     15  C   UNL     1       2.618  -0.532   1.412  0.00  0.00    +0.001 A 
ATOM     16  C   UNL     1       3.059   0.761   1.061  0.00  0.00    +0.251 A 
ATOM     17  O   UNL     1       2.237   1.607   0.756  0.00  0.00    -0.268 OA
ATOM     18  N   UNL     1       4.364   1.084   1.056  0.00  0.00    -0.322 N 
ATOM     19  H   UNL     1       4.633   1.983   0.809  0.00  0.00    +0.169 HD
ATOM     20  C   UNL     1       5.326   0.156   1.395  0.00  0.00    +0.050 A 
ATOM     21  C   UNL     1       6.676   0.489   1.389  0.00  0.00    +0.029 A 
ATOM     22  C   UNL     1       5.501  -3.493   2.482  0.00  0.00    +0.044 C 
ENDBRANCH   8  15
ENDBRANCH   1   8
BRANCH   1  23
ATOM     23  C   UNL     1       1.020   0.940   3.031  0.00  0.00    +0.006 C 
BRANCH  23  24
ATOM     24  C   UNL     1       0.834   1.155   4.511  0.00  0.00    +0.138 A 
ATOM     25  N   UNL     1      -0.269   0.974   5.195  0.00  0.00    -0.115 NA
ATOM     26  N   UNL     1      -0.025   1.263   6.427  0.00  0.00    -0.023 NA
ATOM     27  N   UNL     1       1.205   1.623   6.546  0.00  0.00    -0.044 NA
ATOM     28  N   UNL     1       1.770   1.564   5.388  0.00  0.00    -0.231 N 
BRANCH  28  29
ATOM     29  C   UNL     1       3.166   1.887   5.083  0.00  0.00    +0.152 C 
BRANCH  29  30
ATOM     30  C   UNL     1       3.313   3.399   4.905  0.00  0.00    +0.058 C 
BRANCH  30  31
ATOM     31  C   UNL     1       4.722   3.719   4.476  0.00  0.00    -0.046 A 
ATOM     32  C   UNL     1       5.692   3.975   5.427  0.00  0.00    +0.004 A 
ATOM     33  C   UNL     1       6.986   4.264   5.034  0.00  0.00    +0.000 A 
ATOM     34  C   UNL     1       7.306   4.308   3.690  0.00  0.00    +0.000 A 
ATOM     35  C   UNL     1       6.334   4.058   2.739  0.00  0.00    +0.000 A 
ATOM     36  C   UNL     1       5.042   3.763   3.132  0.00  0.00    +0.004 A 
ENDBRANCH  30  31
ENDBRANCH  29  30
ENDBRANCH  28  29
ENDBRANCH  23  24
BRANCH  23  37
ATOM     37  C   UNL     1       0.224   1.994   2.259  0.00  0.00    -0.024 C 
ATOM     38  C   UNL     1       0.670   3.391   2.695  0.00  0.00    +0.006 C 
ATOM     39  C   UNL     1      -1.268   1.821   2.549  0.00  0.00    +0.006 C 
ENDBRANCH  23  37
ENDBRANCH   1  23
TORSDOF 9
