REMARK  Name = ZINC13033083
REMARK  11 active torsions:
REMARK  status: ('A' for Active; 'I' for Inactive)
REMARK    1  A    between atoms: C_1  and  C_2
REMARK    2  A    between atoms: C_4  and  C_39
REMARK    3  A    between atoms: C_7  and  C_14
REMARK    4  A    between atoms: C_14  and  N_69
REMARK    5  A    between atoms: C_15  and  C_16
REMARK    6  A    between atoms: C_15  and  N_69
REMARK    7  A    between atoms: C_25  and  C_26
REMARK    8  A    between atoms: C_25  and  N_69
REMARK    9  A    between atoms: N_30  and  C_31
REMARK   10  A    between atoms: C_31  and  C_32
REMARK   11  A    between atoms: C_32  and  C_33
REMARK                            x       y       z     vdW  Elec       q    Type
REMARK                         _______ _______ _______ _____ _____    ______ ____
ROOT
ATOM      1  N   UNL     1       5.927  -1.116   1.122  0.00  0.00    +0.390 N 
ATOM      2  H   UNL     1       5.985  -0.593   0.241  0.00  0.00    -0.080 HD
ENDROOT
BRANCH   1   3
ATOM      3  C   UNL     1       5.621  -2.530   0.822  0.00  0.00    -0.036 C 
BRANCH   3  10
ATOM      4  C   UNL     1      10.941  -5.353  -4.408  0.00  0.00    +0.044 C 
ATOM      5  C   UNL     1      10.075  -4.911  -3.256  0.00  0.00    -0.048 A 
ATOM      6  C   UNL     1      10.456  -5.212  -1.956  0.00  0.00    +0.007 A 
ATOM      7  C   UNL     1       9.686  -4.820  -0.897  0.00  0.00    -0.041 A 
ATOM      8  C   UNL     1       8.502  -4.111  -1.126  0.00  0.00    +0.002 A 
ATOM      9  C   UNL     1       7.655  -3.672  -0.015  0.00  0.00    +0.017 A 
ATOM     10  C   UNL     1       6.517  -2.992  -0.298  0.00  0.00    +0.001 A 
ATOM     11  C   UNL     1       6.171  -2.710  -1.637  0.00  0.00    +0.251 A 
ATOM     12  O   UNL     1       5.146  -2.093  -1.869  0.00  0.00    -0.268 OA
ATOM     13  N   UNL     1       6.945  -3.104  -2.664  0.00  0.00    -0.322 N 
ATOM     14  H   UNL     1       6.678  -2.894  -3.572  0.00  0.00    +0.169 HD
ATOM     15  C   UNL     1       8.113  -3.804  -2.444  0.00  0.00    +0.050 A 
ATOM     16  C   UNL     1       8.913  -4.213  -3.505  0.00  0.00    +0.029 A 
ATOM     17  C   UNL     1      10.109  -5.152   0.510  0.00  0.00    +0.044 C 
ENDBRANCH   3  10
ENDBRANCH   1   3
BRANCH   1  18
ATOM     18  C   UNL     1       4.854  -0.533   1.956  0.00  0.00    -0.042 C 
BRANCH  18  19
ATOM     19  C   UNL     1       3.593  -0.447   1.135  0.00  0.00    -0.060 A 
ATOM     20  C   UNL     1       2.636  -1.440   1.235  0.00  0.00    +0.005 A 
ATOM     21  C   UNL     1       1.478  -1.365   0.484  0.00  0.00    +0.050 A 
ATOM     22  C   UNL     1       1.273  -0.294  -0.371  0.00  0.00    +0.166 A 
ATOM     23  C   UNL     1       2.237   0.707  -0.470  0.00  0.00    +0.166 A 
ATOM     24  C   UNL     1       3.395   0.625   0.285  0.00  0.00    +0.051 A 
ATOM     25  O   UNL     1       1.805   1.640  -1.368  0.00  0.00    -0.453 OA
ATOM     26  C   UNL     1       0.391   1.411  -1.510  0.00  0.00    +0.466 C 
ATOM     27  O   UNL     1       0.238   0.012  -1.206  0.00  0.00    -0.453 OA
ENDBRANCH  18  19
ENDBRANCH   1  18
BRANCH   1  28
ATOM     28  C   UNL     1       7.223  -1.018   1.825  0.00  0.00    +0.001 C 
BRANCH  28  29
ATOM     29  C   UNL     1       7.615   0.434   1.923  0.00  0.00    +0.135 A 
ATOM     30  N   UNL     1       8.314   1.117   1.049  0.00  0.00    -0.115 NA
ATOM     31  N   UNL     1       8.435   2.321   1.489  0.00  0.00    -0.023 NA
ATOM     32  N   UNL     1       7.838   2.423   2.625  0.00  0.00    -0.044 NA
ATOM     33  N   UNL     1       7.319   1.281   2.927  0.00  0.00    -0.231 N 
BRANCH  33  34
ATOM     34  C   UNL     1       6.554   0.964   4.135  0.00  0.00    +0.152 C 
BRANCH  34  35
ATOM     35  C   UNL     1       7.507   0.480   5.230  0.00  0.00    +0.058 C 
BRANCH  35  36
ATOM     36  C   UNL     1       6.719   0.154   6.473  0.00  0.00    -0.046 A 
ATOM     37  C   UNL     1       6.498   1.130   7.427  0.00  0.00    +0.004 A 
ATOM     38  C   UNL     1       5.771   0.833   8.564  0.00  0.00    +0.000 A 
ATOM     39  C   UNL     1       5.275  -0.444   8.754  0.00  0.00    +0.000 A 
ATOM     40  C   UNL     1       5.501  -1.421   7.803  0.00  0.00    +0.000 A 
ATOM     41  C   UNL     1       6.223  -1.122   6.662  0.00  0.00    +0.004 A 
ENDBRANCH  35  36
ENDBRANCH  34  35
ENDBRANCH  33  34
ENDBRANCH  28  29
ENDBRANCH   1  28
TORSDOF 9
