REMARK  Name = ZINC55007433
REMARK  4 active torsions:
REMARK  status: ('A' for Active; 'I' for Inactive)
REMARK    1  A    between atoms: C_6  and  C_11
REMARK    2  A    between atoms: C_11  and  C_12
REMARK    3  A    between atoms: N_14  and  N_15
REMARK    4  A    between atoms: N_15  and  C_16
REMARK                            x       y       z     vdW  Elec       q    Type
REMARK                         _______ _______ _______ _____ _____    ______ ____
ROOT
ATOM      1  C   UNL     1       5.420  -3.018   1.364  0.00  0.00    +0.233 C 
ATOM      2  O   UNL     1       4.874  -2.421   2.268  0.00  0.00    -0.274 OA
ATOM      3  N   UNL     1       6.547  -3.717   1.603  0.00  0.00    -0.237 N 
ATOM      4  H   UNL     1       6.984  -4.194   0.880  0.00  0.00    +0.173 HD
ENDROOT
BRANCH   3   5
ATOM      5  N   UNL     1       7.087  -3.756   2.895  0.00  0.00    -0.271 N 
ATOM      6  H   UNL     1       6.650  -3.280   3.618  0.00  0.00    +0.169 HD
BRANCH   5   7
ATOM      7  C   UNL     1       8.213  -4.456   3.133  0.00  0.00    +0.106 C 
ATOM      8  C   UNL     1       8.682  -4.593   4.430  0.00  0.00    +0.116 C 
ATOM      9  C   UNL     1       7.885  -4.158   5.585  0.00  0.00    +0.276 C 
ATOM     10  O   UNL     1       6.663  -3.609   5.413  0.00  0.00    -0.268 OA
ATOM     11  N   UNL     1       8.390  -4.317   6.797  0.00  0.00    -0.154 NA
ATOM     12  C   UNL     1       9.590  -4.855   6.996  0.00  0.00    +0.164 C 
ATOM     13  S   UNL     1      10.148  -5.015   8.607  0.00  0.00    -0.016 S 
ATOM     14  N   UNL     1      10.386  -5.280   6.004  0.00  0.00    -0.262 N 
ATOM     15  C   UNL     1      10.001  -5.188   4.713  0.00  0.00    +0.256 C 
ATOM     16  O   UNL     1      10.722  -5.578   3.813  0.00  0.00    -0.270 OA
ATOM     17  H   UNL     1      11.251  -5.663   6.218  0.00  0.00    +0.157 HD
ENDBRANCH   5   7
ENDBRANCH   3   5
BRANCH   1  18
ATOM     18  C   UNL     1       4.839  -2.976  -0.025  0.00  0.00    +0.132 C 
BRANCH  18  24
ATOM     19  C   UNL     1       0.196   1.508  -0.247  0.00  0.00    +0.001 A 
ATOM     20  C   UNL     1       1.429   2.108  -0.496  0.00  0.00    +0.001 A 
ATOM     21  C   UNL     1       2.576   1.376  -0.506  0.00  0.00    +0.008 A 
ATOM     22  C   UNL     1       2.520  -0.007  -0.262  0.00  0.00    -0.018 A 
ATOM     23  C   UNL     1       3.683  -0.796  -0.263  0.00  0.00    +0.012 A 
ATOM     24  C   UNL     1       3.590  -2.133  -0.023  0.00  0.00    -0.038 A 
ATOM     25  C   UNL     1       2.357  -2.733   0.226  0.00  0.00    +0.005 A 
ATOM     26  C   UNL     1       1.210  -2.001   0.236  0.00  0.00    +0.009 A 
ATOM     27  C   UNL     1       1.266  -0.618  -0.009  0.00  0.00    -0.018 A 
ATOM     28  C   UNL     1       0.103   0.172  -0.007  0.00  0.00    +0.008 A 
ENDBRANCH  18  24
ENDBRANCH   1  18
TORSDOF 4
