REMARK  Name = ZINC34942826
REMARK  12 active torsions:
REMARK  status: ('A' for Active; 'I' for Inactive)
REMARK    1  A    between atoms: C_1  and  C_2
REMARK    2  A    between atoms: C_5  and  C_33
REMARK    3  A    between atoms: C_6  and  C_8
REMARK    4  A    between atoms: C_8  and  C_9
REMARK    5  A    between atoms: C_10  and  C_23
REMARK    6  A    between atoms: N_12  and  C_17
REMARK    7  A    between atoms: C_17  and  C_18
REMARK    8  A    between atoms: C_18  and  C_19
REMARK    9  A    between atoms: C_19  and  N_20
REMARK   10  A    between atoms: N_20  and  C_21
REMARK   11  A    between atoms: N_20  and  C_22
REMARK   12  A    between atoms: C_26  and  N_29
REMARK                            x       y       z     vdW  Elec       q    Type
REMARK                         _______ _______ _______ _____ _____    ______ ____
ROOT
ATOM      1  C   UNL     1      -0.090  -2.398   3.679  0.00  0.00    +0.076 C 
ATOM      2  C   UNL     1      -0.044  -0.912   3.950  0.00  0.00    +0.145 C 
ATOM      3  N   UNL     1      -0.152  -0.758   5.405  0.00  0.00    -0.284 N 
ATOM      4  C   UNL     1      -0.251  -1.986   5.945  0.00  0.00    +0.288 C 
ATOM      5  O   UNL     1      -0.356  -2.219   7.133  0.00  0.00    -0.266 OA
ATOM      6  C   UNL     1      -0.219  -3.010   4.879  0.00  0.00    +0.249 C 
ATOM      7  O   UNL     1      -0.302  -4.346   5.073  0.00  0.00    -0.282 OA
ENDROOT
BRANCH   2   8
ATOM      8  C   UNL     1       1.262  -0.338   3.463  0.00  0.00    -0.022 A 
ATOM      9  C   UNL     1       2.432  -0.603   4.150  0.00  0.00    +0.008 A 
ATOM     10  C   UNL     1       3.630  -0.075   3.704  0.00  0.00    +0.033 A 
ATOM     11  C   UNL     1       3.657   0.717   2.571  0.00  0.00    +0.126 A 
ATOM     12  C   UNL     1       2.486   0.981   1.884  0.00  0.00    +0.033 A 
ATOM     13  C   UNL     1       1.290   0.450   2.328  0.00  0.00    +0.008 A 
BRANCH  11  14
ATOM     14  N   UNL     1       4.939   1.282   2.094  0.00  0.00    +0.056 N 
ATOM     15  O   UNL     1       5.962   1.052   2.695  0.00  0.00    -0.126 OA
ATOM     16  O   UNL     1       4.962   1.975   1.103  0.00  0.00    -0.126 OA
ENDBRANCH  11  14
ENDBRANCH   2   8
BRANCH   1  17
ATOM     17  C   UNL     1      -0.015  -3.051   2.368  0.00  0.00    +0.195 C 
ATOM     18  O   UNL     1       0.028  -4.264   2.295  0.00  0.00    -0.287 OA
BRANCH  17  24
ATOM     19  C   UNL     1       2.497  -1.124  -1.489  0.00  0.00    +0.044 C 
ATOM     20  C   UNL     1       1.212  -1.304  -0.722  0.00  0.00    -0.050 A 
ATOM     21  C   UNL     1       0.049  -0.704  -1.172  0.00  0.00    +0.003 A 
ATOM     22  C   UNL     1      -1.135  -0.864  -0.473  0.00  0.00    +0.004 A 
ATOM     23  C   UNL     1      -1.163  -1.625   0.677  0.00  0.00    -0.040 A 
ATOM     24  C   UNL     1       0.007  -2.234   1.136  0.00  0.00    +0.025 A 
ATOM     25  C   UNL     1       1.197  -2.072   0.423  0.00  0.00    +0.015 A 
ATOM     26  C   UNL     1      -2.453  -1.799   1.436  0.00  0.00    +0.044 C 
ENDBRANCH  17  24
ENDBRANCH   1  17
BRANCH   3  27
ATOM     27  C   UNL     1      -0.152   0.509   6.140  0.00  0.00    +0.107 C 
BRANCH  27  28
ATOM     28  C   UNL     1      -1.588   1.017   6.282  0.00  0.00    +0.000 C 
BRANCH  28  29
ATOM     29  C   UNL     1      -1.588   2.340   7.049  0.00  0.00    -0.078 C 
BRANCH  29  30
ATOM     30  N   UNL     1      -2.967   2.828   7.185  0.00  0.00    +0.376 N 
ATOM     31  C   UNL     1      -3.736   1.895   8.020  0.00  0.00    -0.097 C 
ATOM     32  C   UNL     1      -2.958   4.155   7.815  0.00  0.00    -0.097 C 
ATOM     33  H   UNL     1      -3.393   2.892   6.273  0.00  0.00    -0.083 HD
ENDBRANCH  29  30
ENDBRANCH  28  29
ENDBRANCH  27  28
ENDBRANCH   3  27
TORSDOF 8
