REMARK  Name = ZINC60269174
REMARK  13 active torsions:
REMARK  status: ('A' for Active; 'I' for Inactive)
REMARK    1  A    between atoms: C_1  and  C_2
REMARK    2  A    between atoms: N_5  and  C_11
REMARK    3  A    between atoms: C_7  and  C_10
REMARK    4  A    between atoms: C_14  and  N_17
REMARK    5  A    between atoms: C_18  and  C_20
REMARK    6  A    between atoms: C_20  and  N_21
REMARK    7  A    between atoms: C_26  and  C_28
REMARK    8  A    between atoms: C_28  and  N_29
REMARK    9  A    between atoms: C_30  and  O_32
REMARK   10  A    between atoms: O_32  and  C_33
REMARK   11  A    between atoms: C_33  and  C_34
REMARK   12  A    between atoms: C_33  and  C_35
REMARK   13  A    between atoms: C_33  and  C_36
REMARK                            x       y       z     vdW  Elec       q    Type
REMARK                         _______ _______ _______ _____ _____    ______ ____
ROOT
ATOM      1  N   UNL     1       4.797   2.787  -4.898  0.00  0.00    -0.287 N 
ATOM      2  C   UNL     1       6.115   3.070  -4.893  0.00  0.00    +0.201 C 
ATOM      3  O   UNL     1       6.782   2.834  -3.908  0.00  0.00    -0.278 OA
ATOM      4  H   UNL     1       4.278   2.907  -5.709  0.00  0.00    +0.155 HD
ENDROOT
BRANCH   1   8
ATOM      5  C   UNL     1       2.951   1.390  -1.429  0.00  0.00    +0.030 A 
ATOM      6  C   UNL     1       3.986   2.312  -1.342  0.00  0.00    +0.025 A 
ATOM      7  C   UNL     1       4.597   2.774  -2.490  0.00  0.00    +0.025 A 
ATOM      8  C   UNL     1       4.177   2.317  -3.732  0.00  0.00    +0.033 A 
ATOM      9  C   UNL     1       3.142   1.396  -3.820  0.00  0.00    +0.025 A 
ATOM     10  C   UNL     1       2.535   0.928  -2.671  0.00  0.00    +0.025 A 
BRANCH   5  14
ATOM     11  C   UNL     1      -0.446   1.929  -0.028  0.00  0.00    +0.039 C 
ATOM     12  C   UNL     1       0.061   0.613   0.566  0.00  0.00    +0.133 C 
ATOM     13  C   UNL     1       1.159   0.035  -0.335  0.00  0.00    +0.136 C 
ATOM     14  N   UNL     1       2.332   0.922  -0.265  0.00  0.00    -0.325 N 
ATOM     15  C   UNL     1       2.833   1.301   1.065  0.00  0.00    +0.136 C 
ATOM     16  C   UNL     1       1.654   1.817   1.898  0.00  0.00    +0.133 C 
ATOM     17  O   UNL     1       0.598   0.853   1.869  0.00  0.00    -0.371 OA
ATOM     18  C   UNL     1       2.107   2.038   3.343  0.00  0.00    +0.039 C 
ENDBRANCH   5  14
ENDBRANCH   1   8
BRANCH   2  19
ATOM     19  C   UNL     1       6.759   3.681  -6.111  0.00  0.00    +0.019 C 
BRANCH  19  20
ATOM     20  N   UNL     1       8.190   3.892  -5.854  0.00  0.00    +0.388 N 
ATOM     21  C   UNL     1       8.857   2.592  -5.714  0.00  0.00    -0.078 C 
ATOM     22  C   UNL     1      10.332   2.806  -5.366  0.00  0.00    -0.019 C 
ATOM     23  C   UNL     1      11.003   3.608  -6.485  0.00  0.00    -0.003 C 
ATOM     24  C   UNL     1      10.253   4.930  -6.673  0.00  0.00    -0.014 C 
ATOM     25  C   UNL     1       8.781   4.637  -6.972  0.00  0.00    -0.050 C 
ATOM     26  H   UNL     1       8.303   4.420  -5.002  0.00  0.00    -0.081 HD
BRANCH  25  27
ATOM     27  C   UNL     1       8.027   5.955  -7.161  0.00  0.00    +0.092 C 
BRANCH  27  28
ATOM     28  N   UNL     1       8.037   6.708  -5.904  0.00  0.00    -0.283 N 
ATOM     29  C   UNL     1       7.346   7.860  -5.804  0.00  0.00    +0.401 C 
ATOM     30  O   UNL     1       6.714   8.275  -6.755  0.00  0.00    -0.226 OA
ATOM     31  H   UNL     1       8.542   6.377  -5.145  0.00  0.00    +0.152 HD
BRANCH  29  32
ATOM     32  O   UNL     1       7.355   8.552  -4.649  0.00  0.00    -0.445 OA
BRANCH  32  33
ATOM     33  C   UNL     1       6.599   9.764  -4.612  0.00  0.00    +0.107 C 
ATOM     34  C   UNL     1       5.128   9.457  -4.896  0.00  0.00    +0.055 C 
ATOM     35  C   UNL     1       6.729  10.405  -3.229  0.00  0.00    +0.055 C 
ATOM     36  C   UNL     1       7.133  10.729  -5.674  0.00  0.00    +0.055 C 
ENDBRANCH  32  33
ENDBRANCH  29  32
ENDBRANCH  27  28
ENDBRANCH  25  27
ENDBRANCH  19  20
ENDBRANCH   2  19
TORSDOF 8
