REMARK  Name = ZINC01870964
REMARK  12 active torsions:
REMARK  status: ('A' for Active; 'I' for Inactive)
REMARK    1  A    between atoms: C_1  and  C_2
REMARK    2  A    between atoms: C_5  and  N_8
REMARK    3  A    between atoms: C_17  and  S_18
REMARK    4  A    between atoms: S_18  and  C_19
REMARK    5  A    between atoms: C_19  and  C_20
REMARK    6  A    between atoms: N_22  and  N_23
REMARK    7  A    between atoms: C_24  and  C_25
REMARK    8  A    between atoms: C_28  and  O_33
REMARK    9  A    between atoms: C_29  and  O_31
REMARK   10  A    between atoms: O_31  and  C_32
REMARK   11  A    between atoms: O_33  and  C_34
REMARK   12  A    between atoms: C_34  and  C_36
REMARK                            x       y       z     vdW  Elec       q    Type
REMARK                         _______ _______ _______ _____ _____    ______ ____
ROOT
ATOM      1  N   UNL     1       0.488  -4.208  -0.071  0.00  0.00    -0.255 N 
ATOM      2  C   UNL     1       0.593  -4.875   1.093  0.00  0.00    +0.268 A 
ATOM      3  O   UNL     1       0.764  -4.271   2.138  0.00  0.00    -0.267 OA
ATOM      4  C   UNL     1       0.499  -6.302   1.088  0.00  0.00    +0.076 A 
ATOM      5  C   UNL     1       0.585  -7.221   2.225  0.00  0.00    -0.023 A 
ATOM      6  C   UNL     1       0.465  -8.537   1.958  0.00  0.00    -0.004 A 
ATOM      7  S   UNL     1       0.234  -8.633   0.203  0.00  0.00    -0.073 S 
ATOM      8  C   UNL     1       0.301  -6.899  -0.169  0.00  0.00    +0.117 A 
ATOM      9  N   UNL     1       0.207  -6.184  -1.284  0.00  0.00    -0.215 NA
ATOM     10  C   UNL     1       0.290  -4.869  -1.251  0.00  0.00    +0.178 A 
ATOM     11  C   UNL     1       0.517  -9.670   2.937  0.00  0.00    +0.043 C 
ATOM     12  C   UNL     1       1.101  -9.144   4.256  0.00  0.00    +0.005 C 
ATOM     13  C   UNL     1       0.386  -7.840   4.623  0.00  0.00    +0.005 C 
ATOM     14  C   UNL     1       0.800  -6.731   3.654  0.00  0.00    +0.037 C 
ENDROOT
BRANCH   1  19
ATOM     15  C   UNL     1       0.856   1.455  -0.081  0.00  0.00    +0.044 C 
ATOM     16  C   UNL     1       0.758  -0.049  -0.079  0.00  0.00    -0.050 A 
ATOM     17  C   UNL     1       1.902  -0.815  -0.212  0.00  0.00    +0.005 A 
ATOM     18  C   UNL     1       1.816  -2.193  -0.210  0.00  0.00    +0.026 A 
ATOM     19  C   UNL     1       0.579  -2.810  -0.073  0.00  0.00    +0.052 A 
ATOM     20  C   UNL     1      -0.567  -2.038   0.061  0.00  0.00    +0.026 A 
ATOM     21  C   UNL     1      -0.474  -0.660   0.063  0.00  0.00    +0.005 A 
ENDBRANCH   1  19
BRANCH  10  22
ATOM     22  S   UNL     1       0.153  -3.951  -2.749  0.00  0.00    -0.078 S 
BRANCH  22  23
ATOM     23  C   UNL     1      -0.097  -5.221  -4.020  0.00  0.00    +0.174 C 
BRANCH  23  24
ATOM     24  C   UNL     1      -0.232  -4.563  -5.369  0.00  0.00    +0.242 C 
ATOM     25  O   UNL     1      -0.166  -3.355  -5.464  0.00  0.00    -0.273 OA
ATOM     26  N   UNL     1      -0.426  -5.315  -6.470  0.00  0.00    -0.206 N 
ATOM     27  H   UNL     1      -0.478  -6.281  -6.395  0.00  0.00    +0.177 HD
BRANCH  26  28
ATOM     28  N   UNL     1      -0.551  -4.703  -7.724  0.00  0.00    -0.188 NA
ATOM     29  C   UNL     1      -0.737  -5.428  -8.784  0.00  0.00    +0.138 C 
BRANCH  29  30
ATOM     30  C   UNL     1      -0.869  -4.783 -10.104  0.00  0.00    -0.002 A 
ATOM     31  C   UNL     1      -0.788  -3.393 -10.216  0.00  0.00    +0.013 A 
ATOM     32  C   UNL     1      -0.911  -2.792 -11.450  0.00  0.00    +0.051 A 
ATOM     33  C   UNL     1      -1.117  -3.565 -12.584  0.00  0.00    +0.173 A 
ATOM     34  C   UNL     1      -1.200  -4.952 -12.480  0.00  0.00    +0.163 A 
ATOM     35  C   UNL     1      -1.070  -5.561 -11.246  0.00  0.00    +0.059 A 
BRANCH  34  36
ATOM     36  O   UNL     1      -1.402  -5.706 -13.594  0.00  0.00    -0.491 OA
ATOM     37  C   UNL     1      -1.477  -7.121 -13.414  0.00  0.00    +0.277 C 
ENDBRANCH  34  36
BRANCH  33  38
ATOM     38  O   UNL     1      -1.239  -2.967 -13.799  0.00  0.00    -0.422 OA
BRANCH  38  39
ATOM     39  C   UNL     1      -2.475  -2.702 -14.250  0.00  0.00    +0.309 C 
ATOM     40  O   UNL     1      -3.433  -2.909 -13.544  0.00  0.00    -0.251 OA
ATOM     41  C   UNL     1      -2.668  -2.148 -15.638  0.00  0.00    +0.136 C 
ENDBRANCH  38  39
ENDBRANCH  33  38
ENDBRANCH  29  30
ENDBRANCH  26  28
ENDBRANCH  23  24
ENDBRANCH  22  23
ENDBRANCH  10  22
TORSDOF 9
