REMARK  Name = ZINC00755303
REMARK  6 active torsions:
REMARK  status: ('A' for Active; 'I' for Inactive)
REMARK    1  A    between atoms: C_1  and  O_2
REMARK    2  A    between atoms: O_2  and  C_3
REMARK    3  A    between atoms: C_6  and  N_9
REMARK    4  A    between atoms: C_15  and  S_16
REMARK    5  A    between atoms: S_16  and  C_17
REMARK    6  A    between atoms: C_17  and  C_18
REMARK                            x       y       z     vdW  Elec       q    Type
REMARK                         _______ _______ _______ _____ _____    ______ ____
ROOT
ATOM      1  N   UNL     1       1.098  -1.572  -1.909  0.00  0.00    -0.256 N 
ATOM      2  C   UNL     1       2.137  -1.739  -2.757  0.00  0.00    +0.263 A 
ATOM      3  O   UNL     1       2.704  -2.817  -2.843  0.00  0.00    -0.267 OA
ATOM      4  C   UNL     1       2.549  -0.650  -3.534  0.00  0.00    +0.050 A 
ATOM      5  C   UNL     1       1.875   0.557  -3.405  0.00  0.00    +0.083 A 
ATOM      6  N   UNL     1       0.847   0.662  -2.558  0.00  0.00    -0.222 NA
ATOM      7  C   UNL     1       0.468  -0.366  -1.825  0.00  0.00    +0.177 A 
ATOM      8  C   UNL     1       2.320   1.709  -4.224  0.00  0.00    +0.004 A 
ATOM      9  C   UNL     1       1.993   3.013  -3.864  0.00  0.00    +0.010 A 
ATOM     10  C   UNL     1       2.414   4.065  -4.652  0.00  0.00    +0.001 A 
ATOM     11  C   UNL     1       3.157   3.824  -5.794  0.00  0.00    +0.000 A 
ATOM     12  C   UNL     1       3.486   2.529  -6.154  0.00  0.00    +0.004 A 
ATOM     13  C   UNL     1       3.074   1.469  -5.374  0.00  0.00    -0.037 A 
ATOM     14  C   UNL     1       3.431   0.056  -5.753  0.00  0.00    +0.047 C 
ATOM     15  C   UNL     1       3.693  -0.772  -4.497  0.00  0.00    +0.007 C 
ATOM     16  C   UNL     1       3.898  -2.249  -4.883  0.00  0.00    +0.012 C 
ATOM     17  C   UNL     1       5.436  -2.403  -4.987  0.00  0.00    +0.001 C 
ATOM     18  C   UNL     1       5.950  -1.515  -3.827  0.00  0.00    +0.001 C 
ATOM     19  C   UNL     1       4.995  -0.302  -3.827  0.00  0.00    +0.012 C 
ENDROOT
BRANCH   1  23
ATOM     20  C   UNL     1      -0.184  -4.758   0.457  0.00  0.00    +0.120 A 
ATOM     21  C   UNL     1      -0.730  -4.568  -0.804  0.00  0.00    +0.047 A 
ATOM     22  C   UNL     1      -0.306  -3.513  -1.588  0.00  0.00    +0.030 A 
ATOM     23  C   UNL     1       0.667  -2.643  -1.114  0.00  0.00    +0.052 A 
ATOM     24  C   UNL     1       1.216  -2.837   0.146  0.00  0.00    +0.030 A 
ATOM     25  C   UNL     1       0.788  -3.889   0.931  0.00  0.00    +0.047 A 
BRANCH  20  27
ATOM     26  C   UNL     1       0.003  -5.933   2.516  0.00  0.00    +0.277 C 
ATOM     27  O   UNL     1      -0.602  -5.797   1.228  0.00  0.00    -0.495 OA
ENDBRANCH  20  27
ENDBRANCH   1  23
BRANCH   7  28
ATOM     28  S   UNL     1      -0.889  -0.179  -0.716  0.00  0.00    -0.078 S 
BRANCH  28  29
ATOM     29  C   UNL     1      -1.307   1.556  -1.020  0.00  0.00    +0.172 C 
BRANCH  29  30
ATOM     30  C   UNL     1      -2.476   1.950  -0.155  0.00  0.00    +0.221 C 
ATOM     31  O   UNL     1      -2.977   1.139   0.594  0.00  0.00    -0.275 OA
ATOM     32  N   UNL     1      -2.964   3.205  -0.213  0.00  0.00    -0.329 N 
ATOM     33  H   UNL     1      -2.563   3.854  -0.812  0.00  0.00    +0.145 HD
ATOM     34  H   UNL     1      -3.716   3.459   0.344  0.00  0.00    +0.145 HD
ENDBRANCH  29  30
ENDBRANCH  28  29
ENDBRANCH   7  28
TORSDOF 5
