REMARK  Name = ZINC45777633
REMARK  8 active torsions:
REMARK  status: ('A' for Active; 'I' for Inactive)
REMARK    1  A    between atoms: C_1  and  C_2
REMARK    2  A    between atoms: N_5  and  C_8
REMARK    3  A    between atoms: C_8  and  C_9
REMARK    4  A    between atoms: C_14  and  C_15
REMARK    5  A    between atoms: C_15  and  N_16
REMARK    6  A    between atoms: N_19  and  N_20
REMARK    7  A    between atoms: C_21  and  C_23
REMARK    8  A    between atoms: N_25  and  C_26
REMARK                            x       y       z     vdW  Elec       q    Type
REMARK                         _______ _______ _______ _____ _____    ______ ____
ROOT
ATOM      1  N   UNL     1      -3.193  -4.878   3.388  0.00  0.00    -0.294 N 
ATOM      2  C   UNL     1      -4.517  -4.655   3.270  0.00  0.00    +0.316 C 
ATOM      3  O   UNL     1      -4.976  -3.563   3.545  0.00  0.00    -0.251 OA
ATOM      4  N   UNL     1      -5.332  -5.642   2.847  0.00  0.00    -0.218 N 
ATOM      5  H   UNL     1      -2.827  -5.749   3.168  0.00  0.00    +0.151 HD
ATOM      6  H   UNL     1      -6.284  -5.481   2.762  0.00  0.00    +0.174 HD
ENDROOT
BRANCH   4   7
ATOM      7  N   UNL     1      -4.803  -6.899   2.530  0.00  0.00    -0.225 N 
ATOM      8  C   UNL     1      -5.617  -7.886   2.107  0.00  0.00    +0.315 C 
ATOM      9  O   UNL     1      -6.809  -7.685   2.000  0.00  0.00    -0.264 OA
ATOM     10  H   UNL     1      -3.850  -7.060   2.615  0.00  0.00    +0.173 HD
BRANCH   8  11
ATOM     11  C   UNL     1      -5.053  -9.228   1.768  0.00  0.00    +0.301 C 
ATOM     12  O   UNL     1      -3.861  -9.429   1.875  0.00  0.00    -0.265 OA
ATOM     13  N   UNL     1      -5.868 -10.215   1.345  0.00  0.00    -0.305 N 
ATOM     14  H   UNL     1      -6.821 -10.054   1.260  0.00  0.00    +0.149 HD
BRANCH  13  15
ATOM     15  C   UNL     1      -5.314 -11.530   1.014  0.00  0.00    +0.073 C 
ATOM     16  C   UNL     1      -5.822 -12.209  -0.260  0.00  0.00    +0.024 C 
ATOM     17  C   UNL     1      -6.251 -12.736   1.111  0.00  0.00    +0.024 C 
ENDBRANCH  13  15
ENDBRANCH   8  11
ENDBRANCH   4   7
BRANCH   1  18
ATOM     18  C   UNL     1      -2.307  -3.806   3.848  0.00  0.00    +0.141 C 
BRANCH  18  24
ATOM     19  C   UNL     1      -0.143  -4.380   2.730  0.00  0.00    -0.059 A 
ATOM     20  C   UNL     1       1.161  -4.838   2.771  0.00  0.00    +0.002 A 
ATOM     21  C   UNL     1       1.718  -5.231   3.973  0.00  0.00    +0.000 A 
ATOM     22  C   UNL     1       0.971  -5.166   5.135  0.00  0.00    +0.000 A 
ATOM     23  C   UNL     1      -0.332  -4.708   5.094  0.00  0.00    +0.005 A 
ATOM     24  C   UNL     1      -0.888  -4.311   3.892  0.00  0.00    -0.029 A 
BRANCH  19  25
ATOM     25  C   UNL     1      -0.750  -3.952   1.419  0.00  0.00    -0.043 C 
BRANCH  25  30
ATOM     26  C   UNL     1      -0.019   1.526   0.010  0.00  0.00    +0.007 C 
ATOM     27  C   UNL     1       0.002  -0.004   0.002  0.00  0.00    -0.018 C 
ATOM     28  C   UNL     1      -1.434  -0.536   0.023  0.00  0.00    -0.016 C 
ATOM     29  C   UNL     1      -1.405  -2.064   0.095  0.00  0.00    -0.078 C 
ATOM     30  N   UNL     1      -0.707  -2.487   1.315  0.00  0.00    +0.382 N 
ATOM     31  C   UNL     1       0.691  -2.042   1.269  0.00  0.00    -0.078 C 
ATOM     32  C   UNL     1       0.743  -0.513   1.242  0.00  0.00    -0.016 C 
ATOM     33  H   UNL     1      -1.162  -2.082   2.119  0.00  0.00    -0.081 HD
ENDBRANCH  25  30
ENDBRANCH  19  25
ENDBRANCH  18  24
ENDBRANCH   1  18
TORSDOF 7
