REMARK  Name = ZINC06398837
REMARK  3 active torsions:
REMARK  status: ('A' for Active; 'I' for Inactive)
REMARK    1  A    between atoms: C_3  and  C_6
REMARK    2  A    between atoms: C_10  and  N_18
REMARK    3  A    between atoms: C_11  and  C_15
REMARK                            x       y       z     vdW  Elec       q    Type
REMARK                         _______ _______ _______ _____ _____    ______ ____
ROOT
ATOM      1  C   UNL     1       2.282   3.471   0.317  0.00  0.00    +0.082 A 
ATOM      2  C   UNL     1       1.801   4.556  -0.442  0.00  0.00    -0.017 A 
ATOM      3  C   UNL     1       2.536   5.690  -0.535  0.00  0.00    -0.031 A 
ATOM      4  C   UNL     1       3.798   5.761   0.122  0.00  0.00    +0.033 A 
ATOM      5  C   UNL     1       4.740   6.868   0.139  0.00  0.00    +0.054 A 
ATOM      6  C   UNL     1       5.914   6.718   0.847  0.00  0.00    +0.097 A 
ATOM      7  S   UNL     1       5.784   5.071   1.515  0.00  0.00    -0.062 S 
ATOM      8  C   UNL     1       4.199   4.621   0.852  0.00  0.00    +0.112 A 
ATOM      9  N   UNL     1       3.456   3.540   0.930  0.00  0.00    -0.239 NA
ATOM     10  C   UNL     1       2.087   6.902  -1.305  0.00  0.00    +0.036 C 
ATOM     11  C   UNL     1       0.966   6.535  -2.277  0.00  0.00    +0.005 C 
ATOM     12  C   UNL     1      -0.108   5.762  -1.502  0.00  0.00    +0.005 C 
ATOM     13  C   UNL     1       0.463   4.399  -1.116  0.00  0.00    +0.037 C 
ENDROOT
BRANCH   1  16
ATOM     14  C   UNL     1       0.436   0.348   1.387  0.00  0.00    +0.008 A 
ATOM     15  C   UNL     1       1.232   1.461   1.527  0.00  0.00    +0.017 A 
ATOM     16  C   UNL     1       1.473   2.242   0.426  0.00  0.00    +0.038 A 
ATOM     17  S   UNL     1       0.554   1.384  -0.842  0.00  0.00    -0.095 S 
ATOM     18  C   UNL     1      -0.085   0.056   0.166  0.00  0.00    +0.046 A 
ENDBRANCH   1  16
BRANCH   6  19
ATOM     19  C   UNL     1       6.969   7.649   1.006  0.00  0.00    +0.250 C 
ATOM     20  O   UNL     1       6.899   8.744   0.478  0.00  0.00    -0.270 OA
ATOM     21  N   UNL     1       8.050   7.323   1.742  0.00  0.00    -0.325 N 
ATOM     22  H   UNL     1       8.105   6.450   2.163  0.00  0.00    +0.145 HD
ATOM     23  H   UNL     1       8.773   7.960   1.851  0.00  0.00    +0.145 HD
ENDBRANCH   6  19
BRANCH   5  24
ATOM     24  N   UNL     1       4.465   8.047  -0.540  0.00  0.00    -0.356 N 
ATOM     25  H   UNL     1       3.546   8.323  -0.680  0.00  0.00    +0.142 HD
ATOM     26  H   UNL     1       5.193   8.595  -0.874  0.00  0.00    +0.142 HD
ENDBRANCH   5  24
TORSDOF 3
