REMARK  Name = ZINC03228844
REMARK  7 active torsions:
REMARK  status: ('A' for Active; 'I' for Inactive)
REMARK    1  A    between atoms: C_2  and  C_3
REMARK    2  A    between atoms: C_2  and  N_10
REMARK    3  A    between atoms: N_10  and  N_11
REMARK    4  A    between atoms: N_11  and  C_12
REMARK    5  A    between atoms: C_12  and  N_14
REMARK    6  A    between atoms: N_14  and  C_15
REMARK    7  A    between atoms: C_15  and  C_16
REMARK                            x       y       z     vdW  Elec       q    Type
REMARK                         _______ _______ _______ _____ _____    ______ ____
ROOT
ATOM      1  N   UNL     1       1.178  -0.662  -0.013  0.00  0.00    -0.248 N 
ATOM      2  H   UNL     1       1.191  -1.632  -0.018  0.00  0.00    +0.172 HD
ENDROOT
BRANCH   1   3
ATOM      3  N   UNL     1       2.382   0.055  -0.020  0.00  0.00    -0.265 N 
ATOM      4  H   UNL     1       2.369   1.025  -0.015  0.00  0.00    +0.170 HD
BRANCH   3   6
ATOM      5  C   UNL     1       3.618  -1.960  -0.043  0.00  0.00    +0.035 C 
ATOM      6  C   UNL     1       3.600  -0.626  -0.036  0.00  0.00    +0.044 C 
BRANCH   6   7
ATOM      7  C   UNL     1       4.872   0.132  -0.044  0.00  0.00    -0.002 A 
ATOM      8  C   UNL     1       4.856   1.526  -0.042  0.00  0.00    +0.010 A 
ATOM      9  C   UNL     1       6.045   2.228  -0.045  0.00  0.00    +0.002 A 
ATOM     10  C   UNL     1       7.251   1.550  -0.060  0.00  0.00    +0.015 A 
ATOM     11  C   UNL     1       7.273   0.166  -0.067  0.00  0.00    +0.018 A 
ATOM     12  C   UNL     1       6.090  -0.546  -0.059  0.00  0.00    +0.025 A 
ATOM     13 BR   UNL     1       8.927  -0.751  -0.088  0.00  0.00    -0.050 Br
ENDBRANCH   6   7
ENDBRANCH   3   6
ENDBRANCH   1   3
BRANCH   1  14
ATOM     14  C   UNL     1       0.002  -0.004   0.002  0.00  0.00    +0.147 C 
ATOM     15  S   UNL     1      -1.469  -0.880   0.011  0.00  0.00    -0.017 S 
BRANCH  14  16
ATOM     16  N   UNL     1      -0.016   1.344   0.009  0.00  0.00    -0.321 N 
ATOM     17  H   UNL     1       0.817   1.840   0.004  0.00  0.00    +0.148 HD
BRANCH  16  18
ATOM     18  C   UNL     1      -1.295   2.059   0.019  0.00  0.00    +0.138 C 
BRANCH  18  19
ATOM     19  C   UNL     1      -1.040   3.544   0.026  0.00  0.00    -0.030 A 
ATOM     20  C   UNL     1      -0.922   4.220   1.226  0.00  0.00    +0.005 A 
ATOM     21  C   UNL     1      -0.683   5.581   1.233  0.00  0.00    +0.000 A 
ATOM     22  C   UNL     1      -0.572   6.269   0.039  0.00  0.00    +0.000 A 
ATOM     23  C   UNL     1      -0.694   5.594  -1.161  0.00  0.00    +0.000 A 
ATOM     24  C   UNL     1      -0.928   4.232  -1.168  0.00  0.00    +0.005 A 
ENDBRANCH  18  19
ENDBRANCH  16  18
ENDBRANCH  14  16
ENDBRANCH   1  14
TORSDOF 7
