REMARK  Name = ZINC04293729
REMARK  5 active torsions:
REMARK  status: ('A' for Active; 'I' for Inactive)
REMARK    1  A    between atoms: N_5  and  C1*_6
REMARK    2  A    between atoms: C2*_8  and  O2*_18
REMARK    3  A    between atoms: C3*_10  and  O3*_17
REMARK    4  A    between atoms: C4*_12  and  C5*_15
REMARK    5  A    between atoms: C5*_15  and  O5*_16
REMARK                            x       y       z     vdW  Elec       q    Type
REMARK                         _______ _______ _______ _____ _____    ______ ____
ROOT
ATOM      1  C   UNL     1      -0.016   1.360   0.009  0.00  0.00    +0.203 A 
ATOM      2  N   UNL     1       1.199   1.822   0.000  0.00  0.00    -0.231 NA
ATOM      3  C   UNL     1       2.076   0.788  -0.013  0.00  0.00    +0.145 A 
ATOM      4  C   UNL     1       1.316  -0.398  -0.013  0.00  0.00    +0.169 A 
ATOM      5  N   UNL     1       0.002  -0.004   0.002  0.00  0.00    -0.285 N 
ATOM      6  N   UNL     1       1.944  -1.567  -0.024  0.00  0.00    -0.195 NA
ATOM      7  C   UNL     1       3.266  -1.618  -0.036  0.00  0.00    +0.216 A 
ATOM      8  N   UNL     1       4.016  -0.523  -0.037  0.00  0.00    -0.201 NA
ATOM      9  C   UNL     1       3.470   0.682  -0.027  0.00  0.00    +0.162 A 
ATOM     10 CL   UNL     1       4.465   2.105  -0.029  0.00  0.00    -0.060 Cl
ATOM     11  N   UNL     1       3.888  -2.855  -0.047  0.00  0.00    -0.327 N 
ATOM     12  H   UNL     1       3.356  -3.666  -0.046  0.00  0.00    +0.145 HD
ATOM     13  H   UNL     1       4.857  -2.911  -0.056  0.00  0.00    +0.145 HD
ENDROOT
BRANCH   5  14
ATOM     14  C1* UNL     1      -1.167  -0.887   0.009  0.00  0.00    +0.253 C 
ATOM     15  C2* UNL     1      -1.527  -1.291   1.461  0.00  0.00    +0.195 C 
ATOM     16  C3* UNL     1      -3.038  -1.618   1.309  0.00  0.00    +0.178 C 
ATOM     17  C4* UNL     1      -3.488  -0.601   0.239  0.00  0.00    +0.177 C 
ATOM     18  O4* UNL     1      -2.321  -0.189  -0.486  0.00  0.00    -0.346 OA
BRANCH  16  19
ATOM     19  O3* UNL     1      -3.224  -2.959   0.853  0.00  0.00    -0.386 OA
ATOM     20  H3* UNL     1      -4.151  -3.212   0.743  0.00  0.00    +0.210 HD
ENDBRANCH  16  19
BRANCH  15  21
ATOM     21  O2* UNL     1      -0.789  -2.443   1.873  0.00  0.00    -0.385 OA
ATOM     22  H2* UNL     1      -0.982  -2.732   2.775  0.00  0.00    +0.210 HD
ENDBRANCH  15  21
BRANCH  17  23
ATOM     23  C5* UNL     1      -4.486  -1.259  -0.716  0.00  0.00    +0.190 C 
BRANCH  23  24
ATOM     24  O5* UNL     1      -4.986  -0.282  -1.631  0.00  0.00    -0.392 OA
ATOM     25  H5* UNL     1      -5.625  -0.630  -2.267  0.00  0.00    +0.210 HD
ENDBRANCH  23  24
ENDBRANCH  17  23
ENDBRANCH   5  14
TORSDOF 5
