REMARK  Name = ZINC35269988
REMARK  0 active torsions:
REMARK  status: ('A' for Active; 'I' for Inactive)
REMARK                            x       y       z     vdW  Elec       q    Type
REMARK                         _______ _______ _______ _____ _____    ______ ____
ROOT
ATOM      1  C   UNL     1      -0.016   1.314   0.009  0.00  0.00    +0.223 A 
ATOM      2  N   UNL     1       1.095   2.012   0.002  0.00  0.00    -0.239 NA
ATOM      3  C   UNL     1       2.299   1.427  -0.012  0.00  0.00    +0.060 A 
ATOM      4  C   UNL     1       2.358   0.054  -0.020  0.00  0.00    +0.021 A 
ATOM      5  C   UNL     1       1.149  -0.655  -0.014  0.00  0.00    +0.137 A 
ATOM      6  N   UNL     1       0.002  -0.004   0.002  0.00  0.00    -0.224 NA
ATOM      7 CL   UNL     1       1.162  -2.391  -0.024  0.00  0.00    -0.062 Cl
ATOM      8  C   UNL     1       3.747  -0.578  -0.036  0.00  0.00    +0.109 C 
ATOM      9  S   UNL     1       4.804   0.848  -0.520  0.00  0.00    -0.150 S 
ATOM     10  C   UNL     1       3.631   2.174  -0.020  0.00  0.00    +0.125 C 
ENDROOT
TORSDOF 0
