REMARK  Name = ZINC41513622
REMARK  14 active torsions:
REMARK  status: ('A' for Active; 'I' for Inactive)
REMARK    1  A    between atoms: C_1  and  C_2
REMARK    2  A    between atoms: C_7  and  C_8
REMARK    3  A    between atoms: C_13  and  C_30
REMARK    4  A    between atoms: C_15  and  O_29
REMARK    5  A    between atoms: C_16  and  C_19
REMARK    6  A    between atoms: C_19  and  N_20
REMARK    7  A    between atoms: N_20  and  C_21
REMARK    8  A    between atoms: N_20  and  C_25
REMARK    9  A    between atoms: C_21  and  C_22
REMARK   10  A    between atoms: C_22  and  C_23
REMARK   11  A    between atoms: C_22  and  C_24
REMARK   12  A    between atoms: C_25  and  C_26
REMARK   13  A    between atoms: C_26  and  C_27
REMARK   14  A    between atoms: C_26  and  C_28
REMARK                            x       y       z     vdW  Elec       q    Type
REMARK                         _______ _______ _______ _____ _____    ______ ____
ROOT
ATOM      1  C   UNL     1       0.858   0.757   2.642  0.00  0.00    +0.058 C 
ATOM      2  C   UNL     1       0.573  -0.107   3.647  0.00  0.00    +0.176 C 
ATOM      3  C   UNL     1       0.661  -1.575   3.585  0.00  0.00    +0.232 C 
ATOM      4  O   UNL     1       1.000  -2.262   2.637  0.00  0.00    -0.283 OA
ATOM      5  C   UNL     1       0.249  -2.027   4.926  0.00  0.00    +0.071 A 
ATOM      6  C   UNL     1       0.118  -3.288   5.509  0.00  0.00    -0.033 A 
ATOM      7  C   UNL     1      -0.296  -3.398   6.806  0.00  0.00    +0.050 A 
ATOM      8  C   UNL     1      -0.588  -2.256   7.547  0.00  0.00    +0.122 A 
ATOM      9  C   UNL     1      -0.464  -0.998   6.980  0.00  0.00    +0.020 A 
ATOM     10  C   UNL     1      -0.043  -0.868   5.662  0.00  0.00    +0.145 A 
ATOM     11  O   UNL     1       0.161   0.224   4.894  0.00  0.00    -0.451 OA
ATOM     12  C   UNL     1       0.434  -4.526   4.710  0.00  0.00    +0.045 C 
ENDROOT
BRANCH   1  19
ATOM     13  C   UNL     1      -0.142   1.679   0.087  0.00  0.00    +0.044 C 
ATOM     14  C   UNL     1       1.002   0.701   0.159  0.00  0.00    -0.043 A 
ATOM     15  C   UNL     1       1.589   0.238  -0.999  0.00  0.00    +0.004 A 
ATOM     16  C   UNL     1       2.640  -0.661  -0.935  0.00  0.00    +0.000 A 
ATOM     17  C   UNL     1       3.110  -1.103   0.290  0.00  0.00    +0.001 A 
ATOM     18  C   UNL     1       2.533  -0.650   1.457  0.00  0.00    +0.008 A 
ATOM     19  C   UNL     1       1.474   0.264   1.402  0.00  0.00    -0.019 A 
ENDBRANCH   1  19
BRANCH   8  20
ATOM     20  O   UNL     1      -0.999  -2.376   8.835  0.00  0.00    -0.506 OA
ATOM     21  H   UNL     1      -0.277  -2.394   9.478  0.00  0.00    +0.292 HD
ENDBRANCH   8  20
BRANCH   9  22
ATOM     22  C   UNL     1      -0.784   0.230   7.793  0.00  0.00    -0.036 C 
BRANCH  22  23
ATOM     23  N   UNL     1       0.443   0.732   8.426  0.00  0.00    +0.383 N 
ATOM     24  H   UNL     1       0.243   1.596   8.908  0.00  0.00    -0.081 HD
BRANCH  23  25
ATOM     25  C   UNL     1       0.939  -0.261   9.388  0.00  0.00    -0.075 C 
BRANCH  25  26
ATOM     26  C   UNL     1      -0.036  -0.365  10.563  0.00  0.00    -0.034 C 
ATOM     27  C   UNL     1       0.464  -1.424  11.547  0.00  0.00    +0.005 C 
ATOM     28  C   UNL     1      -0.127   0.988  11.271  0.00  0.00    +0.005 C 
ENDBRANCH  25  26
ENDBRANCH  23  25
BRANCH  23  29
ATOM     29  C   UNL     1       1.463   0.970   7.397  0.00  0.00    -0.075 C 
BRANCH  29  30
ATOM     30  C   UNL     1       1.037   2.149   6.519  0.00  0.00    -0.034 C 
ATOM     31  C   UNL     1       0.933   3.412   7.377  0.00  0.00    +0.005 C 
ATOM     32  C   UNL     1       2.076   2.365   5.417  0.00  0.00    +0.005 C 
ENDBRANCH  29  30
ENDBRANCH  23  29
ENDBRANCH  22  23
ENDBRANCH   9  22
TORSDOF 8
