REMARK  Name = ZINC39738097
REMARK  6 active torsions:
REMARK  status: ('A' for Active; 'I' for Inactive)
REMARK    1  A    between atoms: C_7  and  S_31
REMARK    2  A    between atoms: C_9  and  N_12
REMARK    3  A    between atoms: C_10  and  O_11
REMARK    4  A    between atoms: N_13  and  C_14
REMARK    5  A    between atoms: C_18  and  C_20
REMARK    6  A    between atoms: C_21  and  C_22
REMARK                            x       y       z     vdW  Elec       q    Type
REMARK                         _______ _______ _______ _____ _____    ______ ____
ROOT
ATOM      1  C   UNL     1       6.081  -4.632   0.096  0.00  0.00    +0.087 A 
ATOM      2  C   UNL     1       7.284  -3.920   0.095  0.00  0.00    +0.029 A 
ATOM      3  C   UNL     1       8.488  -4.593   0.125  0.00  0.00    +0.003 A 
ATOM      4  C   UNL     1       8.514  -5.974   0.155  0.00  0.00    +0.008 A 
ATOM      5  C   UNL     1       7.320  -6.699   0.156  0.00  0.00    -0.023 A 
ATOM      6  C   UNL     1       6.100  -6.027   0.132  0.00  0.00    +0.037 A 
ENDROOT
BRANCH   1   8
ATOM      7  N   UNL     1       4.872  -2.675   0.032  0.00  0.00    -0.146 NA
ATOM      8  N   UNL     1       4.888  -3.964   0.066  0.00  0.00    -0.149 NA
BRANCH   7  17
ATOM      9  C   UNL     1      -0.016   1.356  -0.123  0.00  0.00    +0.001 A 
ATOM     10  C   UNL     1       1.168   2.090  -0.131  0.00  0.00    +0.001 A 
ATOM     11  C   UNL     1       2.378   1.465  -0.103  0.00  0.00    +0.012 A 
ATOM     12  C   UNL     1       2.436   0.062  -0.066  0.00  0.00    +0.028 A 
ATOM     13  C   UNL     1       1.231  -0.684  -0.058  0.00  0.00    +0.013 A 
ATOM     14  C   UNL     1       0.002  -0.005  -0.088  0.00  0.00    +0.010 A 
ATOM     15  C   UNL     1       1.280  -2.091  -0.021  0.00  0.00    +0.130 A 
ATOM     16  C   UNL     1       2.476  -2.732   0.008  0.00  0.00    +0.063 A 
ATOM     17  C   UNL     1       3.684  -2.009   0.002  0.00  0.00    +0.130 A 
ATOM     18  C   UNL     1       3.671  -0.615  -0.035  0.00  0.00    +0.152 A 
BRANCH  15  19
ATOM     19  S   UNL     1      -0.215  -3.022  -0.011  0.00  0.00    +0.140 S 
ATOM     20  O   UNL     1      -0.651  -3.136  -1.394  0.00  0.00    -0.140 OA
ATOM     21  O   UNL     1       0.099  -4.320   0.568  0.00  0.00    -0.140 OA
ATOM     22  O   UNL     1      -1.169  -2.282   0.800  0.00  0.00    -0.043 OA
ENDBRANCH  15  19
BRANCH  18  23
ATOM     23  O   UNL     1       4.834   0.082  -0.043  0.00  0.00    -0.504 OA
ATOM     24  H   UNL     1       5.162   0.307   0.839  0.00  0.00    +0.292 HD
ENDBRANCH  18  23
ENDBRANCH   7  17
ENDBRANCH   1   8
BRANCH   5  25
ATOM     25  C   UNL     1       7.350  -8.177   0.189  0.00  0.00    +0.007 C 
ATOM     26  C   UNL     1       8.512  -8.815   0.217  0.00  0.00    +0.020 C 
BRANCH  26  27
ATOM     27  C   UNL     1       8.543 -10.321   0.250  0.00  0.00    +0.198 C 
ATOM     28  N   UNL     1       9.291 -10.784   1.425  0.00  0.00    -0.360 N 
ATOM     29  C   UNL     1      10.306 -11.477   0.995  0.00  0.00    +0.060 A 
ATOM     30  C   UNL     1      11.396 -12.184   1.681  0.00  0.00    +0.027 A 
ATOM     31  C   UNL     1      12.329 -12.831   0.955  0.00  0.00    +0.002 A 
ATOM     32  C   UNL     1      12.309 -12.862  -0.451  0.00  0.00    +0.002 A 
ATOM     33  C   UNL     1      11.355 -12.247  -1.178  0.00  0.00    +0.027 A 
ATOM     34  C   UNL     1      10.284 -11.510  -0.493  0.00  0.00    +0.060 A 
ATOM     35  N   UNL     1       9.257 -10.836  -0.925  0.00  0.00    -0.360 N 
ATOM     36  H   UNL     1       9.070 -10.606   2.353  0.00  0.00    +0.162 HD
ATOM     37  H   UNL     1       9.009 -10.700  -1.853  0.00  0.00    +0.162 HD
ENDBRANCH  26  27
ENDBRANCH   5  25
TORSDOF 6
