REMARK  Name = ZINC58963635
REMARK  13 active torsions:
REMARK  status: ('A' for Active; 'I' for Inactive)
REMARK    1  A    between atoms: C_1  and  C_2
REMARK    2  A    between atoms: C_2  and  C_4
REMARK    3  A    between atoms: C_2  and  S_16
REMARK    4  A    between atoms: N_6  and  C_7
REMARK    5  A    between atoms: C_10  and  C_13
REMARK    6  A    between atoms: C_13  and  C_15
REMARK    7  A    between atoms: S_16  and  C_17
REMARK    8  A    between atoms: C_19  and  C_27
REMARK    9  A    between atoms: C_21  and  C_23
REMARK   10  A    between atoms: C_30  and  O_35
REMARK   11  A    between atoms: C_31  and  O_33
REMARK   12  A    between atoms: O_33  and  C_34
REMARK   13  A    between atoms: O_35  and  C_36
REMARK                            x       y       z     vdW  Elec       q    Type
REMARK                         _______ _______ _______ _____ _____    ______ ____
ROOT
ATOM      1  C   UNL     1      -2.366  -0.107  -1.526  0.00  0.00    +0.190 A 
ATOM      2  N   UNL     1      -3.621  -0.405  -1.823  0.00  0.00    -0.222 NA
ATOM      3  C   UNL     1      -4.153  -0.021  -2.982  0.00  0.00    +0.076 A 
ATOM      4  C   UNL     1      -3.365   0.703  -3.881  0.00  0.00    +0.060 A 
ATOM      5  C   UNL     1      -2.059   0.993  -3.529  0.00  0.00    +0.148 A 
ATOM      6  N   UNL     1      -1.598   0.583  -2.358  0.00  0.00    -0.218 NA
ENDROOT
BRANCH   3   7
ATOM      7  C   UNL     1      -5.558  -0.356  -3.313  0.00  0.00    +0.004 A 
ATOM      8  C   UNL     1      -6.103   0.046  -4.532  0.00  0.00    +0.014 A 
ATOM      9  C   UNL     1      -7.411  -0.267  -4.839  0.00  0.00    +0.050 A 
ATOM     10  C   UNL     1      -8.186  -0.981  -3.938  0.00  0.00    +0.162 A 
ATOM     11  C   UNL     1      -7.647  -1.386  -2.719  0.00  0.00    +0.162 A 
ATOM     12  C   UNL     1      -6.335  -1.079  -2.409  0.00  0.00    +0.059 A 
BRANCH  11  13
ATOM     13  O   UNL     1      -8.409  -2.086  -1.837  0.00  0.00    -0.491 OA
ATOM     14  C   UNL     1      -7.792  -2.468  -0.607  0.00  0.00    +0.277 C 
ENDBRANCH  11  13
BRANCH  10  15
ATOM     15  O   UNL     1      -9.475  -1.287  -4.245  0.00  0.00    -0.491 OA
ATOM     16  C   UNL     1      -9.963  -0.841  -5.512  0.00  0.00    +0.277 C 
ENDBRANCH  10  15
ENDBRANCH   3   7
BRANCH   5  17
ATOM     17  C   UNL     1      -1.172   1.770  -4.467  0.00  0.00    +0.434 C 
ATOM     18  F   UNL     1      -1.297   3.138  -4.201  0.00  0.00    -0.164 F 
ATOM     19  F   UNL     1       0.159   1.379  -4.282  0.00  0.00    -0.164 F 
ATOM     20  F   UNL     1      -1.553   1.516  -5.788  0.00  0.00    -0.164 F 
ENDBRANCH   5  17
BRANCH   1  21
ATOM     21  S   UNL     1      -1.701  -0.633   0.019  0.00  0.00    -0.074 S 
BRANCH  21  23
ATOM     22  C   UNL     1      -0.015   1.520  -0.006  0.00  0.00    +0.029 C 
ATOM     23  C   UNL     1       0.002  -0.010  -0.001  0.00  0.00    +0.137 C 
BRANCH  23  24
ATOM     24  C   UNL     1       0.731  -0.500   1.224  0.00  0.00    +0.230 C 
ATOM     25  O   UNL     1       0.105  -0.878   2.191  0.00  0.00    -0.274 OA
ATOM     26  N   UNL     1       2.079  -0.519   1.244  0.00  0.00    -0.285 N 
ATOM     27  H   UNL     1       2.579  -0.280   0.448  0.00  0.00    +0.155 HD
BRANCH  26  28
ATOM     28  C   UNL     1       2.753  -0.881   2.408  0.00  0.00    +0.033 A 
ATOM     29  C   UNL     1       3.955  -0.260   2.735  0.00  0.00    +0.024 A 
ATOM     30  C   UNL     1       4.622  -0.613   3.880  0.00  0.00    +0.013 A 
ATOM     31  C   UNL     1       4.092  -1.600   4.720  0.00  0.00    +0.017 A 
ATOM     32  C   UNL     1       2.882  -2.222   4.387  0.00  0.00    +0.013 A 
ATOM     33  C   UNL     1       2.219  -1.859   3.243  0.00  0.00    +0.024 A 
BRANCH  31  34
ATOM     34  C   UNL     1       4.803  -1.982   5.947  0.00  0.00    +0.160 C 
ATOM     35  O   UNL     1       5.851  -1.443   6.234  0.00  0.00    -0.292 OA
ATOM     36  C   UNL     1       4.230  -3.044   6.850  0.00  0.00    +0.091 C 
ENDBRANCH  31  34
ENDBRANCH  26  28
ENDBRANCH  23  24
ENDBRANCH  21  23
ENDBRANCH   1  21
TORSDOF 9
