REMARK  Name = ZINC12953517
REMARK  10 active torsions:
REMARK  status: ('A' for Active; 'I' for Inactive)
REMARK    1  A    between atoms: C_1  and  C_2
REMARK    2  A    between atoms: C_3  and  C_24
REMARK    3  A    between atoms: C_5  and  C_14
REMARK    4  A    between atoms: N_6  and  C_7
REMARK    5  A    between atoms: C_17  and  S_20
REMARK    6  A    between atoms: S_20  and  C_23
REMARK    7  A    between atoms: C_24  and  C_36
REMARK    8  A    between atoms: N_25  and  O_26
REMARK    9  A    between atoms: O_26  and  C_27
REMARK   10  A    between atoms: C_27  and  C_29
REMARK                            x       y       z     vdW  Elec       q    Type
REMARK                         _______ _______ _______ _____ _____    ______ ____
ROOT
ATOM      1  C   UNL     1       1.841   3.240  -0.066  0.00  0.00    +0.064 C 
ATOM      2  C   UNL     1       1.328   1.823  -0.033  0.00  0.00    +0.031 A 
ATOM      3  C   UNL     1       0.040   1.437   0.262  0.00  0.00    +0.030 A 
ATOM      4  C   UNL     1      -0.000   0.022   0.178  0.00  0.00    +0.038 A 
ATOM      5  C   UNL     1       1.247  -0.397  -0.160  0.00  0.00    +0.055 A 
ATOM      6  N   UNL     1       2.057   0.705  -0.288  0.00  0.00    -0.313 N 
ENDROOT
BRANCH   6   7
ATOM      7  C   UNL     1       3.417   0.681  -0.628  0.00  0.00    +0.047 A 
ATOM      8  C   UNL     1       4.346   0.155   0.261  0.00  0.00    +0.029 A 
ATOM      9  C   UNL     1       5.684   0.127  -0.078  0.00  0.00    +0.040 A 
ATOM     10  C   UNL     1       6.102   0.632  -1.298  0.00  0.00    +0.124 A 
ATOM     11  C   UNL     1       5.178   1.161  -2.183  0.00  0.00    +0.040 A 
ATOM     12  C   UNL     1       3.837   1.187  -1.850  0.00  0.00    +0.029 A 
ATOM     13  F   UNL     1       7.412   0.608  -1.625  0.00  0.00    -0.205 F 
ENDBRANCH   6   7
BRANCH   5  14
ATOM     14  C   UNL     1       1.662  -1.803  -0.356  0.00  0.00    -0.001 A 
ATOM     15  C   UNL     1       2.800  -2.099  -1.109  0.00  0.00    +0.012 A 
ATOM     16  C   UNL     1       3.185  -3.412  -1.283  0.00  0.00    +0.027 A 
ATOM     17  C   UNL     1       2.441  -4.435  -0.723  0.00  0.00    +0.088 A 
ATOM     18  C   UNL     1       1.309  -4.149   0.020  0.00  0.00    +0.027 A 
ATOM     19  C   UNL     1       0.916  -2.839   0.206  0.00  0.00    +0.012 A 
BRANCH  17  20
ATOM     20  S   UNL     1       2.936  -6.110  -0.957  0.00  0.00    -0.006 S 
ATOM     21  O   UNL     1       4.338  -6.046  -1.175  0.00  0.00    -0.170 OA
ATOM     22  O   UNL     1       2.408  -6.804   0.165  0.00  0.00    -0.170 OA
ATOM     23  C   UNL     1       2.091  -6.638  -2.473  0.00  0.00    +0.200 C 
ENDBRANCH  17  20
ENDBRANCH   5  14
BRANCH   3  24
ATOM     24  C   UNL     1      -1.087   2.326   0.595  0.00  0.00    +0.192 C 
ATOM     25  N   UNL     1      -0.910   3.609   0.636  0.00  0.00    -0.069 NA
BRANCH  24  26
ATOM     26  C   UNL     1      -2.446   1.744   0.888  0.00  0.00    +0.438 C 
ATOM     27  F   UNL     1      -3.344   2.778   1.175  0.00  0.00    -0.164 F 
ATOM     28  F   UNL     1      -2.898   1.030  -0.227  0.00  0.00    -0.164 F 
ATOM     29  F   UNL     1      -2.357   0.884   1.988  0.00  0.00    -0.164 F 
ENDBRANCH  24  26
BRANCH  25  30
ATOM     30  O   UNL     1      -1.841   4.344   0.912  0.00  0.00    -0.311 OA
BRANCH  30  31
ATOM     31  C   UNL     1      -1.589   5.667   0.937  0.00  0.00    +0.366 C 
ATOM     32  O   UNL     1      -0.471   6.077   0.692  0.00  0.00    -0.243 OA
BRANCH  31  33
ATOM     33  C   UNL     1      -2.670   6.618   1.264  0.00  0.00    +0.061 A 
ATOM     34  C   UNL     1      -3.956   6.150   1.541  0.00  0.00    +0.016 A 
ATOM     35  C   UNL     1      -4.960   7.043   1.851  0.00  0.00    +0.021 A 
ATOM     36  C   UNL     1      -4.697   8.403   1.876  0.00  0.00    +0.041 A 
ATOM     37  C   UNL     1      -3.425   8.874   1.596  0.00  0.00    +0.021 A 
ATOM     38  C   UNL     1      -2.411   7.990   1.291  0.00  0.00    +0.016 A 
ATOM     39 CL   UNL     1      -5.968   9.522   2.259  0.00  0.00    -0.084 Cl
ENDBRANCH  31  33
ENDBRANCH  30  31
ENDBRANCH  25  30
ENDBRANCH   3  24
TORSDOF 8
