REMARK  Name = ZINC39161259
REMARK  6 active torsions:
REMARK  status: ('A' for Active; 'I' for Inactive)
REMARK    1  A    between atoms: C_1  and  C_2
REMARK    2  A    between atoms: C_2  and  C_3
REMARK    3  A    between atoms: C_6  and  C_24
REMARK    4  A    between atoms: C_8  and  N_11
REMARK    5  A    between atoms: C_12  and  C_14
REMARK    6  A    between atoms: C_14  and  C_15
REMARK                            x       y       z     vdW  Elec       q    Type
REMARK                         _______ _______ _______ _____ _____    ______ ____
ROOT
ATOM      1  N   UNL     1      -3.513  -2.377  -2.854  0.00  0.00    -0.303 N 
ATOM      2  C   UNL     1      -4.611  -2.260  -3.627  0.00  0.00    +0.218 C 
ATOM      3  O   UNL     1      -5.550  -1.593  -3.249  0.00  0.00    -0.275 OA
ATOM      4  H   UNL     1      -2.761  -2.911  -3.156  0.00  0.00    +0.150 HD
ENDROOT
BRANCH   1   8
ATOM      5  C   UNL     1      -1.418  -0.681   0.050  0.00  0.00    +0.049 C 
ATOM      6  C   UNL     1      -1.559  -2.229   0.090  0.00  0.00    +0.029 C 
ATOM      7  C   UNL     1      -2.916  -2.652  -0.470  0.00  0.00    +0.106 C 
ATOM      8  C   UNL     1      -3.456  -1.701  -1.556  0.00  0.00    +0.143 C 
ATOM      9  S   UNL     1      -2.214  -0.340  -1.581  0.00  0.00    -0.134 S 
BRANCH   7  10
ATOM     10  C   UNL     1      -2.785  -4.031  -1.062  0.00  0.00    +0.216 C 
ATOM     11  O   UNL     1      -1.744  -4.371  -1.583  0.00  0.00    -0.276 OA
ATOM     12  N   UNL     1      -3.825  -4.887  -1.014  0.00  0.00    -0.329 N 
ATOM     13  H   UNL     1      -4.658  -4.615  -0.598  0.00  0.00    +0.145 HD
ATOM     14  H   UNL     1      -3.741  -5.775  -1.395  0.00  0.00    +0.145 HD
ENDBRANCH   7  10
BRANCH   5  16
ATOM     15  C   UNL     1       0.139   1.273   0.035  0.00  0.00    +0.005 C 
ATOM     16  C   UNL     1       0.051  -0.255   0.054  0.00  0.00    +0.011 C 
ENDBRANCH   5  16
ENDBRANCH   1   8
BRANCH   2  17
ATOM     17  C   UNL     1      -4.670  -2.956  -4.963  0.00  0.00    +0.133 C 
BRANCH  17  18
ATOM     18  C   UNL     1      -5.993  -2.665  -5.623  0.00  0.00    -0.014 A 
ATOM     19  C   UNL     1      -6.321  -1.493  -6.438  0.00  0.00    +0.003 A 
ATOM     20  C   UNL     1      -5.609  -0.364  -6.845  0.00  0.00    +0.010 A 
ATOM     21  C   UNL     1      -6.218   0.577  -7.627  0.00  0.00    +0.001 A 
ATOM     22  C   UNL     1      -7.539   0.419  -8.020  0.00  0.00    +0.002 A 
ATOM     23  C   UNL     1      -8.261  -0.688  -7.630  0.00  0.00    +0.026 A 
ATOM     24  C   UNL     1      -7.661  -1.658  -6.834  0.00  0.00    +0.047 A 
ATOM     25  N   UNL     1      -8.101  -2.846  -6.293  0.00  0.00    -0.360 N 
ATOM     26  C   UNL     1      -7.092  -3.434  -5.580  0.00  0.00    +0.087 A 
ATOM     27  H   UNL     1      -8.992  -3.212  -6.404  0.00  0.00    +0.165 HD
ENDBRANCH  17  18
ENDBRANCH   2  17
TORSDOF 5
