REMARK  Name = ZINC16976908
REMARK  5 active torsions:
REMARK  status: ('A' for Active; 'I' for Inactive)
REMARK    1  A    between atoms: C_4  and  C_7
REMARK    2  A    between atoms: C_12  and  C_14
REMARK    3  A    between atoms: N_16  and  C_17
REMARK    4  A    between atoms: N_26  and  C_27
REMARK    5  A    between atoms: C_27  and  C_28
REMARK                            x       y       z     vdW  Elec       q    Type
REMARK                         _______ _______ _______ _____ _____    ______ ____
ROOT
ATOM      1  C   UNL     1       3.690  -0.677  -0.033  0.00  0.00    +0.091 C 
ATOM      2  N   UNL     1       4.783   0.004  -0.041  0.00  0.00    -0.175 NA
ATOM      3  N   UNL     1       5.983  -0.402  -0.089  0.00  0.00    -0.258 N 
ATOM      4  C   UNL     1       6.363  -1.595  -0.499  0.00  0.00    +0.149 C 
ATOM      5  S   UNL     1       5.115  -2.730  -1.037  0.00  0.00    -0.072 S 
ATOM      6  C   UNL     1       3.680  -2.188  -0.045  0.00  0.00    +0.190 C 
ATOM      7  N   UNL     1       7.690  -1.949  -0.509  0.00  0.00    -0.320 N 
ATOM      8  H   UNL     1       7.954  -2.831  -0.814  0.00  0.00    +0.148 HD
ATOM      9  H   UNL     1       6.676   0.214   0.197  0.00  0.00    +0.191 HD
ENDROOT
BRANCH   1  13
ATOM     10  C   UNL     1      -0.011   1.394   0.044  0.00  0.00    +0.000 A 
ATOM     11  C   UNL     1       1.176   2.106   0.031  0.00  0.00    +0.001 A 
ATOM     12  C   UNL     1       2.383   1.440   0.006  0.00  0.00    +0.010 A 
ATOM     13  C   UNL     1       2.406   0.042  -0.006  0.00  0.00    -0.000 A 
ATOM     14  C   UNL     1       1.202  -0.670   0.008  0.00  0.00    +0.010 A 
ATOM     15  C   UNL     1       0.003   0.010   0.033  0.00  0.00    +0.001 A 
ENDBRANCH   1  13
BRANCH   6  16
ATOM     16  C   UNL     1       3.798  -2.713   1.363  0.00  0.00    +0.237 C 
ATOM     17  O   UNL     1       4.401  -2.074   2.200  0.00  0.00    -0.274 OA
ATOM     18  N   UNL     1       3.234  -3.891   1.693  0.00  0.00    -0.284 N 
ATOM     19  H   UNL     1       2.695  -4.370   1.043  0.00  0.00    +0.155 HD
BRANCH  18  20
ATOM     20  C   UNL     1       3.425  -4.425   2.974  0.00  0.00    +0.037 A 
ATOM     21  C   UNL     1       3.536  -5.799   3.144  0.00  0.00    +0.027 A 
ATOM     22  C   UNL     1       3.724  -6.327   4.407  0.00  0.00    +0.051 A 
ATOM     23  C   UNL     1       3.803  -5.488   5.506  0.00  0.00    +0.166 A 
ATOM     24  C   UNL     1       3.692  -4.110   5.339  0.00  0.00    +0.168 A 
ATOM     25  C   UNL     1       3.508  -3.581   4.072  0.00  0.00    +0.072 A 
ATOM     26  O   UNL     1       3.800  -3.512   6.561  0.00  0.00    -0.453 OA
ATOM     27  C   UNL     1       3.569  -4.558   7.523  0.00  0.00    +0.466 C 
ATOM     28  O   UNL     1       3.981  -5.753   6.835  0.00  0.00    -0.453 OA
ENDBRANCH  18  20
ENDBRANCH   6  16
BRANCH   7  29
ATOM     29  C   UNL     1       8.706  -0.993  -0.061  0.00  0.00    +0.138 C 
BRANCH  29  30
ATOM     30  C   UNL     1      10.070  -1.623  -0.170  0.00  0.00    -0.027 A 
ATOM     31  C   UNL     1      10.590  -2.332   0.896  0.00  0.00    +0.009 A 
ATOM     32  C   UNL     1      11.842  -2.912   0.800  0.00  0.00    +0.050 A 
ATOM     33  C   UNL     1      12.578  -2.783  -0.366  0.00  0.00    +0.166 A 
ATOM     34  C   UNL     1      12.055  -2.068  -1.440  0.00  0.00    +0.167 A 
ATOM     35  C   UNL     1      10.797  -1.494  -1.339  0.00  0.00    +0.054 A 
ATOM     36  O   UNL     1      12.962  -2.085  -2.460  0.00  0.00    -0.453 OA
ATOM     37  C   UNL     1      14.212  -2.468  -1.855  0.00  0.00    +0.466 C 
ATOM     38  O   UNL     1      13.814  -3.248  -0.712  0.00  0.00    -0.453 OA
ENDBRANCH  29  30
ENDBRANCH   7  29
TORSDOF 5
