REMARK  Name = ZINC13163357
REMARK  9 active torsions:
REMARK  status: ('A' for Active; 'I' for Inactive)
REMARK    1  A    between atoms: C_1  and  C_2
REMARK    2  A    between atoms: C_2  and  C_4
REMARK    3  A    between atoms: C_2  and  N_57
REMARK    4  A    between atoms: N_6  and  C_7
REMARK    5  A    between atoms: C_8  and  C_15
REMARK    6  A    between atoms: C_22  and  O_29
REMARK    7  A    between atoms: C_23  and  O_27
REMARK    8  A    between atoms: O_27  and  C_28
REMARK    9  A    between atoms: O_29  and  C_30
REMARK                            x       y       z     vdW  Elec       q    Type
REMARK                         _______ _______ _______ _____ _____    ______ ____
ROOT
ATOM      1  C   UNL     1       1.411   1.305  -0.513  0.00  0.00    -0.004 C 
ATOM      2  C   UNL     1      -0.018   1.465   0.010  0.00  0.00    +0.017 C 
ENDROOT
BRANCH   2  12
ATOM      3  C   UNL     1      -1.850   0.297   1.084  0.00  0.00    -0.073 C 
ATOM      4  C   UNL     1      -2.470  -1.095   1.207  0.00  0.00    +0.017 C 
ATOM      5  C   UNL     1      -1.495  -2.035   1.869  0.00  0.00    -0.044 A 
ATOM      6  C   UNL     1      -1.978  -3.227   2.389  0.00  0.00    +0.053 A 
ATOM      7  C   UNL     1      -1.119  -4.122   3.002  0.00  0.00    +0.162 A 
ATOM      8  C   UNL     1       0.237  -3.823   3.095  0.00  0.00    +0.162 A 
ATOM      9  C   UNL     1       0.713  -2.633   2.575  0.00  0.00    +0.051 A 
ATOM     10  C   UNL     1      -0.152  -1.737   1.963  0.00  0.00    -0.057 A 
ATOM     11  C   UNL     1       0.416  -0.451   1.423  0.00  0.00    -0.042 C 
ATOM     12  N   UNL     1      -0.522   0.146   0.457  0.00  0.00    +0.390 N 
ATOM     13  H   UNL     1      -0.604  -0.473  -0.358  0.00  0.00    -0.080 HD
BRANCH   8  14
ATOM     14  O   UNL     1       1.090  -4.697   3.693  0.00  0.00    -0.491 OA
ATOM     15  C   UNL     1       2.467  -4.322   3.752  0.00  0.00    +0.277 C 
ENDBRANCH   8  14
BRANCH   7  16
ATOM     16  O   UNL     1      -1.598  -5.289   3.512  0.00  0.00    -0.491 OA
ATOM     17  C   UNL     1      -3.001  -5.527   3.380  0.00  0.00    +0.277 C 
ENDBRANCH   7  16
ENDBRANCH   2  12
BRANCH   2  18
ATOM     18  C   UNL     1      -0.903   1.979  -1.096  0.00  0.00    +0.204 C 
ATOM     19  O   UNL     1      -1.515   1.199  -1.795  0.00  0.00    -0.277 OA
ATOM     20  N   UNL     1      -1.016   3.305  -1.307  0.00  0.00    -0.281 N 
ATOM     21  H   UNL     1      -0.527   3.929  -0.748  0.00  0.00    +0.155 HD
BRANCH  20  22
ATOM     22  C   UNL     1      -1.831   3.778  -2.325  0.00  0.00    +0.084 A 
ATOM     23  C   UNL     1      -2.078   5.090  -2.690  0.00  0.00    +0.068 A 
ATOM     24  C   UNL     1      -2.984   5.322  -3.814  0.00  0.00    -0.023 A 
ATOM     25  C   UNL     1      -3.495   4.210  -4.373  0.00  0.00    -0.004 A 
ATOM     26  S   UNL     1      -2.793   2.871  -3.442  0.00  0.00    -0.077 S 
ATOM     27  C   UNL     1      -4.419   4.529  -5.518  0.00  0.00    +0.043 C 
ATOM     28  C   UNL     1      -4.088   5.991  -5.889  0.00  0.00    +0.010 C 
ATOM     29  C   UNL     1      -3.541   6.537  -4.556  0.00  0.00    +0.037 C 
BRANCH  23  30
ATOM     30  C   UNL     1      -1.450   6.208  -1.978  0.00  0.00    +0.244 C 
ATOM     31  O   UNL     1      -0.374   6.639  -2.350  0.00  0.00    -0.270 OA
ATOM     32  N   UNL     1      -2.063   6.757  -0.911  0.00  0.00    -0.325 N 
ATOM     33  H   UNL     1      -2.920   6.413  -0.614  0.00  0.00    +0.145 HD
ATOM     34  H   UNL     1      -1.647   7.496  -0.440  0.00  0.00    +0.145 HD
ENDBRANCH  23  30
ENDBRANCH  20  22
ENDBRANCH   2  18
TORSDOF 6
