REMARK  Name = ZINC31157383
REMARK  15 active torsions:
REMARK  status: ('A' for Active; 'I' for Inactive)
REMARK    1  A    between atoms: C_1  and  C_2
REMARK    2  A    between atoms: C_3  and  C_4
REMARK    3  A    between atoms: C_3  and  C_5
REMARK    4  A    between atoms: C_5  and  O_7
REMARK    5  A    between atoms: O_7  and  C_8
REMARK    6  A    between atoms: C_11  and  C_36
REMARK    7  A    between atoms: C_13  and  O_26
REMARK    8  A    between atoms: C_17  and  C_25
REMARK    9  A    between atoms: C_20  and  C_21
REMARK   10  A    between atoms: C_20  and  O_24
REMARK   11  A    between atoms: C_21  and  C_22
REMARK   12  A    between atoms: C_21  and  C_23
REMARK   13  A    between atoms: O_26  and  C_27
REMARK   14  A    between atoms: C_27  and  C_29
REMARK   15  A    between atoms: C_32  and  O_35
REMARK                            x       y       z     vdW  Elec       q    Type
REMARK                         _______ _______ _______ _____ _____    ______ ____
ROOT
ATOM      1  C   UNL     1       2.355   0.224  -4.169  0.00  0.00    +0.206 C 
ATOM      2  C   UNL     1       3.815   0.498  -3.861  0.00  0.00    +0.016 C 
ATOM      3  C   UNL     1       4.497   1.332  -4.595  0.00  0.00    -0.070 C 
ATOM      4  C   UNL     1       3.858   2.093  -5.737  0.00  0.00    +0.075 C 
ATOM      5  C   UNL     1       3.594   1.137  -6.910  0.00  0.00    +0.187 C 
ATOM      6  C   UNL     1       2.292   0.412  -6.674  0.00  0.00    +0.072 C 
ATOM      7  C   UNL     1       2.319  -0.536  -5.483  0.00  0.00    +0.018 C 
ATOM      8  C   UNL     1       1.077  -1.415  -5.662  0.00  0.00    +0.014 C 
ATOM      9  C   UNL     1       0.779  -1.410  -7.180  0.00  0.00    +0.036 C 
ATOM     10  C   UNL     1       1.856  -0.506  -7.828  0.00  0.00    +0.075 C 
ATOM     11  C   UNL     1       3.560  -1.425  -5.583  0.00  0.00    +0.016 C 
ATOM     12  C   UNL     1       5.958   1.546  -4.298  0.00  0.00    +0.039 C 
ENDROOT
BRANCH  10  13
ATOM     13  C   UNL     1       1.237   0.312  -8.963  0.00  0.00    +0.015 C 
ATOM     14  C   UNL     1       0.700  -0.634 -10.040  0.00  0.00    +0.010 C 
ATOM     15  C   UNL     1       0.090   1.162  -8.414  0.00  0.00    +0.010 C 
ENDBRANCH  10  13
BRANCH  10  16
ATOM     16  O   UNL     1       2.960  -1.277  -8.304  0.00  0.00    -0.388 OA
ATOM     17  H   UNL     1       2.739  -1.873  -9.033  0.00  0.00    +0.210 HD
ENDBRANCH  10  16
BRANCH   1  18
ATOM     18  O   UNL     1       1.777  -0.568  -3.129  0.00  0.00    -0.453 OA
BRANCH  18  19
ATOM     19  C   UNL     1       1.194   0.093  -2.109  0.00  0.00    +0.335 C 
ATOM     20  O   UNL     1       1.177   1.308  -2.103  0.00  0.00    -0.245 OA
BRANCH  19  23
ATOM     21  C   UNL     1      -0.018   1.503   0.010  0.00  0.00    +0.036 C 
ATOM     22  C   UNL     1       0.002  -0.004   0.002  0.00  0.00    -0.020 C 
ATOM     23  C   UNL     1       0.578  -0.656  -1.005  0.00  0.00    +0.029 C 
ATOM     24  C   UNL     1       0.598  -2.163  -1.014  0.00  0.00    +0.051 C 
ENDBRANCH  19  23
ENDBRANCH  18  19
ENDBRANCH   1  18
BRANCH   5  25
ATOM     25  O   UNL     1       3.513   1.883  -8.125  0.00  0.00    -0.457 OA
BRANCH  25  26
ATOM     26  C   UNL     1       4.661   2.072  -8.805  0.00  0.00    +0.339 C 
ATOM     27  O   UNL     1       5.702   1.615  -8.378  0.00  0.00    -0.245 OA
BRANCH  26  28
ATOM     28  C   UNL     1       4.653   2.832 -10.069  0.00  0.00    +0.059 A 
ATOM     29  C   UNL     1       3.457   3.364 -10.560  0.00  0.00    +0.018 A 
ATOM     30  C   UNL     1       3.454   4.074 -11.739  0.00  0.00    +0.046 A 
ATOM     31  C   UNL     1       4.639   4.262 -12.442  0.00  0.00    +0.117 A 
ATOM     32  C   UNL     1       5.831   3.735 -11.957  0.00  0.00    +0.046 A 
ATOM     33  C   UNL     1       5.843   3.029 -10.776  0.00  0.00    +0.018 A 
BRANCH  31  34
ATOM     34  O   UNL     1       4.632   4.962 -13.605  0.00  0.00    -0.507 OA
ATOM     35  H   UNL     1       4.777   5.911 -13.493  0.00  0.00    +0.292 HD
ENDBRANCH  31  34
ENDBRANCH  26  28
ENDBRANCH  25  26
ENDBRANCH   5  25
TORSDOF 9
