REMARK  Name = ZINC36597958
REMARK  14 active torsions:
REMARK  status: ('A' for Active; 'I' for Inactive)
REMARK    1  A    between atoms: C_1  and  C_2
REMARK    2  A    between atoms: C_5  and  C_7
REMARK    3  A    between atoms: C_7  and  N_8
REMARK    4  A    between atoms: N_8  and  C_9
REMARK    5  A    between atoms: C_9  and  C_11
REMARK    6  A    between atoms: C_9  and  C_19
REMARK    7  A    between atoms: C_14  and  O_17
REMARK    8  A    between atoms: O_17  and  C_18
REMARK    9  A    between atoms: N_21  and  C_22
REMARK   10  A    between atoms: C_22  and  C_23
REMARK   11  A    between atoms: C_22  and  C_24
REMARK   12  A    between atoms: C_22  and  C_25
REMARK   13  A    between atoms: C_26  and  C_28
REMARK   14  A    between atoms: C_28  and  C_29
REMARK                            x       y       z     vdW  Elec       q    Type
REMARK                         _______ _______ _______ _____ _____    ______ ____
ROOT
ATOM      1  N   UNL     1       2.309  -4.112  -2.393  0.00  0.00    -0.278 N 
ATOM      2  C   UNL     1       1.054  -3.996  -2.872  0.00  0.00    +0.221 C 
ATOM      3  O   UNL     1       0.601  -2.900  -3.126  0.00  0.00    -0.275 OA
ENDROOT
BRANCH   1   4
ATOM      4  C   UNL     1       2.856  -5.436  -2.086  0.00  0.00    +0.183 C 
BRANCH   4   9
ATOM      5  C   UNL     1       2.284  -6.104   2.880  0.00  0.00    +0.086 C 
ATOM      6  C   UNL     1       2.059  -6.203   1.393  0.00  0.00    +0.102 A 
ATOM      7  C   UNL     1       1.086  -6.910   0.790  0.00  0.00    +0.045 A 
ATOM      8  C   UNL     1       1.247  -6.723  -0.602  0.00  0.00    +0.046 A 
ATOM      9  C   UNL     1       2.308  -5.913  -0.766  0.00  0.00    +0.122 A 
ATOM     10  O   UNL     1       2.792  -5.596   0.446  0.00  0.00    -0.463 OA
ENDBRANCH   4   9
ENDBRANCH   1   4
BRANCH   1  11
ATOM     11  C   UNL     1       3.125  -2.914  -2.179  0.00  0.00    +0.193 C 
BRANCH  11  12
ATOM     12  C   UNL     1       2.315  -1.880  -1.441  0.00  0.00    -0.018 A 
ATOM     13  C   UNL     1       1.601  -2.238  -0.313  0.00  0.00    +0.009 A 
ATOM     14  C   UNL     1       0.857  -1.292   0.365  0.00  0.00    +0.046 A 
ATOM     15  C   UNL     1       0.827   0.019  -0.088  0.00  0.00    +0.120 A 
ATOM     16  C   UNL     1       1.544   0.377  -1.220  0.00  0.00    +0.046 A 
ATOM     17  C   UNL     1       2.291  -0.573  -1.891  0.00  0.00    +0.009 A 
BRANCH  15  18
ATOM     18  O   UNL     1       0.095   0.952   0.577  0.00  0.00    -0.495 OA
ATOM     19  C   UNL     1       0.111   2.282   0.054  0.00  0.00    +0.277 C 
ENDBRANCH  15  18
ENDBRANCH  11  12
BRANCH  11  20
ATOM     20  C   UNL     1       4.341  -3.274  -1.365  0.00  0.00    +0.238 C 
ATOM     21  O   UNL     1       4.229  -3.989  -0.391  0.00  0.00    -0.273 OA
ATOM     22  N   UNL     1       5.553  -2.801  -1.718  0.00  0.00    -0.309 N 
ATOM     23  H   UNL     1       5.642  -2.230  -2.497  0.00  0.00    +0.149 HD
BRANCH  22  24
ATOM     24  C   UNL     1       6.735  -3.151  -0.927  0.00  0.00    +0.026 C 
ATOM     25  C   UNL     1       6.917  -4.670  -0.925  0.00  0.00    +0.031 C 
ATOM     26  C   UNL     1       7.972  -2.490  -1.538  0.00  0.00    +0.031 C 
ATOM     27  C   UNL     1       6.550  -2.659   0.510  0.00  0.00    +0.031 C 
ENDBRANCH  22  24
ENDBRANCH  11  20
ENDBRANCH   1  11
BRANCH   2  28
ATOM     28  C   UNL     1       0.215  -5.228  -3.093  0.00  0.00    +0.132 C 
BRANCH  28  29
ATOM     29  C   UNL     1      -1.135  -4.827  -3.630  0.00  0.00    -0.019 A 
ATOM     30  C   UNL     1      -2.199  -4.652  -2.764  0.00  0.00    +0.005 A 
ATOM     31  C   UNL     1      -3.437  -4.284  -3.256  0.00  0.00    +0.002 A 
ATOM     32  C   UNL     1      -3.613  -4.091  -4.614  0.00  0.00    +0.021 A 
ATOM     33  C   UNL     1      -2.550  -4.265  -5.481  0.00  0.00    +0.060 A 
ATOM     34  C   UNL     1      -1.308  -4.628  -4.987  0.00  0.00    +0.063 A 
ATOM     35 CL   UNL     1       0.030  -4.840  -6.073  0.00  0.00    -0.082 Cl
ATOM     36 CL   UNL     1      -2.770  -4.022  -7.185  0.00  0.00    -0.082 Cl
ENDBRANCH  28  29
ENDBRANCH   2  28
TORSDOF 9
