REMARK  Name = ZINC62001480
REMARK  13 active torsions:
REMARK  status: ('A' for Active; 'I' for Inactive)
REMARK    1  A    between atoms: C_1  and  C_2
REMARK    2  A    between atoms: C_2  and  C_3
REMARK    3  A    between atoms: C_3  and  C_4
REMARK    4  A    between atoms: C_4  and  C_5
REMARK    5  A    between atoms: C_12  and  O_22
REMARK    6  A    between atoms: C_18  and  C_20
REMARK    7  A    between atoms: C_18  and  C_21
REMARK    8  A    between atoms: O_22  and  C_23
REMARK    9  A    between atoms: C_23  and  C_24
REMARK   10  A    between atoms: N_26  and  C_27
REMARK   11  A    between atoms: C_27  and  C_28
REMARK   12  A    between atoms: C_28  and  O_30
REMARK   13  A    between atoms: O_30  and  C_31
REMARK                            x       y       z     vdW  Elec       q    Type
REMARK                         _______ _______ _______ _____ _____    ______ ____
ROOT
ATOM      1  C   UNL     1       1.187  -2.628  -2.592  0.00  0.00    -0.026 A 
ATOM      2  C   UNL     1       2.476  -3.056  -2.643  0.00  0.00    +0.096 A 
ATOM      3  C   UNL     1       3.025  -3.484  -3.868  0.00  0.00    +0.337 A 
ATOM      4  O   UNL     1       4.181  -3.865  -3.906  0.00  0.00    -0.245 OA
ATOM      5  O   UNL     1       2.293  -3.480  -4.996  0.00  0.00    -0.422 OA
ATOM      6  C   UNL     1       1.008  -3.059  -4.987  0.00  0.00    +0.149 A 
ATOM      7  C   UNL     1       0.419  -2.629  -3.784  0.00  0.00    +0.063 A 
ATOM      8  C   UNL     1      -0.920  -2.201  -3.779  0.00  0.00    +0.136 A 
ATOM      9  C   UNL     1      -1.641  -2.212  -4.954  0.00  0.00    +0.092 A 
ATOM     10  C   UNL     1      -1.054  -2.643  -6.145  0.00  0.00    +0.131 A 
ATOM     11  C   UNL     1       0.267  -3.054  -6.162  0.00  0.00    +0.038 A 
ATOM     12  C   UNL     1       0.932  -3.513  -7.435  0.00  0.00    +0.046 C 
ATOM     13  C   UNL     1      -0.133  -3.845  -8.483  0.00  0.00    +0.052 C 
ATOM     14  C   UNL     1      -1.136  -2.686  -8.533  0.00  0.00    +0.105 C 
ATOM     15  O   UNL     1      -1.814  -2.637  -7.271  0.00  0.00    -0.486 OA
ATOM     16  C   UNL     1      -2.154  -2.933  -9.648  0.00  0.00    +0.055 C 
ATOM     17  C   UNL     1      -0.394  -1.373  -8.793  0.00  0.00    +0.055 C 
ENDROOT
BRANCH   1  18
ATOM     18  C   UNL     1       0.583  -2.168  -1.290  0.00  0.00    +0.036 C 
BRANCH  18  19
ATOM     19  C   UNL     1      -0.198  -3.320  -0.655  0.00  0.00    +0.004 C 
BRANCH  19  21
ATOM     20  C   UNL     1      -1.569  -4.005   1.318  0.00  0.00    +0.004 C 
ATOM     21  C   UNL     1      -0.689  -2.899   0.732  0.00  0.00    -0.003 C 
ENDBRANCH  19  21
ENDBRANCH  18  19
ENDBRANCH   1  18
BRANCH   8  22
ATOM     22  O   UNL     1      -1.498  -1.780  -2.625  0.00  0.00    -0.482 OA
BRANCH  22  23
ATOM     23  C   UNL     1      -2.840  -1.297  -2.711  0.00  0.00    +0.324 C 
BRANCH  23  24
ATOM     24  C   UNL     1      -3.263  -0.750  -1.372  0.00  0.00    +0.251 C 
ATOM     25  O   UNL     1      -2.459  -0.669  -0.468  0.00  0.00    -0.272 OA
ATOM     26  N   UNL     1      -4.536  -0.349  -1.180  0.00  0.00    -0.302 N 
ATOM     27  H   UNL     1      -5.179  -0.413  -1.903  0.00  0.00    +0.149 HD
BRANCH  26  28
ATOM     28  C   UNL     1      -4.947   0.184   0.121  0.00  0.00    +0.225 C 
BRANCH  28  29
ATOM     29  C   UNL     1      -6.407   0.556   0.073  0.00  0.00    +0.324 C 
ATOM     30  O   UNL     1      -7.038   0.394  -0.944  0.00  0.00    -0.249 OA
BRANCH  29  31
ATOM     31  O   UNL     1      -7.005   1.069   1.160  0.00  0.00    -0.467 OA
ATOM     32  C   UNL     1      -8.390   1.399   1.043  0.00  0.00    +0.280 C 
ENDBRANCH  29  31
ENDBRANCH  28  29
ENDBRANCH  26  28
ENDBRANCH  23  24
ENDBRANCH  22  23
ENDBRANCH   8  22
TORSDOF 9
