REMARK  Name = ZINC58969199
REMARK  10 active torsions:
REMARK  status: ('A' for Active; 'I' for Inactive)
REMARK    1  A    between atoms: C_3  and  C_9
REMARK    2  A    between atoms: C_11  and  C_29
REMARK    3  A    between atoms: C_13  and  S_15
REMARK    4  A    between atoms: S_15  and  C_16
REMARK    5  A    between atoms: C_16  and  C_17
REMARK    6  A    between atoms: C_17  and  C_18
REMARK    7  A    between atoms: N_20  and  C_21
REMARK    8  A    between atoms: C_21  and  C_22
REMARK    9  A    between atoms: C_22  and  C_23
REMARK   10  A    between atoms: C_23  and  N_24
REMARK                            x       y       z     vdW  Elec       q    Type
REMARK                         _______ _______ _______ _____ _____    ______ ____
ROOT
ATOM      1  C   UNL     1       3.659   2.167  -0.022  0.00  0.00    +0.077 A 
ATOM      2  C   UNL     1       4.883   1.497   0.062  0.00  0.00    +0.060 A 
ATOM      3  C   UNL     1       6.046   2.245   0.050  0.00  0.00    +0.148 A 
ATOM      4  N   UNL     1       5.967   3.563  -0.040  0.00  0.00    -0.218 NA
ATOM      5  C   UNL     1       4.793   4.173  -0.118  0.00  0.00    +0.189 A 
ATOM      6  N   UNL     1       3.655   3.494  -0.115  0.00  0.00    -0.222 NA
ENDROOT
BRANCH   1   9
ATOM      7  C   UNL     1       0.978  -0.284   0.945  0.00  0.00    +0.021 A 
ATOM      8  C   UNL     1       2.166   0.417   0.941  0.00  0.00    +0.013 A 
ATOM      9  C   UNL     1       2.384   1.410  -0.013  0.00  0.00    +0.019 A 
ATOM     10  C   UNL     1       1.397   1.689  -0.960  0.00  0.00    +0.052 A 
ATOM     11  C   UNL     1       0.212   0.981  -0.947  0.00  0.00    +0.040 A 
ATOM     12  C   UNL     1       0.002  -0.004   0.004  0.00  0.00    +0.042 A 
ATOM     13 CL   UNL     1      -1.490  -0.890   0.015  0.00  0.00    -0.083 Cl
ATOM     14 CL   UNL     1       1.660   2.924  -2.152  0.00  0.00    -0.083 Cl
ENDBRANCH   1   9
BRANCH   3  15
ATOM     15  C   UNL     1       7.388   1.566   0.139  0.00  0.00    +0.434 C 
ATOM     16  F   UNL     1       7.847   1.268  -1.149  0.00  0.00    -0.164 F 
ATOM     17  F   UNL     1       8.300   2.417   0.773  0.00  0.00    -0.164 F 
ATOM     18  F   UNL     1       7.265   0.383   0.875  0.00  0.00    -0.164 F 
ENDBRANCH   3  15
BRANCH   5  19
ATOM     19  S   UNL     1       4.744   5.930  -0.236  0.00  0.00    -0.086 S 
BRANCH  19  20
ATOM     20  C   UNL     1       6.490   6.420  -0.212  0.00  0.00    +0.086 C 
BRANCH  20  21
ATOM     21  C   UNL     1       6.594   7.944  -0.310  0.00  0.00    +0.107 C 
BRANCH  21  22
ATOM     22  C   UNL     1       8.045   8.351  -0.290  0.00  0.00    +0.214 C 
ATOM     23  O   UNL     1       8.911   7.506  -0.206  0.00  0.00    -0.276 OA
ATOM     24  N   UNL     1       8.380   9.654  -0.366  0.00  0.00    -0.315 N 
ATOM     25  H   UNL     1       7.688  10.330  -0.433  0.00  0.00    +0.149 HD
BRANCH  24  26
ATOM     26  C   UNL     1       9.791  10.050  -0.347  0.00  0.00    +0.106 C 
BRANCH  26  27
ATOM     27  C   UNL     1       9.894  11.573  -0.444  0.00  0.00    +0.040 C 
BRANCH  27  28
ATOM     28  C   UNL     1      11.367  11.986  -0.424  0.00  0.00    +0.124 C 
BRANCH  28  29
ATOM     29  N   UNL     1      11.467  13.445  -0.518  0.00  0.00    -0.338 N 
ATOM     30  C   UNL     1      11.551  14.181  -1.669  0.00  0.00    +0.104 A 
ATOM     31  C   UNL     1      11.624  15.474  -1.300  0.00  0.00    +0.101 A 
ATOM     32  N   UNL     1      11.585  15.526   0.040  0.00  0.00    -0.352 N 
ATOM     33  C   UNL     1      11.486  14.315   0.515  0.00  0.00    +0.173 A 
ATOM     34  H   UNL     1      11.622  16.336   0.572  0.00  0.00    +0.166 HD
ENDBRANCH  28  29
ENDBRANCH  27  28
ENDBRANCH  26  27
ENDBRANCH  24  26
ENDBRANCH  21  22
ENDBRANCH  20  21
ENDBRANCH  19  20
ENDBRANCH   5  19
TORSDOF 10
