REMARK  Name = ZINC11526357
REMARK  7 active torsions:
REMARK  status: ('A' for Active; 'I' for Inactive)
REMARK    1  A    between atoms: C_1  and  C_2
REMARK    2  A    between atoms: C_2  and  C_4
REMARK    3  A    between atoms: C_2  and  S_23
REMARK    4  A    between atoms: N_6  and  C_7
REMARK    5  A    between atoms: S_23  and  C_24
REMARK    6  A    between atoms: N_29  and  C_30
REMARK    7  A    between atoms: C_30  and  C_31
REMARK                            x       y       z     vdW  Elec       q    Type
REMARK                         _______ _______ _______ _____ _____    ______ ____
ROOT
ATOM      1  C   UNL     1      -3.773  10.168  -0.011  0.00  0.00    +0.230 C 
ATOM      2  O   UNL     1      -4.816   9.549  -0.005  0.00  0.00    -0.274 OA
ATOM      3  N   UNL     1      -2.599   9.513   0.076  0.00  0.00    -0.285 N 
ATOM      4  H   UNL     1      -1.769  10.011   0.138  0.00  0.00    +0.155 HD
ENDROOT
BRANCH   3   5
ATOM      5  C   UNL     1      -2.577   8.119   0.077  0.00  0.00    +0.034 A 
ATOM      6  C   UNL     1      -1.532   7.442  -0.541  0.00  0.00    +0.024 A 
ATOM      7  C   UNL     1      -1.500   6.062  -0.546  0.00  0.00    +0.014 A 
ATOM      8  C   UNL     1      -2.520   5.339   0.071  0.00  0.00    +0.033 A 
ATOM      9  C   UNL     1      -3.580   6.021   0.698  0.00  0.00    +0.035 A 
ATOM     10  C   UNL     1      -3.603   7.410   0.698  0.00  0.00    +0.035 A 
ATOM     11  C   UNL     1      -4.664   5.259   1.355  0.00  0.00    +0.195 C 
ATOM     12  O   UNL     1      -5.580   5.847   1.896  0.00  0.00    -0.287 OA
ATOM     13  C   UNL     1      -4.633   3.781   1.351  0.00  0.00    +0.033 A 
ATOM     14  C   UNL     1      -5.649   3.056   1.967  0.00  0.00    +0.012 A 
ATOM     15  C   UNL     1      -5.611   1.673   1.958  0.00  0.00    +0.001 A 
ATOM     16  C   UNL     1      -4.569   1.004   1.342  0.00  0.00    +0.001 A 
ATOM     17  C   UNL     1      -3.548   1.710   0.730  0.00  0.00    +0.012 A 
ATOM     18  C   UNL     1      -3.573   3.102   0.724  0.00  0.00    +0.033 A 
ATOM     19  C   UNL     1      -2.490   3.864   0.068  0.00  0.00    +0.195 C 
ATOM     20  O   UNL     1      -1.575   3.276  -0.474  0.00  0.00    -0.287 OA
ENDBRANCH   3   5
BRANCH   1  22
ATOM     21  C   UNL     1      -3.621  12.082  -1.581  0.00  0.00    +0.029 C 
ATOM     22  C   UNL     1      -3.791  11.672  -0.117  0.00  0.00    +0.136 C 
BRANCH  22  23
ATOM     23  S   UNL     1      -5.373  12.303   0.508  0.00  0.00    -0.084 S 
BRANCH  23  24
ATOM     24  C   UNL     1      -5.183  14.054   0.457  0.00  0.00    +0.161 A 
ATOM     25  N   UNL     1      -4.146  14.771   0.069  0.00  0.00    -0.133 NA
ATOM     26  N   UNL     1      -4.212  16.145   0.107  0.00  0.00    -0.125 NA
ATOM     27  C   UNL     1      -5.307  16.738   0.542  0.00  0.00    +0.183 A 
ATOM     28  S   UNL     1      -6.340  15.332   0.925  0.00  0.00    -0.025 S 
ATOM     29  N   UNL     1      -5.583  18.094   0.668  0.00  0.00    -0.319 N 
ATOM     30  H   UNL     1      -6.444  18.384   1.007  0.00  0.00    +0.148 HD
BRANCH  29  31
ATOM     31  C   UNL     1      -4.573  19.086   0.288  0.00  0.00    +0.130 C 
BRANCH  31  32
ATOM     32  C   UNL     1      -5.119  20.472   0.519  0.00  0.00    -0.016 C 
ATOM     33  C   UNL     1      -4.459  21.318   1.271  0.00  0.00    +0.005 C 
ENDBRANCH  31  32
ENDBRANCH  29  31
ENDBRANCH  23  24
ENDBRANCH  22  23
ENDBRANCH   1  22
TORSDOF 6
