REMARK  Name = ZINC01375568
REMARK  16 active torsions:
REMARK  status: ('A' for Active; 'I' for Inactive)
REMARK    1  A    between atoms: C_1  and  C_2
REMARK    2  A    between atoms: C_2  and  C_3
REMARK    3  A    between atoms: C_3  and  C_5
REMARK    4  A    between atoms: C_3  and  N_14
REMARK    5  A    between atoms: N_9  and  C_10
REMARK    6  A    between atoms: C_10  and  C_11
REMARK    7  A    between atoms: C_10  and  C_12
REMARK    8  A    between atoms: C_10  and  C_13
REMARK    9  A    between atoms: N_14  and  C_15
REMARK   10  A    between atoms: N_14  and  C_24
REMARK   11  A    between atoms: C_15  and  C_16
REMARK   12  A    between atoms: C_21  and  O_22
REMARK   13  A    between atoms: O_22  and  C_23
REMARK   14  A    between atoms: C_24  and  C_25
REMARK   15  A    between atoms: C_28  and  C_38
REMARK   16  A    between atoms: C_31  and  C_37
REMARK                            x       y       z     vdW  Elec       q    Type
REMARK                         _______ _______ _______ _____ _____    ______ ____
ROOT
ATOM      1  N   UNL     1      -1.251  -0.987   1.313  0.00  0.00    -0.284 NA
ENDROOT
BRANCH   1   2
ATOM      2  C   UNL     1      -2.494  -1.733   1.556  0.00  0.00    +0.127 C 
BRANCH   2   3
ATOM      3  C   UNL     1      -2.731  -1.846   3.039  0.00  0.00    +0.169 A 
ATOM      4  N   UNL     1      -2.680  -0.873   3.916  0.00  0.00    -0.112 NA
ATOM      5  N   UNL     1      -2.941  -1.369   5.077  0.00  0.00    -0.023 NA
ATOM      6  N   UNL     1      -3.156  -2.633   4.962  0.00  0.00    -0.043 NA
ATOM      7  N   UNL     1      -3.042  -2.964   3.721  0.00  0.00    -0.222 N 
BRANCH   7   8
ATOM      8  C   UNL     1      -3.213  -4.306   3.159  0.00  0.00    +0.059 C 
ATOM      9  C   UNL     1      -1.886  -4.785   2.568  0.00  0.00    +0.036 C 
ATOM     10  C   UNL     1      -3.658  -5.268   4.262  0.00  0.00    +0.036 C 
ATOM     11  C   UNL     1      -4.276  -4.266   2.058  0.00  0.00    +0.036 C 
ENDBRANCH   7   8
ENDBRANCH   2   3
BRANCH   2  13
ATOM     12  C   UNL     1      -3.482  -0.980  -0.612  0.00  0.00    +0.006 C 
ATOM     13  C   UNL     1      -3.666  -0.995   0.906  0.00  0.00    +0.023 C 
ENDBRANCH   2  13
ENDBRANCH   1   2
BRANCH   1  14
ATOM     14  C   UNL     1      -1.511   0.457   1.233  0.00  0.00    +0.124 C 
BRANCH  14  15
ATOM     15  C   UNL     1      -1.822   0.989   2.608  0.00  0.00    +0.008 A 
ATOM     16  C   UNL     1      -3.096   1.434   2.905  0.00  0.00    +0.008 A 
ATOM     17  C   UNL     1      -3.383   1.917   4.168  0.00  0.00    +0.001 A 
ATOM     18  C   UNL     1      -2.394   1.968   5.133  0.00  0.00    +0.004 A 
ATOM     19  C   UNL     1      -1.118   1.529   4.839  0.00  0.00    +0.046 A 
ATOM     20  C   UNL     1      -0.829   1.038   3.574  0.00  0.00    +0.124 A 
BRANCH  20  21
ATOM     21  O   UNL     1       0.427   0.606   3.283  0.00  0.00    -0.495 OA
ATOM     22  C   UNL     1       1.399   0.686   4.326  0.00  0.00    +0.277 C 
ENDBRANCH  20  21
ENDBRANCH  14  15
ENDBRANCH   1  14
BRANCH   1  23
ATOM     23  C   UNL     1      -0.576  -1.469   0.102  0.00  0.00    +0.126 C 
BRANCH  23  24
ATOM     24  C   UNL     1       0.800  -0.860   0.018  0.00  0.00    +0.032 A 
ATOM     25  C   UNL     1       1.871  -1.542   0.496  0.00  0.00    +0.020 A 
ATOM     26  C   UNL     1       3.194  -0.923   0.400  0.00  0.00    +0.002 A 
ATOM     27  C   UNL     1       4.335  -1.577   0.875  0.00  0.00    -0.041 A 
ATOM     28  C   UNL     1       5.556  -0.972   0.771  0.00  0.00    +0.004 A 
ATOM     29  C   UNL     1       5.673   0.286   0.197  0.00  0.00    +0.005 A 
ATOM     30  C   UNL     1       4.563   0.949  -0.279  0.00  0.00    -0.026 A 
ATOM     31  C   UNL     1       3.310   0.353  -0.183  0.00  0.00    +0.052 A 
ATOM     32  N   UNL     1       2.182   0.994  -0.650  0.00  0.00    -0.322 N 
ATOM     33  H   UNL     1       2.265   1.991  -1.106  0.00  0.00    +0.169 HD
ATOM     34  C   UNL     1       0.971   0.417  -0.557  0.00  0.00    +0.254 A 
ATOM     35  O   UNL     1      -0.004   1.011  -0.985  0.00  0.00    -0.268 OA
ATOM     36  C   UNL     1       4.706   2.315  -0.900  0.00  0.00    +0.046 C 
ATOM     37  C   UNL     1       4.219  -2.943   1.501  0.00  0.00    +0.044 C 
ENDBRANCH  23  24
ENDBRANCH   1  23
TORSDOF 9
