REMARK  Name = ZINC51121176
REMARK  3 active torsions:
REMARK  status: ('A' for Active; 'I' for Inactive)
REMARK    1  A    between atoms: C_6  and  C_7
REMARK    2  A    between atoms: N_9  and  C_10
REMARK    3  A    between atoms: N_21  and  N_22
REMARK                            x       y       z     vdW  Elec       q    Type
REMARK                         _______ _______ _______ _____ _____    ______ ____
ROOT
ATOM      1  C   UNL     1      -1.098  -1.006  -0.017  0.00  0.00    +0.248 C 
ATOM      2  O   UNL     1      -0.951  -2.210   0.062  0.00  0.00    -0.270 OA
ATOM      3  N   UNL     1      -2.336  -0.482  -0.111  0.00  0.00    -0.310 N 
ATOM      4  H   UNL     1      -2.453   0.479  -0.174  0.00  0.00    +0.149 HD
ENDROOT
BRANCH   3   5
ATOM      5  C   UNL     1      -3.506  -1.364  -0.117  0.00  0.00    +0.058 C 
ATOM      6  C   UNL     1      -3.841  -1.812  -1.562  0.00  0.00    +0.002 C 
ATOM      7  C   UNL     1      -5.241  -1.209  -1.853  0.00  0.00    -0.077 C 
ATOM      8  N   UNL     1      -5.319  -0.065  -0.930  0.00  0.00    +0.383 N 
ATOM      9  C   UNL     1      -4.754  -0.603   0.340  0.00  0.00    -0.048 C 
ATOM     10  C   UNL     1      -4.466   0.578   1.256  0.00  0.00    -0.014 C 
ATOM     11  C   UNL     1      -5.811   1.248   1.579  0.00  0.00    -0.003 C 
ATOM     12  C   UNL     1      -6.543   1.631   0.293  0.00  0.00    -0.019 C 
ATOM     13  C   UNL     1      -6.665   0.420  -0.653  0.00  0.00    -0.078 C 
ATOM     14  H   UNL     1      -4.746   0.691  -1.273  0.00  0.00    -0.081 HD
ENDBRANCH   3   5
BRANCH   1  20
ATOM     15  C   UNL     1      -0.077   1.272   0.022  0.00  0.00    +0.033 A 
ATOM     16  C   UNL     1       1.061   2.062   0.026  0.00  0.00    +0.037 A 
ATOM     17  C   UNL     1       2.307   1.461  -0.002  0.00  0.00    +0.128 A 
ATOM     18  N   UNL     1       2.433   0.149  -0.034  0.00  0.00    -0.237 NA
ATOM     19  C   UNL     1       1.379  -0.653  -0.040  0.00  0.00    +0.144 A 
ATOM     20  C   UNL     1       0.080  -0.118  -0.011  0.00  0.00    +0.079 A 
ATOM     21  N   UNL     1       1.558  -2.024  -0.073  0.00  0.00    -0.267 N 
ATOM     22 BR   UNL     1       0.912   3.946   0.071  0.00  0.00    -0.049 Br
ATOM     23  H   UNL     1       0.793  -2.615   0.004  0.00  0.00    +0.167 HD
BRANCH  21  24
ATOM     24  N   UNL     1       2.812  -2.546  -0.215  0.00  0.00    -0.255 NA
ATOM     25  H   UNL     1       2.786  -3.554  -0.223  0.00  0.00    +0.140 HD
ATOM     26  H   UNL     1       3.260  -2.189  -1.046  0.00  0.00    +0.140 HD
ENDBRANCH  21  24
ENDBRANCH   1  20
TORSDOF 3
