REMARK  Name = ZINC42139661
REMARK  4 active torsions:
REMARK  status: ('A' for Active; 'I' for Inactive)
REMARK    1  A    between atoms: C_3  and  O_9
REMARK    2  A    between atoms: O_9  and  C_10
REMARK    3  A    between atoms: C_11  and  C_17
REMARK    4  A    between atoms: C_13  and  N_16
REMARK                            x       y       z     vdW  Elec       q    Type
REMARK                         _______ _______ _______ _____ _____    ______ ____
ROOT
ATOM      1  C   UNL     1       3.485   3.457  -0.118  0.00  0.00    +0.233 A 
ATOM      2  C   UNL     1       4.667   4.202  -0.241  0.00  0.00    +0.100 A 
ATOM      3  C   UNL     1       4.580   5.595  -0.340  0.00  0.00    +0.042 A 
ATOM      4  C   UNL     1       3.320   6.180  -0.311  0.00  0.00    +0.044 A 
ATOM      5  C   UNL     1       2.197   5.371  -0.187  0.00  0.00    +0.137 A 
ATOM      6  N   UNL     1       2.309   4.060  -0.101  0.00  0.00    -0.219 NA
ENDROOT
BRANCH   2   7
ATOM      7  C   UNL     1       5.979   3.528  -0.265  0.00  0.00    +0.247 C 
ATOM      8  O   UNL     1       6.042   2.317  -0.178  0.00  0.00    -0.270 OA
ATOM      9  N   UNL     1       7.108   4.255  -0.384  0.00  0.00    -0.325 N 
ATOM     10  H   UNL     1       7.057   5.221  -0.454  0.00  0.00    +0.145 HD
ATOM     11  H   UNL     1       7.971   3.812  -0.400  0.00  0.00    +0.145 HD
ENDBRANCH   2   7
BRANCH   4  12
ATOM     12  N   UNL     1       3.183   7.570  -0.406  0.00  0.00    -0.357 N 
ATOM     13  H   UNL     1       3.971   8.130  -0.493  0.00  0.00    +0.142 HD
ATOM     14  H   UNL     1       2.301   7.973  -0.386  0.00  0.00    +0.142 HD
ENDBRANCH   4  12
BRANCH   1  15
ATOM     15  O   UNL     1       3.548   2.106  -0.021  0.00  0.00    -0.436 OA
BRANCH  15  18
ATOM     16  C   UNL     1       0.617   0.364   1.247  0.00  0.00    +0.023 A 
ATOM     17  C   UNL     1       1.805   1.069   1.221  0.00  0.00    +0.049 A 
ATOM     18  C   UNL     1       2.380   1.413   0.007  0.00  0.00    +0.144 A 
ATOM     19  C   UNL     1       1.760   1.048  -1.181  0.00  0.00    +0.062 A 
ATOM     20  C   UNL     1       0.571   0.343  -1.150  0.00  0.00    +0.039 A 
ATOM     21  C   UNL     1       0.000   0.001   0.063  0.00  0.00    +0.042 A 
ATOM     22 CL   UNL     1      -1.493  -0.885   0.100  0.00  0.00    -0.084 Cl
ATOM     23 BR   UNL     1       2.540   1.515  -2.838  0.00  0.00    -0.046 Br
ENDBRANCH  15  18
ENDBRANCH   1  15
TORSDOF 4
