REMARK  Name = ZINC06247070
REMARK  4 active torsions:
REMARK  status: ('A' for Active; 'I' for Inactive)
REMARK    1  A    between atoms: C_1  and  C_2
REMARK    2  A    between atoms: C_2  and  C_3
REMARK    3  A    between atoms: C_12  and  O_23
REMARK    4  A    between atoms: C_14  and  C_17
REMARK                            x       y       z     vdW  Elec       q    Type
REMARK                         _______ _______ _______ _____ _____    ______ ____
ROOT
ATOM      1  C   UNL     1       0.322  -4.952  -0.579  0.00  0.00    -0.006 C 
ATOM      2  C   UNL     1       1.771  -4.523  -0.333  0.00  0.00    +0.008 C 
ATOM      3  C   UNL     1       2.018  -3.147  -0.952  0.00  0.00    +0.037 C 
ATOM      4  C   UNL     1       0.951  -2.182  -0.448  0.00  0.00    -0.023 A 
ATOM      5  C   UNL     1      -0.202  -2.644   0.090  0.00  0.00    -0.004 A 
ATOM      6  S   UNL     1      -1.117  -1.188   0.524  0.00  0.00    -0.078 S 
ATOM      7  C   UNL     1       0.002  -0.004   0.002  0.00  0.00    +0.080 A 
ATOM      8  C   UNL     1       1.083  -0.737  -0.503  0.00  0.00    +0.068 A 
ATOM      9  C   UNL     1       2.241   0.032  -1.028  0.00  0.00    +0.220 C 
ATOM     10  N   UNL     1       2.268   1.317  -0.808  0.00  0.00    -0.223 NA
ATOM     11  C   UNL     1       1.296   2.042   0.001  0.00  0.00    +0.224 C 
ATOM     12  N   UNL     1      -0.017   1.370   0.010  0.00  0.00    -0.313 N 
ATOM     13  C   UNL     1      -0.606  -4.074   0.273  0.00  0.00    +0.046 C 
ATOM     14  H   UNL     1      -0.940   1.967   0.022  0.00  0.00    +0.149 HD
ENDROOT
BRANCH  11  15
ATOM     15  C   UNL     1       1.808   2.139   1.415  0.00  0.00    -0.003 A 
ATOM     16  C   UNL     1       0.930   2.243   2.482  0.00  0.00    +0.027 A 
ATOM     17  C   UNL     1       1.436   2.324   3.766  0.00  0.00    +0.111 A 
ATOM     18  N   UNL     1       2.737   2.314   3.979  0.00  0.00    -0.263 NA
ATOM     19  C   UNL     1       3.602   2.222   2.988  0.00  0.00    +0.111 A 
ATOM     20  C   UNL     1       3.169   2.131   1.678  0.00  0.00    +0.027 A 
ENDBRANCH  11  15
BRANCH   1  22
ATOM     21  C   UNL     1      -1.267  -6.880  -0.544  0.00  0.00    +0.004 C 
ATOM     22  C   UNL     1       0.146  -6.419  -0.182  0.00  0.00    +0.000 C 
ENDBRANCH   1  22
BRANCH   9  23
ATOM     23  O   UNL     1       3.235  -0.582  -1.712  0.00  0.00    -0.492 OA
ATOM     24  H   UNL     1       4.083   0.005  -2.093  0.00  0.00    +0.294 HD
ENDBRANCH   9  23
TORSDOF 3
