REMARK  Name = ZINC05810287
REMARK  11 active torsions:
REMARK  status: ('A' for Active; 'I' for Inactive)
REMARK    1  A    between atoms: C_1  and  C_2
REMARK    2  A    between atoms: C_2  and  C_3
REMARK    3  A    between atoms: C_3  and  C_4
REMARK    4  A    between atoms: C_4  and  C_5
REMARK    5  A    between atoms: C_5  and  C_6
REMARK    6  A    between atoms: N_8  and  C_10
REMARK    7  A    between atoms: C_16  and  O_32
REMARK    8  A    between atoms: C_17  and  O_31
REMARK    9  A    between atoms: C_18  and  O_30
REMARK   10  A    between atoms: C_25  and  S_28
REMARK   11  A    between atoms: S_28  and  C_29
REMARK                            x       y       z     vdW  Elec       q    Type
REMARK                         _______ _______ _______ _____ _____    ______ ____
ROOT
ATOM      1  C   UNL     1       1.388   2.086   0.000  0.00  0.00    +0.104 C 
ATOM      2  C   UNL     1      -0.019   1.522   0.010  0.00  0.00    +0.032 C 
ATOM      3  C   UNL     1       0.002  -0.004   0.002  0.00  0.00    +0.038 C 
ATOM      4  C   UNL     1       1.015  -0.492  -1.002  0.00  0.00    -0.032 A 
ATOM      5  C   UNL     1       0.599  -0.995  -2.217  0.00  0.00    +0.053 A 
ATOM      6  C   UNL     1       1.534  -1.453  -3.137  0.00  0.00    +0.162 A 
ATOM      7  C   UNL     1       2.892  -1.409  -2.840  0.00  0.00    +0.201 A 
ATOM      8  C   UNL     1       3.318  -0.900  -1.619  0.00  0.00    +0.170 A 
ATOM      9  C   UNL     1       2.372  -0.437  -0.700  0.00  0.00    +0.031 A 
ATOM     10  C   UNL     1       2.826   0.133   0.604  0.00  0.00    -0.009 A 
ATOM     11  C   UNL     1       2.289   1.363   0.980  0.00  0.00    -0.016 A 
ATOM     12  C   UNL     1       2.517   1.985   2.151  0.00  0.00    +0.058 A 
ATOM     13  C   UNL     1       3.290   1.677   3.232  0.00  0.00    +0.193 A 
ATOM     14  O   UNL     1       3.219   2.453   4.175  0.00  0.00    -0.287 OA
ATOM     15  C   UNL     1       4.151   0.594   3.402  0.00  0.00    +0.054 A 
ATOM     16  C   UNL     1       4.330  -0.421   2.508  0.00  0.00    +0.019 A 
ATOM     17  C   UNL     1       3.740  -0.605   1.315  0.00  0.00    +0.010 A 
ENDROOT
BRANCH   1  20
ATOM     18  C   UNL     1       2.312   4.340  -0.051  0.00  0.00    +0.213 C 
ATOM     19  O   UNL     1       3.234   3.915  -0.715  0.00  0.00    -0.276 OA
ATOM     20  N   UNL     1       1.335   3.506   0.357  0.00  0.00    -0.308 N 
ATOM     21  H   UNL     1       0.598   3.846   0.888  0.00  0.00    +0.149 HD
BRANCH  18  22
ATOM     22  C   UNL     1       2.259   5.800   0.317  0.00  0.00    +0.096 C 
BRANCH  22  23
ATOM     23  C   UNL     1       3.477   6.518  -0.267  0.00  0.00    +0.009 C 
BRANCH  23  24
ATOM     24  C   UNL     1       3.423   8.001   0.106  0.00  0.00    +0.000 C 
BRANCH  24  26
ATOM     25  C   UNL     1       4.587  10.202  -0.104  0.00  0.00    +0.004 C 
ATOM     26  C   UNL     1       4.641   8.719  -0.477  0.00  0.00    -0.003 C 
ENDBRANCH  24  26
ENDBRANCH  23  24
ENDBRANCH  22  23
ENDBRANCH  18  22
ENDBRANCH   1  20
BRANCH  15  27
ATOM     27  S   UNL     1       5.085   0.531   4.895  0.00  0.00    -0.125 S 
ATOM     28  C   UNL     1       6.003  -1.006   4.626  0.00  0.00    +0.090 C 
ENDBRANCH  15  27
BRANCH   8  29
ATOM     29  O   UNL     1       4.643  -0.854  -1.321  0.00  0.00    -0.503 OA
ATOM     30  H   UNL     1       5.078  -0.033  -1.589  0.00  0.00    +0.292 HD
ENDBRANCH   8  29
BRANCH   7  31
ATOM     31  O   UNL     1       3.803  -1.863  -3.743  0.00  0.00    -0.501 OA
ATOM     32  H   UNL     1       4.117  -1.187  -4.359  0.00  0.00    +0.292 HD
ENDBRANCH   7  31
BRANCH   6  33
ATOM     33  O   UNL     1       1.120  -1.946  -4.333  0.00  0.00    -0.503 OA
ATOM     34  H   UNL     1       1.050  -1.280  -5.031  0.00  0.00    +0.292 HD
ENDBRANCH   6  33
TORSDOF 9
