REMARK  Name = ZINC28631926
REMARK  11 active torsions:
REMARK  status: ('A' for Active; 'I' for Inactive)
REMARK    1  A    between atoms: C_1  and  C_2
REMARK    2  A    between atoms: C_2  and  C_3
REMARK    3  A    between atoms: C_3  and  C_5
REMARK    4  A    between atoms: C_3  and  C_6
REMARK    5  A    between atoms: C_6  and  C_8
REMARK    6  A    between atoms: C_6  and  N_21
REMARK    7  A    between atoms: N_10  and  N_11
REMARK    8  A    between atoms: N_11  and  C_12
REMARK    9  A    between atoms: C_12  and  N_14
REMARK   10  A    between atoms: N_14  and  C_15
REMARK   11  A    between atoms: C_22  and  C_24
REMARK                            x       y       z     vdW  Elec       q    Type
REMARK                         _______ _______ _______ _____ _____    ______ ____
ROOT
ATOM      1  C   UNL     1      -0.902  -2.505   1.186  0.00  0.00    +0.250 C 
ATOM      2  O   UNL     1       0.152  -3.102   1.214  0.00  0.00    -0.272 OA
ATOM      3  N   UNL     1      -1.601  -2.317   2.323  0.00  0.00    -0.234 N 
ATOM      4  H   UNL     1      -2.408  -1.778   2.313  0.00  0.00    +0.173 HD
ENDROOT
BRANCH   3   5
ATOM      5  N   UNL     1      -1.163  -2.900   3.519  0.00  0.00    -0.246 N 
ATOM      6  H   UNL     1      -0.357  -3.439   3.529  0.00  0.00    +0.172 HD
BRANCH   5   7
ATOM      7  C   UNL     1      -1.862  -2.712   4.656  0.00  0.00    +0.147 C 
ATOM      8  S   UNL     1      -1.327  -3.425   6.117  0.00  0.00    -0.017 S 
BRANCH   7   9
ATOM      9  N   UNL     1      -2.983  -1.963   4.642  0.00  0.00    -0.323 N 
ATOM     10  H   UNL     1      -3.286  -1.559   3.814  0.00  0.00    +0.148 HD
BRANCH   9  11
ATOM     11  C   UNL     1      -3.742  -1.759   5.878  0.00  0.00    +0.072 C 
ATOM     12  C   UNL     1      -4.704  -2.930   6.085  0.00  0.00    +0.022 C 
ATOM     13  C   UNL     1      -5.497  -2.717   7.376  0.00  0.00    +0.002 C 
ATOM     14  C   UNL     1      -6.294  -1.415   7.275  0.00  0.00    +0.000 C 
ATOM     15  C   UNL     1      -5.333  -0.243   7.068  0.00  0.00    +0.002 C 
ATOM     16  C   UNL     1      -4.539  -0.457   5.777  0.00  0.00    +0.022 C 
ENDBRANCH   9  11
ENDBRANCH   7   9
ENDBRANCH   5   7
ENDBRANCH   3   5
BRANCH   1  17
ATOM     17  C   UNL     1      -1.432  -1.972  -0.121  0.00  0.00    +0.163 C 
BRANCH  17  18
ATOM     18  N   UNL     1      -0.893  -2.768  -1.227  0.00  0.00    -0.300 N 
ATOM     19  C   UNL     1      -1.562  -2.840  -2.394  0.00  0.00    +0.245 C 
ATOM     20  O   UNL     1      -2.614  -2.245  -2.530  0.00  0.00    -0.270 OA
ATOM     21  H   UNL     1      -0.054  -3.243  -1.119  0.00  0.00    +0.150 HD
BRANCH  19  22
ATOM     22  C   UNL     1      -1.018  -3.643  -3.510  0.00  0.00    +0.037 A 
ATOM     23  C   UNL     1       0.186  -4.332  -3.356  0.00  0.00    +0.013 A 
ATOM     24  C   UNL     1       0.688  -5.080  -4.401  0.00  0.00    +0.001 A 
ATOM     25  C   UNL     1       0.001  -5.147  -5.600  0.00  0.00    +0.000 A 
ATOM     26  C   UNL     1      -1.193  -4.466  -5.760  0.00  0.00    +0.001 A 
ATOM     27  C   UNL     1      -1.709  -3.720  -4.720  0.00  0.00    +0.013 A 
ENDBRANCH  19  22
ENDBRANCH  17  18
BRANCH  17  28
ATOM     28  C   UNL     1      -1.005  -0.513  -0.287  0.00  0.00    +0.015 C 
ATOM     29  C   UNL     1       0.517  -0.439  -0.422  0.00  0.00    +0.010 C 
BRANCH  28  31
ATOM     30  C   UNL     1      -1.332   1.561  -1.642  0.00  0.00    +0.004 C 
ATOM     31  C   UNL     1      -1.657   0.069  -1.543  0.00  0.00    +0.002 C 
ENDBRANCH  28  31
ENDBRANCH  17  28
ENDBRANCH   1  17
TORSDOF 9
