REMARK  Name = ZINC10058529
REMARK  14 active torsions:
REMARK  status: ('A' for Active; 'I' for Inactive)
REMARK    1  A    between atoms: C_1  and  C_2
REMARK    2  A    between atoms: C_2  and  C_3
REMARK    3  A    between atoms: C_3  and  C_5
REMARK    4  A    between atoms: C_3  and  C_6
REMARK    5  A    between atoms: C_11  and  N_12
REMARK    6  A    between atoms: C_13  and  C_15
REMARK    7  A    between atoms: C_15  and  C_17
REMARK    8  A    between atoms: C_15  and  S_18
REMARK    9  A    between atoms: S_18  and  C_19
REMARK   10  A    between atoms: N_32  and  C_33
REMARK   11  A    between atoms: C_33  and  C_34
REMARK   12  A    between atoms: C_34  and  C_35
REMARK   13  A    between atoms: C_35  and  C_36
REMARK   14  A    between atoms: C_35  and  C_37
REMARK                            x       y       z     vdW  Elec       q    Type
REMARK                         _______ _______ _______ _____ _____    ______ ____
ROOT
ATOM      1  C   UNL     1       8.422  -1.170   1.384  0.00  0.00    +0.198 A 
ATOM      2  N   UNL     1       8.291   0.134   1.337  0.00  0.00    -0.120 NA
ATOM      3  N   UNL     1       9.551   0.704   1.554  0.00  0.00    -0.109 NA
ATOM      4  C   UNL     1      10.418  -0.269   1.720  0.00  0.00    +0.240 A 
ATOM      5  N   UNL     1       9.741  -1.454   1.618  0.00  0.00    -0.256 N 
ATOM      6  C   UNL     1      10.412  -2.667   1.752  0.00  0.00    +0.064 A 
ATOM      7  C   UNL     1       9.735  -3.873   1.653  0.00  0.00    +0.027 A 
ATOM      8  C   UNL     1      10.425  -5.061   1.792  0.00  0.00    +0.002 A 
ATOM      9  C   UNL     1      11.790  -5.061   2.030  0.00  0.00    +0.001 A 
ATOM     10  C   UNL     1      12.479  -3.871   2.133  0.00  0.00    +0.015 A 
ATOM     11  C   UNL     1      11.794  -2.665   1.995  0.00  0.00    +0.064 A 
ATOM     12  C   UNL     1      12.494  -1.371   2.099  0.00  0.00    +0.263 A 
ATOM     13  O   UNL     1      13.692  -1.331   2.308  0.00  0.00    -0.267 OA
ATOM     14  N   UNL     1      11.783  -0.234   1.958  0.00  0.00    -0.277 N 
ENDROOT
BRANCH   1  15
ATOM     15  S   UNL     1       7.130  -2.349   1.176  0.00  0.00    -0.073 S 
BRANCH  15  16
ATOM     16  C   UNL     1       5.650  -1.335   0.903  0.00  0.00    +0.137 C 
ATOM     17  C   UNL     1       5.796  -0.563  -0.410  0.00  0.00    +0.029 C 
BRANCH  16  19
ATOM     18  N   UNL     1       3.209  -1.711   1.036  0.00  0.00    -0.284 N 
ATOM     19  C   UNL     1       4.437  -2.226   0.830  0.00  0.00    +0.230 C 
ATOM     20  O   UNL     1       4.566  -3.407   0.586  0.00  0.00    -0.274 OA
ATOM     21  H   UNL     1       3.100  -0.757   1.174  0.00  0.00    +0.155 HD
BRANCH  18  27
ATOM     22  C   UNL     1       0.954  -2.186   1.758  0.00  0.00    -0.023 A 
ATOM     23  C   UNL     1      -0.150  -3.015   1.766  0.00  0.00    +0.006 A 
ATOM     24  C   UNL     1      -0.123  -4.212   1.073  0.00  0.00    +0.000 A 
ATOM     25  C   UNL     1       1.010  -4.581   0.371  0.00  0.00    +0.002 A 
ATOM     26  C   UNL     1       2.117  -3.757   0.360  0.00  0.00    +0.023 A 
ATOM     27  C   UNL     1       2.091  -2.552   1.050  0.00  0.00    +0.037 A 
BRANCH  22  28
ATOM     28  C   UNL     1       0.923  -0.881   2.513  0.00  0.00    +0.017 C 
ATOM     29  C   UNL     1       0.554  -1.146   3.974  0.00  0.00    +0.012 C 
BRANCH  28  31
ATOM     30  C   UNL     1      -0.064   1.413   2.570  0.00  0.00    +0.004 C 
ATOM     31  C   UNL     1      -0.119   0.046   1.885  0.00  0.00    +0.004 C 
ENDBRANCH  28  31
ENDBRANCH  22  28
ENDBRANCH  18  27
ENDBRANCH  16  19
ENDBRANCH  15  16
ENDBRANCH   1  15
BRANCH  14  32
ATOM     32  C   UNL     1      12.465   1.059   2.058  0.00  0.00    +0.128 C 
BRANCH  32  33
ATOM     33  C   UNL     1      12.454   1.530   3.514  0.00  0.00    +0.025 C 
BRANCH  33  34
ATOM     34  C   UNL     1      13.165   2.880   3.618  0.00  0.00    -0.016 C 
ATOM     35  C   UNL     1      13.046   3.410   5.049  0.00  0.00    +0.007 C 
ATOM     36  C   UNL     1      14.642   2.708   3.260  0.00  0.00    +0.007 C 
ENDBRANCH  33  34
ENDBRANCH  32  33
ENDBRANCH  14  32
TORSDOF 9
