REMARK  Name = ZINC35365982
REMARK  11 active torsions:
REMARK  status: ('A' for Active; 'I' for Inactive)
REMARK    1  A    between atoms: C_4  and  C_7
REMARK    2  A    between atoms: C_11  and  C_29
REMARK    3  A    between atoms: C_12  and  O_13
REMARK    4  A    between atoms: C_17  and  C_18
REMARK    5  A    between atoms: C_18  and  C_20
REMARK    6  A    between atoms: C_18  and  O_28
REMARK    7  A    between atoms: C_20  and  C_22
REMARK    8  A    between atoms: C_20  and  O_27
REMARK    9  A    between atoms: C_22  and  C_24
REMARK   10  A    between atoms: C_22  and  O_26
REMARK   11  A    between atoms: C_24  and  O_25
REMARK                            x       y       z     vdW  Elec       q    Type
REMARK                         _______ _______ _______ _____ _____    ______ ____
ROOT
ATOM      1  C   UNL     1       3.786  -0.707   0.473  0.00  0.00    +0.021 C 
ATOM      2  C   UNL     1       4.319  -0.269  -0.895  0.00  0.00    -0.061 C 
ATOM      3  N   UNL     1       5.595  -0.940  -1.164  0.00  0.00    +0.393 N 
ATOM      4  C   UNL     1       5.400  -2.392  -1.226  0.00  0.00    -0.061 C 
ATOM      5  C   UNL     1       4.903  -2.904   0.131  0.00  0.00    +0.021 C 
ATOM      6  C   UNL     1       3.566  -2.225   0.453  0.00  0.00    +0.134 C 
ATOM      7  C   UNL     1       5.925  -2.513   1.206  0.00  0.00    +0.095 C 
ATOM      8  N   UNL     1       6.096  -1.052   1.188  0.00  0.00    -0.311 NA
ATOM      9  C   UNL     1       4.824  -0.376   1.552  0.00  0.00    +0.095 C 
ATOM     10  C   UNL     1       6.574  -0.603  -0.127  0.00  0.00    +0.034 C 
ATOM     11  H   UNL     1       5.945  -0.630  -2.057  0.00  0.00    -0.079 HD
ENDROOT
BRANCH   1  15
ATOM     12  C   UNL     1       0.107   1.293   1.316  0.00  0.00    +0.000 A 
ATOM     13  C   UNL     1       1.261   2.026   1.111  0.00  0.00    +0.000 A 
ATOM     14  C   UNL     1       2.451   1.379   0.839  0.00  0.00    +0.004 A 
ATOM     15  C   UNL     1       2.488  -0.002   0.771  0.00  0.00    -0.039 A 
ATOM     16  C   UNL     1       1.334  -0.734   0.977  0.00  0.00    +0.004 A 
ATOM     17  C   UNL     1       0.143  -0.087   1.248  0.00  0.00    +0.000 A 
ENDBRANCH   1  15
BRANCH   5  18
ATOM     18  C   UNL     1       4.726  -4.400   0.085  0.00  0.00    -0.039 A 
ATOM     19  C   UNL     1       4.378  -5.089   1.232  0.00  0.00    +0.004 A 
ATOM     20  C   UNL     1       4.216  -6.462   1.190  0.00  0.00    +0.000 A 
ATOM     21  C   UNL     1       4.401  -7.144   0.002  0.00  0.00    +0.000 A 
ATOM     22  C   UNL     1       4.748  -6.454  -1.144  0.00  0.00    +0.000 A 
ATOM     23  C   UNL     1       4.906  -5.081  -1.104  0.00  0.00    +0.004 A 
ENDBRANCH   5  18
BRANCH   6  24
ATOM     24  O   UNL     1       2.615  -2.561  -0.560  0.00  0.00    -0.390 OA
ATOM     25  H   UNL     1       2.363  -3.494  -0.570  0.00  0.00    +0.210 HD
ENDBRANCH   6  24
BRANCH  10  26
ATOM     26  C   UNL     1       6.782   0.912  -0.100  0.00  0.00    +0.146 C 
BRANCH  26  27
ATOM     27  O   UNL     1       7.722   1.246   0.924  0.00  0.00    -0.390 OA
ATOM     28  H   UNL     1       8.565   0.777   0.852  0.00  0.00    +0.210 HD
ENDBRANCH  26  27
BRANCH  26  29
ATOM     29  C   UNL     1       7.319   1.378  -1.455  0.00  0.00    +0.173 C 
BRANCH  29  30
ATOM     30  O   UNL     1       8.503   0.645  -1.776  0.00  0.00    -0.387 OA
ATOM     31  H   UNL     1       9.218   0.754  -1.134  0.00  0.00    +0.210 HD
ENDBRANCH  29  30
BRANCH  29  32
ATOM     32  C   UNL     1       7.644   2.871  -1.390  0.00  0.00    +0.171 C 
BRANCH  32  33
ATOM     33  O   UNL     1       6.460   3.603  -1.069  0.00  0.00    -0.387 OA
ATOM     34  H   UNL     1       5.745   3.495  -1.711  0.00  0.00    +0.210 HD
ENDBRANCH  32  33
BRANCH  32  35
ATOM     35  C   UNL     1       8.181   3.337  -2.745  0.00  0.00    +0.189 C 
BRANCH  35  36
ATOM     36  O   UNL     1       8.594   4.701  -2.651  0.00  0.00    -0.392 OA
ATOM     37  H   UNL     1       8.945   5.064  -3.475  0.00  0.00    +0.210 HD
ENDBRANCH  35  36
ENDBRANCH  32  35
ENDBRANCH  29  32
ENDBRANCH  26  29
ENDBRANCH  10  26
TORSDOF 11
