REMARK  Name = ZINC36516922
REMARK  16 active torsions:
REMARK  status: ('A' for Active; 'I' for Inactive)
REMARK    1  A    between atoms: C_1  and  C_2
REMARK    2  A    between atoms: C_2  and  C_3
REMARK    3  A    between atoms: C_3  and  C_4
REMARK    4  A    between atoms: C_4  and  C_5
REMARK    5  A    between atoms: C_5  and  C_6
REMARK    6  A    between atoms: C_6  and  N_7
REMARK    7  A    between atoms: N_7  and  C_8
REMARK    8  A    between atoms: C_8  and  C_10
REMARK    9  A    between atoms: C_8  and  C_19
REMARK   10  A    between atoms: N_21  and  C_22
REMARK   11  A    between atoms: C_22  and  S_23
REMARK   12  A    between atoms: S_23  and  C_26
REMARK   13  A    between atoms: C_29  and  C_32
REMARK   14  A    between atoms: C_33  and  C_35
REMARK   15  A    between atoms: C_36  and  C_37
REMARK   16  A    between atoms: C_36  and  C_38
REMARK                            x       y       z     vdW  Elec       q    Type
REMARK                         _______ _______ _______ _____ _____    ______ ____
ROOT
ATOM      1  C   UNL     1      -5.634  -3.581  -0.817  0.00  0.00    +0.193 C 
ENDROOT
BRANCH   1   2
ATOM      2  C   UNL     1      -6.061  -4.917  -1.369  0.00  0.00    -0.015 A 
ATOM      3  C   UNL     1      -7.273  -5.464  -0.992  0.00  0.00    +0.010 A 
ATOM      4  C   UNL     1      -7.669  -6.689  -1.496  0.00  0.00    +0.050 A 
ATOM      5  C   UNL     1      -6.851  -7.372  -2.381  0.00  0.00    +0.166 A 
ATOM      6  C   UNL     1      -5.629  -6.821  -2.760  0.00  0.00    +0.167 A 
ATOM      7  C   UNL     1      -5.241  -5.590  -2.256  0.00  0.00    +0.055 A 
ATOM      8  O   UNL     1      -5.016  -7.676  -3.629  0.00  0.00    -0.453 OA
ATOM      9  C   UNL     1      -5.685  -8.940  -3.461  0.00  0.00    +0.466 C 
ATOM     10  O   UNL     1      -7.003  -8.572  -3.012  0.00  0.00    -0.453 OA
ENDBRANCH   1   2
BRANCH   1  11
ATOM     11  C   UNL     1      -6.854  -2.781  -0.440  0.00  0.00    +0.239 C 
ATOM     12  O   UNL     1      -7.011  -2.418   0.707  0.00  0.00    -0.273 OA
ATOM     13  N   UNL     1      -7.771  -2.468  -1.377  0.00  0.00    -0.294 N 
ATOM     14  H   UNL     1      -7.646  -2.758  -2.294  0.00  0.00    +0.150 HD
BRANCH  13  15
ATOM     15  C   UNL     1      -8.957  -1.690  -1.010  0.00  0.00    +0.278 C 
BRANCH  15  16
ATOM     16  S   UNL     1      -8.653   0.068  -1.341  0.00  0.00    +0.013 S 
ATOM     17  O   UNL     1      -9.817   0.829  -1.050  0.00  0.00    -0.168 OA
ATOM     18  O   UNL     1      -7.387   0.452  -0.822  0.00  0.00    -0.168 OA
BRANCH  16  19
ATOM     19  C   UNL     1      -8.472   0.174  -3.091  0.00  0.00    +0.090 A 
ATOM     20  C   UNL     1      -7.224   0.028  -3.667  0.00  0.00    +0.027 A 
ATOM     21  C   UNL     1      -7.082   0.111  -5.039  0.00  0.00    +0.005 A 
ATOM     22  C   UNL     1      -8.188   0.341  -5.836  0.00  0.00    -0.050 A 
ATOM     23  C   UNL     1      -9.436   0.487  -5.260  0.00  0.00    +0.005 A 
ATOM     24  C   UNL     1      -9.579   0.399  -3.888  0.00  0.00    +0.027 A 
ATOM     25  C   UNL     1      -8.033   0.433  -7.332  0.00  0.00    +0.044 C 
ENDBRANCH  16  19
ENDBRANCH  15  16
ENDBRANCH  13  15
ENDBRANCH   1  11
BRANCH   1  26
ATOM     26  N   UNL     1      -4.800  -3.787   0.370  0.00  0.00    -0.282 N 
ATOM     27  C   UNL     1      -3.576  -3.227   0.438  0.00  0.00    +0.240 C 
ATOM     28  O   UNL     1      -3.202  -2.474  -0.440  0.00  0.00    -0.271 OA
BRANCH  27  29
ATOM     29  C   UNL     1      -2.692  -3.526   1.576  0.00  0.00    +0.066 C 
ATOM     30  C   UNL     1      -1.438  -3.083   1.578  0.00  0.00    -0.071 C 
ATOM     31  C   UNL     1      -0.873  -2.415   0.352  0.00  0.00    +0.039 C 
ATOM     32  C   UNL     1      -0.584  -3.248   2.808  0.00  0.00    +0.039 C 
ENDBRANCH  27  29
BRANCH  26  33
ATOM     33  C   UNL     1      -5.295  -4.603   1.481  0.00  0.00    +0.109 C 
BRANCH  33  34
ATOM     34  C   UNL     1      -4.895  -6.063   1.261  0.00  0.00    +0.019 C 
BRANCH  34  35
ATOM     35  C   UNL     1      -5.412  -6.914   2.422  0.00  0.00    +0.002 C 
BRANCH  35  36
ATOM     36  C   UNL     1      -5.012  -8.374   2.202  0.00  0.00    -0.000 C 
BRANCH  36  38
ATOM     37  C   UNL     1      -5.130 -10.686   3.142  0.00  0.00    +0.004 C 
ATOM     38  C   UNL     1      -5.530  -9.226   3.363  0.00  0.00    -0.003 C 
ENDBRANCH  36  38
ENDBRANCH  35  36
ENDBRANCH  34  35
ENDBRANCH  33  34
ENDBRANCH  26  33
ENDBRANCH   1  26
TORSDOF 12
