REMARK  Name = ZINC35619678
REMARK  15 active torsions:
REMARK  status: ('A' for Active; 'I' for Inactive)
REMARK    1  A    between atoms: C_1  and  C_2
REMARK    2  A    between atoms: C_2  and  C_3
REMARK    3  A    between atoms: C_2  and  C_4
REMARK    4  A    between atoms: C_4  and  N_5
REMARK    5  A    between atoms: N_5  and  C_6
REMARK    6  A    between atoms: C_6  and  C_7
REMARK    7  A    between atoms: C_9  and  N_22
REMARK    8  A    between atoms: C_12  and  N_13
REMARK    9  A    between atoms: N_13  and  C_14
REMARK   10  A    between atoms: N_13  and  C_15
REMARK   11  A    between atoms: N_18  and  C_21
REMARK   12  A    between atoms: C_23  and  C_25
REMARK   13  A    between atoms: C_29  and  C_31
REMARK   14  A    between atoms: C_34  and  O_37
REMARK   15  A    between atoms: O_37  and  C_38
REMARK                            x       y       z     vdW  Elec       q    Type
REMARK                         _______ _______ _______ _____ _____    ______ ____
ROOT
ATOM      1  C   UNL     1      -2.314  -1.233  -3.195  0.00  0.00    -0.007 A 
ATOM      2  C   UNL     1      -2.454  -2.605  -3.144  0.00  0.00    +0.030 A 
ATOM      3  C   UNL     1      -3.558  -3.213  -3.728  0.00  0.00    +0.034 A 
ATOM      4  C   UNL     1      -4.520  -2.440  -4.364  0.00  0.00    +0.025 A 
ATOM      5  C   UNL     1      -4.381  -1.068  -4.415  0.00  0.00    +0.025 A 
ATOM      6  C   UNL     1      -3.280  -0.459  -3.826  0.00  0.00    +0.035 A 
ENDROOT
BRANCH   3   7
ATOM      7  N   UNL     1      -3.700  -4.606  -3.676  0.00  0.00    -0.285 N 
ATOM      8  C   UNL     1      -4.266  -5.265  -4.706  0.00  0.00    +0.220 C 
ATOM      9  O   UNL     1      -4.577  -4.663  -5.713  0.00  0.00    -0.275 OA
ATOM     10  H   UNL     1      -3.390  -5.097  -2.899  0.00  0.00    +0.155 HD
BRANCH   8  11
ATOM     11  C   UNL     1      -4.514  -6.748  -4.608  0.00  0.00    +0.075 C 
ATOM     12  C   UNL     1      -3.278  -7.602  -4.937  0.00  0.00    +0.013 C 
ATOM     13  C   UNL     1      -4.231  -8.555  -5.677  0.00  0.00    +0.001 C 
ATOM     14  C   UNL     1      -5.166  -7.348  -5.865  0.00  0.00    +0.013 C 
ENDBRANCH   8  11
ENDBRANCH   3   7
BRANCH   6  15
ATOM     15  N   UNL     1      -3.141   0.932  -3.872  0.00  0.00    -0.330 N 
ATOM     16  C   UNL     1      -3.587   1.751  -2.743  0.00  0.00    +0.129 C 
BRANCH  15  17
ATOM     17  C   UNL     1      -2.550   1.570  -5.051  0.00  0.00    +0.070 C 
ATOM     18  C   UNL     1      -1.252   2.280  -4.653  0.00  0.00    +0.004 C 
ATOM     19  C   UNL     1      -0.682   3.010  -5.871  0.00  0.00    -0.077 C 
ATOM     20  N   UNL     1      -1.654   3.998  -6.352  0.00  0.00    +0.378 N 
ATOM     21  C   UNL     1      -2.874   3.318  -6.803  0.00  0.00    -0.077 C 
ATOM     22  C   UNL     1      -3.529   2.600  -5.621  0.00  0.00    +0.004 C 
ATOM     23  C   UNL     1      -1.072   4.750  -7.472  0.00  0.00    -0.096 C 
ATOM     24  H   UNL     1      -1.883   4.636  -5.605  0.00  0.00    -0.082 HD
ENDBRANCH  15  17
ENDBRANCH   6  15
BRANCH   1  25
ATOM     25  C   UNL     1      -1.117  -0.573  -2.561  0.00  0.00    +0.145 C 
BRANCH  25  26
ATOM     26  N   UNL     1      -0.200  -1.601  -2.061  0.00  0.00    -0.293 N 
ATOM     27  C   UNL     1      -0.102  -1.831  -0.737  0.00  0.00    +0.247 C 
ATOM     28  O   UNL     1       0.705  -2.638  -0.318  0.00  0.00    -0.270 OA
BRANCH  27  29
ATOM     29  C   UNL     1      -0.973  -1.102   0.205  0.00  0.00    +0.037 A 
ATOM     30  C   UNL     1      -2.223  -0.637  -0.213  0.00  0.00    +0.016 A 
ATOM     31  C   UNL     1      -3.034   0.042   0.669  0.00  0.00    +0.046 A 
ATOM     32  C   UNL     1      -2.610   0.266   1.974  0.00  0.00    +0.120 A 
ATOM     33  C   UNL     1      -1.367  -0.195   2.394  0.00  0.00    +0.046 A 
ATOM     34  C   UNL     1      -0.554  -0.880   1.519  0.00  0.00    +0.016 A 
BRANCH  32  35
ATOM     35  O   UNL     1      -3.411   0.936   2.840  0.00  0.00    -0.495 OA
ATOM     36  C   UNL     1      -2.914   1.131   4.165  0.00  0.00    +0.277 C 
ENDBRANCH  32  35
ENDBRANCH  27  29
BRANCH  26  37
ATOM     37  C   UNL     1       0.609  -2.381  -3.002  0.00  0.00    +0.111 C 
BRANCH  37  39
ATOM     38  C   UNL     1       2.713  -1.524  -1.963  0.00  0.00    +0.009 C 
ATOM     39  C   UNL     1       1.926  -1.649  -3.269  0.00  0.00    +0.000 C 
ATOM     40  C   UNL     1       2.750  -2.439  -4.288  0.00  0.00    +0.009 C 
ENDBRANCH  37  39
ENDBRANCH  26  37
ENDBRANCH  25  26
ENDBRANCH   1  25
TORSDOF 10
