REMARK  Name = ZINC45300261
REMARK  9 active torsions:
REMARK  status: ('A' for Active; 'I' for Inactive)
REMARK    1  A    between atoms: C_4  and  C_7
REMARK    2  A    between atoms: C_7  and  C_8
REMARK    3  A    between atoms: C_8  and  C_10
REMARK    4  A    between atoms: C_8  and  N_35
REMARK    5  A    between atoms: C_10  and  O_11
REMARK    6  A    between atoms: O_11  and  C_12
REMARK    7  A    between atoms: C_14  and  C_18
REMARK    8  A    between atoms: C_24  and  C_29
REMARK    9  A    between atoms: C_29  and  C_30
REMARK                            x       y       z     vdW  Elec       q    Type
REMARK                         _______ _______ _______ _____ _____    ______ ____
ROOT
ATOM      1  C   UNL     1       6.919  -2.916   2.887  0.00  0.00    +0.139 A 
ATOM      2  C   UNL     1       7.334  -3.289   4.159  0.00  0.00    +0.057 A 
ATOM      3  C   UNL     1       8.485  -4.073   4.276  0.00  0.00    +0.004 A 
ATOM      4  C   UNL     1       9.167  -4.447   3.119  0.00  0.00    +0.119 A 
ATOM      5  N   UNL     1       8.737  -4.069   1.933  0.00  0.00    -0.259 NA
ATOM      6  C   UNL     1       7.652  -3.334   1.786  0.00  0.00    +0.156 A 
ENDROOT
BRANCH   3   7
ATOM      7  C   UNL     1       8.973  -4.500   5.610  0.00  0.00    -0.016 A 
ATOM      8  C   UNL     1       8.283  -4.126   6.762  0.00  0.00    +0.010 A 
ATOM      9  C   UNL     1       8.736  -4.522   8.001  0.00  0.00    +0.024 A 
ATOM     10  C   UNL     1       9.889  -5.299   8.113  0.00  0.00    +0.037 A 
ATOM     11  C   UNL     1      10.572  -5.668   6.959  0.00  0.00    -0.013 A 
ATOM     12  C   UNL     1      10.123  -5.282   5.719  0.00  0.00    +0.014 A 
ATOM     13  C   UNL     1      11.756  -6.492   7.411  0.00  0.00    +0.114 C 
ATOM     14  C   UNL     1      11.629  -6.521   8.920  0.00  0.00    +0.225 C 
ATOM     15  O   UNL     1      12.377  -7.079   9.695  0.00  0.00    -0.275 OA
ATOM     16  N   UNL     1      10.533  -5.813   9.239  0.00  0.00    -0.285 N 
ATOM     17  H   UNL     1      10.224  -5.675  10.148  0.00  0.00    +0.155 HD
BRANCH  13  18
ATOM     18  C   UNL     1      13.066  -5.822   6.993  0.00  0.00    +0.092 C 
BRANCH  18  19
ATOM     19  C   UNL     1      14.224  -6.720   7.346  0.00  0.00    +0.106 A 
ATOM     20  C   UNL     1      14.762  -7.660   6.547  0.00  0.00    +0.044 A 
ATOM     21  C   UNL     1      15.817  -8.258   7.273  0.00  0.00    +0.041 A 
ATOM     22  C   UNL     1      15.861  -7.649   8.471  0.00  0.00    +0.195 A 
ATOM     23  O   UNL     1      14.898  -6.714   8.507  0.00  0.00    -0.468 OA
ENDBRANCH  18  19
ENDBRANCH  13  18
ENDBRANCH   3   7
BRANCH   1  24
ATOM     24  O   UNL     1       5.805  -2.154   2.723  0.00  0.00    -0.492 OA
BRANCH  24  25
ATOM     25  C   UNL     1       5.441  -1.817   1.383  0.00  0.00    +0.213 C 
BRANCH  25  26
ATOM     26  C   UNL     1       4.171  -0.963   1.399  0.00  0.00    -0.033 C 
BRANCH  26  27
ATOM     27  N   UNL     1       4.452   0.319   2.059  0.00  0.00    +0.382 N 
ATOM     28  H   UNL     1       5.178   0.805   1.555  0.00  0.00    -0.089 HD
ATOM     29  H   UNL     1       3.615   0.882   2.070  0.00  0.00    -0.089 HD
ATOM     30  H   UNL     1       4.755   0.150   3.006  0.00  0.00    -0.089 HD
ENDBRANCH  26  27
BRANCH  26  31
ATOM     31  C   UNL     1       3.711  -0.707  -0.038  0.00  0.00    +0.022 C 
BRANCH  31  35
ATOM     32  C   UNL     1      -0.017   1.378   0.010  0.00  0.00    +0.000 A 
ATOM     33  C   UNL     1       1.171   2.086   0.002  0.00  0.00    +0.000 A 
ATOM     34  C   UNL     1       2.377   1.411  -0.013  0.00  0.00    +0.003 A 
ATOM     35  C   UNL     1       2.396   0.029  -0.020  0.00  0.00    -0.049 A 
ATOM     36  C   UNL     1       1.208  -0.679  -0.012  0.00  0.00    +0.003 A 
ATOM     37  C   UNL     1       0.002  -0.004   0.002  0.00  0.00    +0.000 A 
ENDBRANCH  31  35
ENDBRANCH  26  31
ENDBRANCH  25  26
ENDBRANCH  24  25
ENDBRANCH   1  24
TORSDOF 9
