REMARK  Name = ZINC13499559
REMARK  15 active torsions:
REMARK  status: ('A' for Active; 'I' for Inactive)
REMARK    1  A    between atoms: C_1  and  C_2
REMARK    2  A    between atoms: C_2  and  C_3
REMARK    3  A    between atoms: C_3  and  C_4
REMARK    4  A    between atoms: C_4  and  C_6
REMARK    5  A    between atoms: C_4  and  N_77
REMARK    6  A    between atoms: N_10  and  C_11
REMARK    7  A    between atoms: C_11  and  C_12
REMARK    8  A    between atoms: C_11  and  C_13
REMARK    9  A    between atoms: C_11  and  C_14
REMARK   10  A    between atoms: C_14  and  C_15
REMARK   11  A    between atoms: C_16  and  C_17
REMARK   12  A    between atoms: C_16  and  N_77
REMARK   13  A    between atoms: C_20  and  C_30
REMARK   14  A    between atoms: C_22  and  C_29
REMARK   15  A    between atoms: C_31  and  N_77
REMARK                            x       y       z     vdW  Elec       q    Type
REMARK                         _______ _______ _______ _____ _____    ______ ____
ROOT
ATOM      1  N   UNL     1      -3.096   1.190  -1.212  0.00  0.00    +0.391 N 
ATOM      2  H   UNL     1      -3.342   2.139  -1.516  0.00  0.00    -0.080 HD
ENDROOT
BRANCH   1   3
ATOM      3  C   UNL     1      -1.804   0.810  -1.819  0.00  0.00    -0.067 C 
ATOM      4  C   UNL     1      -1.876   1.055  -3.328  0.00  0.00    -0.015 C 
ATOM      5  C   UNL     1      -0.537   0.687  -3.969  0.00  0.00    -0.002 C 
ATOM      6  C   UNL     1      -0.234  -0.790  -3.706  0.00  0.00    -0.000 C 
ATOM      7  C   UNL     1      -0.161  -1.035  -2.198  0.00  0.00    -0.002 C 
ATOM      8  C   UNL     1      -1.501  -0.667  -1.556  0.00  0.00    -0.015 C 
ENDBRANCH   1   3
BRANCH   1   9
ATOM      9  C   UNL     1      -4.154   0.256  -1.651  0.00  0.00    +0.003 C 
BRANCH   9  10
ATOM     10  C   UNL     1      -4.070  -1.036  -0.880  0.00  0.00    +0.139 A 
ATOM     11  N   UNL     1      -3.733  -1.176   0.379  0.00  0.00    -0.115 NA
ATOM     12  N   UNL     1      -3.780  -2.432   0.666  0.00  0.00    -0.023 NA
ATOM     13  N   UNL     1      -4.138  -3.096  -0.377  0.00  0.00    -0.043 NA
ATOM     14  N   UNL     1      -4.332  -2.270  -1.349  0.00  0.00    -0.225 N 
BRANCH  14  15
ATOM     15  C   UNL     1      -4.754  -2.612  -2.710  0.00  0.00    +0.061 C 
ATOM     16  C   UNL     1      -5.980  -1.780  -3.088  0.00  0.00    +0.036 C 
ATOM     17  C   UNL     1      -3.614  -2.315  -3.687  0.00  0.00    +0.036 C 
BRANCH  15  18
ATOM     18  C   UNL     1      -5.107  -4.100  -2.776  0.00  0.00    +0.026 C 
ATOM     19  C   UNL     1      -5.548  -4.457  -4.197  0.00  0.00    +0.006 C 
ENDBRANCH  15  18
ENDBRANCH  14  15
ENDBRANCH   9  10
BRANCH   9  20
ATOM     20  C   UNL     1      -5.517   0.908  -1.405  0.00  0.00    -0.008 C 
BRANCH  20  22
ATOM     21  C   UNL     1      -6.962   2.870  -1.954  0.00  0.00    +0.004 C 
ATOM     22  C   UNL     1      -5.654   2.150  -2.288  0.00  0.00    -0.005 C 
ENDBRANCH  20  22
ENDBRANCH   9  20
ENDBRANCH   1   9
BRANCH   1  23
ATOM     23  C   UNL     1      -2.986   1.172   0.262  0.00  0.00    -0.036 C 
BRANCH  23  24
ATOM     24  C   UNL     1      -2.292   2.433   0.710  0.00  0.00    +0.001 A 
ATOM     25  C   UNL     1      -3.024   3.521   1.055  0.00  0.00    +0.017 A 
ATOM     26  C   UNL     1      -2.319   4.732   1.479  0.00  0.00    +0.002 A 
ATOM     27  C   UNL     1      -3.019   5.887   1.842  0.00  0.00    -0.041 A 
ATOM     28  C   UNL     1      -2.332   7.001   2.234  0.00  0.00    +0.007 A 
ATOM     29  C   UNL     1      -0.944   6.996   2.274  0.00  0.00    -0.048 A 
ATOM     30  C   UNL     1      -0.234   5.870   1.921  0.00  0.00    +0.029 A 
ATOM     31  C   UNL     1      -0.912   4.723   1.520  0.00  0.00    +0.050 A 
ATOM     32  N   UNL     1      -0.227   3.582   1.161  0.00  0.00    -0.322 N 
ATOM     33  H   UNL     1       0.743   3.578   1.189  0.00  0.00    +0.169 HD
ATOM     34  C   UNL     1      -0.883   2.475   0.772  0.00  0.00    +0.251 A 
ATOM     35  O   UNL     1      -0.244   1.484   0.462  0.00  0.00    -0.268 OA
ATOM     36  C   UNL     1      -0.207   8.237   2.709  0.00  0.00    +0.044 C 
ATOM     37  C   UNL     1      -4.526   5.903   1.801  0.00  0.00    +0.044 C 
ENDBRANCH  23  24
ENDBRANCH   1  23
TORSDOF 9
