REMARK  Name = ZINC10266492
REMARK  11 active torsions:
REMARK  status: ('A' for Active; 'I' for Inactive)
REMARK    1  A    between atoms: C_1  and  C_2
REMARK    2  A    between atoms: C_2  and  C_3
REMARK    3  A    between atoms: C_3  and  C_4
REMARK    4  A    between atoms: C_4  and  C_5
REMARK    5  A    between atoms: C_5  and  N_6
REMARK    6  A    between atoms: C_19  and  S_20
REMARK    7  A    between atoms: S_20  and  C_21
REMARK    8  A    between atoms: C_21  and  C_22
REMARK    9  A    between atoms: N_24  and  C_25
REMARK   10  A    between atoms: C_25  and  C_27
REMARK   11  A    between atoms: C_25  and  C_28
REMARK                            x       y       z     vdW  Elec       q    Type
REMARK                         _______ _______ _______ _____ _____    ______ ____
ROOT
ATOM      1  N   UNL     1       5.722  13.987   6.175  0.00  0.00    -0.277 N 
ATOM      2  C   UNL     1       4.970  15.100   6.291  0.00  0.00    +0.263 A 
ATOM      3  O   UNL     1       5.341  16.028   6.985  0.00  0.00    -0.267 OA
ATOM      4  C   UNL     1       3.686  15.169   5.570  0.00  0.00    +0.064 A 
ATOM      5  C   UNL     1       2.865  16.292   5.661  0.00  0.00    +0.015 A 
ATOM      6  C   UNL     1       1.671  16.320   4.972  0.00  0.00    +0.001 A 
ATOM      7  C   UNL     1       1.287  15.240   4.192  0.00  0.00    +0.002 A 
ATOM      8  C   UNL     1       2.092  14.123   4.094  0.00  0.00    +0.027 A 
ATOM      9  C   UNL     1       3.296  14.078   4.780  0.00  0.00    +0.064 A 
ATOM     10  N   UNL     1       4.127  12.963   4.698  0.00  0.00    -0.256 N 
ATOM     11  C   UNL     1       5.312  12.926   5.382  0.00  0.00    +0.240 A 
ATOM     12  N   UNL     1       5.890  11.775   5.122  0.00  0.00    -0.109 NA
ATOM     13  N   UNL     1       5.057  11.054   4.258  0.00  0.00    -0.120 NA
ATOM     14  C   UNL     1       3.995  11.783   4.015  0.00  0.00    +0.198 A 
ENDROOT
BRANCH   1  15
ATOM     15  C   UNL     1       7.002  13.904   6.883  0.00  0.00    +0.128 C 
BRANCH  15  16
ATOM     16  C   UNL     1       8.114  14.466   5.995  0.00  0.00    +0.022 C 
BRANCH  16  17
ATOM     17  C   UNL     1       9.450  14.380   6.735  0.00  0.00    +0.001 C 
BRANCH  17  19
ATOM     18  C   UNL     1      11.899  14.856   6.587  0.00  0.00    +0.004 C 
ATOM     19  C   UNL     1      10.562  14.942   5.847  0.00  0.00    -0.003 C 
ENDBRANCH  17  19
ENDBRANCH  16  17
ENDBRANCH  15  16
ENDBRANCH   1  15
BRANCH  14  20
ATOM     20  S   UNL     1       2.641  11.329   2.984  0.00  0.00    -0.076 S 
BRANCH  20  21
ATOM     21  C   UNL     1       3.081   9.675   2.384  0.00  0.00    +0.173 C 
BRANCH  21  22
ATOM     22  C   UNL     1       1.992   9.163   1.478  0.00  0.00    +0.224 C 
ATOM     23  O   UNL     1       1.014   9.846   1.259  0.00  0.00    -0.275 OA
ATOM     24  N   UNL     1       2.103   7.945   0.911  0.00  0.00    -0.308 N 
ATOM     25  H   UNL     1       2.885   7.399   1.086  0.00  0.00    +0.149 HD
BRANCH  24  26
ATOM     26  C   UNL     1       1.044   7.447   0.030  0.00  0.00    +0.100 C 
ATOM     27  C   UNL     1       1.274   7.968  -1.390  0.00  0.00    +0.033 C 
BRANCH  26  28
ATOM     28  C   UNL     1       1.064   5.940   0.022  0.00  0.00    -0.027 A 
ATOM     29  C   UNL     1       2.286   5.270   0.007  0.00  0.00    +0.006 A 
ATOM     30  C   UNL     1       2.340   3.910   0.001  0.00  0.00    +0.009 A 
ATOM     31  C   UNL     1       1.147   3.167   0.008  0.00  0.00    -0.018 A 
ATOM     32  C   UNL     1       1.163   1.762   0.000  0.00  0.00    +0.008 A 
ATOM     33  C   UNL     1      -0.013   1.076   0.008  0.00  0.00    +0.001 A 
ATOM     34  C   UNL     1      -1.235   1.746   0.017  0.00  0.00    +0.001 A 
ATOM     35  C   UNL     1      -1.288   3.106   0.031  0.00  0.00    +0.008 A 
ATOM     36  C   UNL     1      -0.096   3.849   0.023  0.00  0.00    -0.018 A 
ATOM     37  C   UNL     1      -0.111   5.254   0.030  0.00  0.00    +0.014 A 
ENDBRANCH  26  28
ENDBRANCH  24  26
ENDBRANCH  21  22
ENDBRANCH  20  21
ENDBRANCH  14  20
TORSDOF 9
