REMARK  Name = ZINC36608066
REMARK  12 active torsions:
REMARK  status: ('A' for Active; 'I' for Inactive)
REMARK    1  A    between atoms: C_1  and  C_2
REMARK    2  A    between atoms: C_2  and  C_3
REMARK    3  A    between atoms: C_2  and  C_4
REMARK    4  A    between atoms: C_2  and  N_5
REMARK    5  A    between atoms: C_6  and  C_8
REMARK    6  A    between atoms: C_8  and  C_10
REMARK    7  A    between atoms: C_8  and  N_22
REMARK    8  A    between atoms: C_19  and  O_20
REMARK    9  A    between atoms: O_20  and  C_21
REMARK   10  A    between atoms: N_22  and  C_23
REMARK   11  A    between atoms: C_29  and  C_31
REMARK   12  A    between atoms: C_36  and  O_37
REMARK                            x       y       z     vdW  Elec       q    Type
REMARK                         _______ _______ _______ _____ _____    ______ ____
ROOT
ATOM      1  C   UNL     1       2.852  -0.197  -2.181  0.00  0.00    +0.202 C 
ENDROOT
BRANCH   1   2
ATOM      2  C   UNL     1       1.956   0.931  -2.623  0.00  0.00    +0.031 A 
ATOM      3  C   UNL     1       0.722   0.655  -3.234  0.00  0.00    -0.009 A 
ATOM      4  C   UNL     1       0.293  -0.667  -3.448  0.00  0.00    +0.009 A 
ATOM      5  C   UNL     1      -0.909  -0.897  -4.042  0.00  0.00    +0.001 A 
ATOM      6  C   UNL     1      -1.724   0.159  -4.445  0.00  0.00    +0.001 A 
ATOM      7  C   UNL     1      -1.343   1.452  -4.254  0.00  0.00    +0.008 A 
ATOM      8  C   UNL     1      -0.108   1.729  -3.643  0.00  0.00    -0.017 A 
ATOM      9  C   UNL     1       0.318   3.052  -3.429  0.00  0.00    +0.012 A 
ATOM     10  C   UNL     1       1.518   3.286  -2.834  0.00  0.00    +0.046 A 
ATOM     11  C   UNL     1       2.337   2.228  -2.426  0.00  0.00    +0.126 A 
BRANCH  11  12
ATOM     12  O   UNL     1       3.528   2.493  -1.829  0.00  0.00    -0.495 OA
ATOM     13  C   UNL     1       3.849   3.868  -1.604  0.00  0.00    +0.277 C 
ENDBRANCH  11  12
ENDBRANCH   1   2
BRANCH   1  15
ATOM     14  N   UNL     1       1.692  -0.508  -0.018  0.00  0.00    -0.309 N 
ATOM     15  C   UNL     1       2.846  -0.283  -0.676  0.00  0.00    +0.239 C 
ATOM     16  O   UNL     1       3.881  -0.151  -0.058  0.00  0.00    -0.273 OA
ATOM     17  H   UNL     1       0.864  -0.614  -0.513  0.00  0.00    +0.149 HD
BRANCH  14  19
ATOM     18  C   UNL     1       2.197   0.726   2.032  0.00  0.00    +0.031 C 
ATOM     19  C   UNL     1       1.687  -0.591   1.444  0.00  0.00    +0.026 C 
ATOM     20  C   UNL     1       2.596  -1.737   1.893  0.00  0.00    +0.031 C 
ATOM     21  C   UNL     1       0.261  -0.850   1.935  0.00  0.00    +0.031 C 
ENDBRANCH  14  19
ENDBRANCH   1  15
BRANCH   1  22
ATOM     22  N   UNL     1       4.217   0.050  -2.651  0.00  0.00    -0.251 N 
ATOM     23  C   UNL     1       5.261  -0.516  -2.015  0.00  0.00    +0.255 C 
ATOM     24  O   UNL     1       6.365  -0.011  -2.090  0.00  0.00    -0.269 OA
BRANCH  22  25
ATOM     25  C   UNL     1       4.436   0.875  -3.760  0.00  0.00    +0.038 A 
ATOM     26  C   UNL     1       5.046   2.112  -3.597  0.00  0.00    +0.023 A 
ATOM     27  C   UNL     1       5.261   2.923  -4.694  0.00  0.00    +0.002 A 
ATOM     28  C   UNL     1       4.870   2.505  -5.953  0.00  0.00    +0.000 A 
ATOM     29  C   UNL     1       4.263   1.273  -6.118  0.00  0.00    +0.002 A 
ATOM     30  C   UNL     1       4.049   0.455  -5.026  0.00  0.00    +0.023 A 
ENDBRANCH  22  25
BRANCH  23  31
ATOM     31  C   UNL     1       5.066  -1.749  -1.230  0.00  0.00    +0.079 A 
ATOM     32  C   UNL     1       3.805  -2.347  -1.161  0.00  0.00    +0.017 A 
ATOM     33  C   UNL     1       3.630  -3.498  -0.426  0.00  0.00    +0.001 A 
ATOM     34  C   UNL     1       4.699  -4.068   0.247  0.00  0.00    +0.004 A 
ATOM     35  C   UNL     1       5.950  -3.488   0.188  0.00  0.00    +0.046 A 
ATOM     36  C   UNL     1       6.146  -2.332  -0.552  0.00  0.00    +0.129 A 
BRANCH  36  37
ATOM     37  O   UNL     1       7.377  -1.764  -0.616  0.00  0.00    -0.506 OA
ATOM     38  H   UNL     1       7.546  -1.114   0.080  0.00  0.00    +0.292 HD
ENDBRANCH  36  37
ENDBRANCH  23  31
ENDBRANCH   1  22
TORSDOF 8
