REMARK  Name = ZINC40979722
REMARK  12 active torsions:
REMARK  status: ('A' for Active; 'I' for Inactive)
REMARK    1  A    between atoms: C_1  and  C_2
REMARK    2  A    between atoms: C_2  and  C_3
REMARK    3  A    between atoms: C_3  and  C_4
REMARK    4  A    between atoms: C_4  and  O_5
REMARK    5  A    between atoms: O_5  and  C_6
REMARK    6  A    between atoms: C_6  and  C_8
REMARK    7  A    between atoms: C_9  and  C_34
REMARK    8  A    between atoms: C_16  and  C_18
REMARK    9  A    between atoms: C_23  and  O_24
REMARK   10  A    between atoms: O_24  and  C_25
REMARK   11  A    between atoms: C_25  and  C_26
REMARK   12  A    between atoms: C_29  and  C_32
REMARK                            x       y       z     vdW  Elec       q    Type
REMARK                         _______ _______ _______ _____ _____    ______ ____
ROOT
ATOM      1  C   UNL     1       2.412  -4.417   3.554  0.00  0.00    +0.082 C 
ATOM      2  C   UNL     1       2.239  -5.721   3.821  0.00  0.00    +0.020 C 
ATOM      3  N   UNL     1       2.692  -6.298   4.981  0.00  0.00    -0.286 N 
ATOM      4  C   UNL     1       3.563  -5.555   5.765  0.00  0.00    +0.240 A 
ATOM      5  N   UNL     1       4.306  -5.901   6.777  0.00  0.00    -0.092 NA
ATOM      6  N   UNL     1       4.973  -4.886   7.210  0.00  0.00    -0.021 NA
ATOM      7  N   UNL     1       4.698  -3.834   6.508  0.00  0.00    -0.042 NA
ATOM      8  N   UNL     1       3.770  -4.231   5.547  0.00  0.00    -0.201 N 
ATOM      9  C   UNL     1       3.109  -3.470   4.495  0.00  0.00    +0.184 C 
ATOM     10  C   UNL     1       1.521  -6.581   2.813  0.00  0.00    +0.061 C 
ATOM     11  H   UNL     1       2.413  -7.189   5.243  0.00  0.00    +0.155 HD
ENDROOT
BRANCH   9  12
ATOM     12  C   UNL     1       2.096  -2.541   5.113  0.00  0.00    +0.024 A 
ATOM     13  C   UNL     1       1.060  -3.053   5.870  0.00  0.00    +0.025 A 
ATOM     14  C   UNL     1       0.130  -2.200   6.438  0.00  0.00    +0.018 A 
ATOM     15  C   UNL     1       0.236  -0.834   6.250  0.00  0.00    +0.019 A 
ATOM     16  C   UNL     1       1.271  -0.318   5.495  0.00  0.00    +0.047 A 
ATOM     17  C   UNL     1       2.208  -1.171   4.928  0.00  0.00    +0.127 A 
ATOM     18 BR   UNL     1      -1.288  -2.904   7.472  0.00  0.00    -0.050 Br
BRANCH  17  19
ATOM     19  O   UNL     1       3.230  -0.665   4.189  0.00  0.00    -0.487 OA
BRANCH  19  20
ATOM     20  C   UNL     1       3.282   0.756   4.040  0.00  0.00    +0.264 C 
BRANCH  20  21
ATOM     21  C   UNL     1       4.473   1.129   3.196  0.00  0.00    -0.010 A 
ATOM     22  C   UNL     1       5.695   1.373   3.794  0.00  0.00    +0.007 A 
ATOM     23  C   UNL     1       6.787   1.716   3.019  0.00  0.00    +0.004 A 
ATOM     24  C   UNL     1       6.657   1.814   1.646  0.00  0.00    -0.050 A 
ATOM     25  C   UNL     1       5.436   1.569   1.048  0.00  0.00    +0.004 A 
ATOM     26  C   UNL     1       4.344   1.222   1.823  0.00  0.00    +0.007 A 
ATOM     27  C   UNL     1       7.848   2.188   0.802  0.00  0.00    +0.044 C 
ENDBRANCH  20  21
ENDBRANCH  19  20
ENDBRANCH  17  19
ENDBRANCH   9  12
BRANCH   1  28
ATOM     28  C   UNL     1       1.923  -3.910   2.329  0.00  0.00    +0.339 C 
ATOM     29  O   UNL     1       2.681  -3.755   1.389  0.00  0.00    -0.245 OA
BRANCH  28  30
ATOM     30  O   UNL     1       0.617  -3.599   2.201  0.00  0.00    -0.461 OA
BRANCH  30  31
ATOM     31  C   UNL     1       0.192  -3.091   0.934  0.00  0.00    +0.232 C 
BRANCH  31  32
ATOM     32  C   UNL     1      -1.309  -2.797   0.980  0.00  0.00    +0.041 C 
BRANCH  32  34
ATOM     33  C   UNL     1      -3.265  -1.960  -0.330  0.00  0.00    +0.004 C 
ATOM     34  C   UNL     1      -1.764  -2.254  -0.376  0.00  0.00    -0.000 C 
ENDBRANCH  32  34
ENDBRANCH  31  32
ENDBRANCH  30  31
ENDBRANCH  28  30
ENDBRANCH   1  28
TORSDOF 9
