REMARK  Name = ZINC31610099
REMARK  9 active torsions:
REMARK  status: ('A' for Active; 'I' for Inactive)
REMARK    1  A    between atoms: C_1  and  C_2
REMARK    2  A    between atoms: C_8  and  N_10
REMARK    3  A    between atoms: N_10  and  C_11
REMARK    4  A    between atoms: C_11  and  N_13
REMARK    5  A    between atoms: N_13  and  N_14
REMARK    6  A    between atoms: C_15  and  C_17
REMARK    7  A    between atoms: C_20  and  N_23
REMARK    8  A    between atoms: C_24  and  C_26
REMARK    9  A    between atoms: C_29  and  C_31
REMARK                            x       y       z     vdW  Elec       q    Type
REMARK                         _______ _______ _______ _____ _____    ______ ____
ROOT
ATOM      1  N   UNL     1       3.626   1.742   0.127  0.00  0.00    -0.231 N 
ATOM      2  C   UNL     1       2.472   1.065  -0.037  0.00  0.00    +0.260 C 
ATOM      3  O   UNL     1       2.492  -0.139  -0.203  0.00  0.00    -0.269 OA
ATOM      4  H   UNL     1       3.607   2.832   0.277  0.00  0.00    +0.173 HD
ENDROOT
BRANCH   2   5
ATOM      5  C   UNL     1       1.184   1.785  -0.015  0.00  0.00    +0.038 A 
ATOM      6  C   UNL     1      -0.013   1.085  -0.185  0.00  0.00    +0.015 A 
ATOM      7  C   UNL     1      -1.213   1.760  -0.170  0.00  0.00    +0.024 A 
ATOM      8  C   UNL     1      -1.235   3.138   0.025  0.00  0.00    +0.033 A 
ATOM      9  C   UNL     1      -0.045   3.838   0.194  0.00  0.00    +0.024 A 
ATOM     10  C   UNL     1       1.159   3.170   0.175  0.00  0.00    +0.015 A 
BRANCH   8  11
ATOM     11  N   UNL     1      -2.451   3.818   0.045  0.00  0.00    -0.285 N 
ATOM     12  C   UNL     1      -3.550   3.219   0.546  0.00  0.00    +0.221 C 
ATOM     13  O   UNL     1      -3.462   2.127   1.065  0.00  0.00    -0.275 OA
ATOM     14  H   UNL     1      -2.515   4.844  -0.347  0.00  0.00    +0.155 HD
BRANCH  12  15
ATOM     15  C   UNL     1      -4.888   3.907   0.460  0.00  0.00    +0.078 C 
ATOM     16  C   UNL     1      -5.516   4.396   1.767  0.00  0.00    +0.017 C 
ATOM     17  C   UNL     1      -6.097   3.176   1.048  0.00  0.00    -0.002 C 
ATOM     18  C   UNL     1      -5.854   1.803   1.678  0.00  0.00    +0.008 C 
ENDBRANCH  12  15
ENDBRANCH   8  11
ENDBRANCH   2   5
BRANCH   1  19
ATOM     19  N   UNL     1       4.848   1.059   0.106  0.00  0.00    -0.246 N 
ATOM     20  H   UNL     1       4.867  -0.031  -0.044  0.00  0.00    +0.172 HD
BRANCH  19  21
ATOM     21  C   UNL     1       6.002   1.736   0.271  0.00  0.00    +0.147 C 
ATOM     22  S   UNL     1       7.496   0.900   0.245  0.00  0.00    -0.017 S 
BRANCH  21  23
ATOM     23  N   UNL     1       5.979   3.071   0.455  0.00  0.00    -0.322 N 
ATOM     24  H   UNL     1       5.019   3.608   0.471  0.00  0.00    +0.148 HD
BRANCH  23  31
ATOM     25  C   UNL     1       6.620   5.311  -1.265  0.00  0.00    +0.009 C 
ATOM     26  C   UNL     1       7.035   5.263   0.207  0.00  0.00    +0.006 C 
ATOM     27  C   UNL     1       5.942   5.902   1.066  0.00  0.00    +0.005 C 
ATOM     28  C   UNL     1       6.357   5.853   2.538  0.00  0.00    +0.000 C 
ATOM     29  C   UNL     1       6.555   4.397   2.964  0.00  0.00    +0.002 C 
ATOM     30  C   UNL     1       7.648   3.759   2.105  0.00  0.00    +0.022 C 
ATOM     31  C   UNL     1       7.233   3.807   0.633  0.00  0.00    +0.075 C 
ENDBRANCH  23  31
ENDBRANCH  21  23
ENDBRANCH  19  21
ENDBRANCH   1  19
TORSDOF 7
