REMARK  Name = ZINC09396438
REMARK  12 active torsions:
REMARK  status: ('A' for Active; 'I' for Inactive)
REMARK    1  A    between atoms: C_1  and  C_2
REMARK    2  A    between atoms: C_2  and  C_3
REMARK    3  A    between atoms: C_7  and  C_34
REMARK    4  A    between atoms: C_8  and  N_9
REMARK    5  A    between atoms: C_10  and  C_12
REMARK    6  A    between atoms: C_12  and  S_13
REMARK    7  A    between atoms: S_13  and  C_14
REMARK    8  A    between atoms: C_17  and  C_26
REMARK    9  A    between atoms: N_18  and  C_19
REMARK   10  A    between atoms: C_26  and  C_28
REMARK   11  A    between atoms: C_26  and  N_69
REMARK   12  A    between atoms: C_34  and  C_35
REMARK                            x       y       z     vdW  Elec       q    Type
REMARK                         _______ _______ _______ _____ _____    ______ ____
ROOT
ATOM      1  C   UNL     1      -2.246   1.756   5.161  0.00  0.00    +0.197 A 
ATOM      2  N   UNL     1      -1.555   1.720   6.276  0.00  0.00    -0.122 NA
ATOM      3  N   UNL     1      -2.332   1.918   7.280  0.00  0.00    -0.135 NA
ATOM      4  C   UNL     1      -3.557   2.092   6.871  0.00  0.00    +0.125 A 
ATOM      5  N   UNL     1      -3.547   2.001   5.505  0.00  0.00    -0.275 N 
ENDROOT
BRANCH   5   6
ATOM      6  C   UNL     1      -4.644   2.129   4.638  0.00  0.00    +0.050 A 
ATOM      7  C   UNL     1      -5.313   3.341   4.538  0.00  0.00    +0.029 A 
ATOM      8  C   UNL     1      -6.388   3.466   3.680  0.00  0.00    +0.040 A 
ATOM      9  C   UNL     1      -6.806   2.381   2.929  0.00  0.00    +0.124 A 
ATOM     10  C   UNL     1      -6.143   1.169   3.032  0.00  0.00    +0.040 A 
ATOM     11  C   UNL     1      -5.064   1.042   3.884  0.00  0.00    +0.029 A 
ATOM     12  F   UNL     1      -7.861   2.503   2.095  0.00  0.00    -0.205 F 
ENDBRANCH   5   6
BRANCH   4  13
ATOM     13  C   UNL     1      -4.761   2.352   7.740  0.00  0.00    -0.002 C 
ATOM     14  C   UNL     1      -4.724   3.796   8.243  0.00  0.00    -0.005 C 
BRANCH  13  20
ATOM     15  C   UNL     1      -4.678   0.036   8.440  0.00  0.00    -0.078 C 
ATOM     16  C   UNL     1      -4.516  -0.881   9.654  0.00  0.00    -0.019 C 
ATOM     17  C   UNL     1      -5.704  -0.684  10.599  0.00  0.00    -0.004 C 
ATOM     18  C   UNL     1      -5.780   0.789  11.011  0.00  0.00    -0.019 C 
ATOM     19  C   UNL     1      -5.905   1.658   9.757  0.00  0.00    -0.078 C 
ATOM     20  N   UNL     1      -4.719   1.440   8.902  0.00  0.00    +0.386 N 
ATOM     21  H   UNL     1      -3.873   1.636   9.449  0.00  0.00    -0.081 HD
ENDBRANCH  13  20
ENDBRANCH   4  13
BRANCH   1  22
ATOM     22  S   UNL     1      -1.616   1.540   3.530  0.00  0.00    -0.076 S 
BRANCH  22  23
ATOM     23  C   UNL     1       0.135   1.276   3.902  0.00  0.00    +0.173 C 
BRANCH  23  25
ATOM     24  N   UNL     1       2.225   0.849   2.649  0.00  0.00    -0.284 N 
ATOM     25  C   UNL     1       0.895   1.061   2.618  0.00  0.00    +0.228 C 
ATOM     26  O   UNL     1       0.309   1.085   1.556  0.00  0.00    -0.275 OA
ATOM     27  H   UNL     1       2.699   0.865   3.495  0.00  0.00    +0.155 HD
BRANCH  24  33
ATOM     28  C   UNL     1       4.030   1.378   1.133  0.00  0.00    -0.026 A 
ATOM     29  C   UNL     1       4.720   1.132  -0.037  0.00  0.00    +0.005 A 
ATOM     30  C   UNL     1       4.303   0.124  -0.888  0.00  0.00    +0.001 A 
ATOM     31  C   UNL     1       3.199  -0.643  -0.567  0.00  0.00    +0.005 A 
ATOM     32  C   UNL     1       2.508  -0.405   0.605  0.00  0.00    -0.026 A 
ATOM     33  C   UNL     1       2.923   0.606   1.461  0.00  0.00    +0.040 A 
BRANCH  28  35
ATOM     34  C   UNL     1       5.260   1.879   3.227  0.00  0.00    +0.009 C 
ATOM     35  C   UNL     1       4.481   2.481   2.057  0.00  0.00    +0.033 C 
ENDBRANCH  28  35
BRANCH  32  36
ATOM     36  C   UNL     1       1.304  -1.242   0.953  0.00  0.00    +0.033 C 
ATOM     37  C   UNL     1       0.662  -1.772  -0.331  0.00  0.00    +0.009 C 
ENDBRANCH  32  36
ENDBRANCH  24  33
ENDBRANCH  23  25
ENDBRANCH  22  23
ENDBRANCH   1  22
TORSDOF 9
