REMARK  Name = ZINC58911544
REMARK  8 active torsions:
REMARK  status: ('A' for Active; 'I' for Inactive)
REMARK    1  A    between atoms: C_1  and  C_2
REMARK    2  A    between atoms: C_4  and  C_18
REMARK    3  A    between atoms: C_5  and  C_17
REMARK    4  A    between atoms: N_6  and  C_7
REMARK    5  A    between atoms: C_12  and  C_13
REMARK    6  A    between atoms: N_19  and  N_20
REMARK    7  A    between atoms: C_21  and  C_23
REMARK    8  A    between atoms: N_25  and  C_26
REMARK                            x       y       z     vdW  Elec       q    Type
REMARK                         _______ _______ _______ _____ _____    ______ ____
ROOT
ATOM      1  C   UNL     1      -0.018   1.503   0.010  0.00  0.00    +0.064 C 
ATOM      2  C   UNL     1       0.002  -0.004   0.002  0.00  0.00    +0.022 A 
ATOM      3  C   UNL     1       0.008  -0.780  -1.097  0.00  0.00    +0.032 A 
ATOM      4  C   UNL     1       0.029  -2.170  -0.628  0.00  0.00    +0.016 A 
ATOM      5  C   UNL     1       0.034  -2.112   0.738  0.00  0.00    +0.030 A 
ATOM      6  N   UNL     1       0.024  -0.804   1.109  0.00  0.00    -0.317 N 
ATOM      7  C   UNL     1       0.053  -3.295   1.671  0.00  0.00    +0.064 C 
ENDROOT
BRANCH   6   8
ATOM      8  C   UNL     1       0.030  -0.344   2.433  0.00  0.00    +0.058 A 
ATOM      9  C   UNL     1      -1.169  -0.139   3.103  0.00  0.00    +0.027 A 
ATOM     10  C   UNL     1      -1.159   0.315   4.408  0.00  0.00    +0.002 A 
ATOM     11  C   UNL     1       0.042   0.563   5.046  0.00  0.00    +0.001 A 
ATOM     12  C   UNL     1       1.237   0.359   4.381  0.00  0.00    +0.014 A 
ATOM     13  C   UNL     1       1.234  -0.100   3.078  0.00  0.00    +0.079 A 
BRANCH  13  14
ATOM     14  C   UNL     1       2.537  -0.328   2.356  0.00  0.00    +0.419 C 
ATOM     15  F   UNL     1       3.603  -0.014   3.207  0.00  0.00    -0.166 F 
ATOM     16  F   UNL     1       2.627  -1.670   1.971  0.00  0.00    -0.166 F 
ATOM     17  F   UNL     1       2.590   0.487   1.221  0.00  0.00    -0.166 F 
ENDBRANCH  13  14
ENDBRANCH   6   8
BRANCH   4  18
ATOM     18  C   UNL     1       0.041  -3.384  -1.462  0.00  0.00    +0.140 C 
ATOM     19  N   UNL     1       0.059  -4.556  -0.902  0.00  0.00    -0.187 NA
BRANCH  19  20
ATOM     20  N   UNL     1       0.071  -5.711  -1.695  0.00  0.00    -0.199 N 
ATOM     21  C   UNL     1       0.089  -6.927  -1.114  0.00  0.00    +0.318 C 
ATOM     22  O   UNL     1       0.096  -7.022   0.097  0.00  0.00    -0.263 OA
ATOM     23  H   UNL     1       0.066  -5.636  -2.662  0.00  0.00    +0.178 HD
BRANCH  21  24
ATOM     24  C   UNL     1       0.102  -8.157  -1.958  0.00  0.00    +0.301 C 
ATOM     25  O   UNL     1       0.095  -8.062  -3.168  0.00  0.00    -0.265 OA
ATOM     26  N   UNL     1       0.120  -9.373  -1.377  0.00  0.00    -0.305 N 
ATOM     27  H   UNL     1       0.125  -9.448  -0.410  0.00  0.00    +0.149 HD
BRANCH  26  28
ATOM     28  C   UNL     1       0.133 -10.580  -2.207  0.00  0.00    +0.073 C 
ATOM     29  C   UNL     1      -1.312 -11.004  -2.545  0.00  0.00    +0.022 C 
ATOM     30  C   UNL     1      -1.272 -12.552  -2.507  0.00  0.00    +0.002 C 
ATOM     31  C   UNL     1      -0.321 -12.841  -1.319  0.00  0.00    +0.002 C 
ATOM     32  C   UNL     1       0.762 -11.748  -1.428  0.00  0.00    +0.022 C 
ENDBRANCH  26  28
ENDBRANCH  21  24
ENDBRANCH  19  20
ENDBRANCH   4  18
TORSDOF 6
