REMARK  Name = ZINC02296900
REMARK  6 active torsions:
REMARK  status: ('A' for Active; 'I' for Inactive)
REMARK    1  A    between atoms: C_1  and  C_2
REMARK    2  A    between atoms: C_5  and  N_8
REMARK    3  A    between atoms: C_9  and  C_11
REMARK    4  A    between atoms: N_22  and  C_25
REMARK    5  A    between atoms: C_23  and  N_24
REMARK    6  A    between atoms: C_25  and  C_26
REMARK                            x       y       z     vdW  Elec       q    Type
REMARK                         _______ _______ _______ _____ _____    ______ ____
ROOT
ATOM      1  C   UNL     1       1.676  -2.164  -0.038  0.00  0.00    +0.104 A 
ATOM      2  C   UNL     1       1.279  -0.756  -0.207  0.00  0.00    +0.122 A 
ATOM      3  C   UNL     1       2.529   0.008  -0.153  0.00  0.00    +0.162 A 
ATOM      4  N   UNL     1       2.492   1.317  -0.277  0.00  0.00    -0.226 NA
ATOM      5  C   UNL     1       1.319   1.938  -0.451  0.00  0.00    +0.092 A 
ATOM      6  C   UNL     1       1.271   3.338  -0.585  0.00  0.00    +0.030 A 
ATOM      7  C   UNL     1       0.074   3.961  -0.761  0.00  0.00    +0.002 A 
ATOM      8  C   UNL     1      -1.113   3.232  -0.812  0.00  0.00    +0.002 A 
ATOM      9  C   UNL     1      -1.107   1.878  -0.682  0.00  0.00    +0.030 A 
ATOM     10  C   UNL     1       0.112   1.197  -0.503  0.00  0.00    +0.090 A 
ATOM     11  N   UNL     1       0.130  -0.135  -0.379  0.00  0.00    -0.241 NA
ATOM     12  N   UNL     1       3.550  -0.902   0.032  0.00  0.00    -0.305 N 
ATOM     13  C   UNL     1       3.060  -2.169   0.100  0.00  0.00    +0.113 A 
ENDROOT
BRANCH   1  15
ATOM     14  N   UNL     1       0.293  -3.721   1.146  0.00  0.00    -0.281 N 
ATOM     15  C   UNL     1       0.817  -3.292  -0.019  0.00  0.00    +0.254 C 
ATOM     16  O   UNL     1       0.551  -3.872  -1.056  0.00  0.00    -0.270 OA
ATOM     17  H   UNL     1       0.564  -3.307   1.981  0.00  0.00    +0.155 HD
BRANCH  14  22
ATOM     18  C   UNL     1      -3.492  -7.946   1.172  0.00  0.00    +0.044 C 
ATOM     19  C   UNL     1      -2.487  -6.823   1.165  0.00  0.00    -0.050 A 
ATOM     20  C   UNL     1      -1.602  -6.683   2.219  0.00  0.00    +0.005 A 
ATOM     21  C   UNL     1      -0.679  -5.655   2.216  0.00  0.00    +0.023 A 
ATOM     22  C   UNL     1      -0.640  -4.763   1.153  0.00  0.00    +0.034 A 
ATOM     23  C   UNL     1      -1.533  -4.903   0.098  0.00  0.00    +0.023 A 
ATOM     24  C   UNL     1      -2.450  -5.936   0.105  0.00  0.00    +0.005 A 
ENDBRANCH  14  22
ENDBRANCH   1  15
BRANCH  13  25
ATOM     25  N   UNL     1       3.823  -3.294   0.279  0.00  0.00    -0.344 N 
ATOM     26  H   UNL     1       4.786  -3.217   0.368  0.00  0.00    +0.144 HD
ATOM     27  H   UNL     1       3.400  -4.166   0.317  0.00  0.00    +0.144 HD
ENDBRANCH  13  25
BRANCH  12  28
ATOM     28  C   UNL     1       4.968  -0.550   0.139  0.00  0.00    +0.199 C 
BRANCH  28  29
ATOM     29  C   UNL     1       5.315  -0.300   1.584  0.00  0.00    +0.125 A 
ATOM     30  C   UNL     1       5.743  -1.224   2.462  0.00  0.00    +0.046 A 
ATOM     31  C   UNL     1       5.950  -0.557   3.692  0.00  0.00    +0.041 A 
ATOM     32  C   UNL     1       5.628   0.734   3.494  0.00  0.00    +0.195 A 
ATOM     33  O   UNL     1       5.244   0.884   2.215  0.00  0.00    -0.466 OA
ENDBRANCH  28  29
ENDBRANCH  12  28
TORSDOF 5
