REMARK  Name = ZINC00758890
REMARK  6 active torsions:
REMARK  status: ('A' for Active; 'I' for Inactive)
REMARK    1  A    between atoms: C_4  and  C_7
REMARK    2  A    between atoms: C_7  and  C_9
REMARK    3  A    between atoms: C_7  and  N_23
REMARK    4  A    between atoms: C_9  and  C_10
REMARK    5  A    between atoms: C_10  and  C_11
REMARK    6  A    between atoms: C_10  and  C_17
REMARK                            x       y       z     vdW  Elec       q    Type
REMARK                         _______ _______ _______ _____ _____    ______ ____
ROOT
ATOM      1  C   UNL     1       3.364  -1.328  -0.301  0.00  0.00    +0.106 C 
ENDROOT
BRANCH   1   2
ATOM      2  N   UNL     1       3.408  -2.396   0.701  0.00  0.00    -0.293 N 
ATOM      3  C   UNL     1       3.231  -2.104   2.005  0.00  0.00    +0.298 C 
ATOM      4  O   UNL     1       2.947  -0.971   2.341  0.00  0.00    -0.253 OA
ATOM      5  N   UNL     1       3.370  -3.069   2.936  0.00  0.00    -0.313 N 
ATOM      6  H   UNL     1       3.564  -3.313   0.426  0.00  0.00    +0.151 HD
ATOM      7  H   UNL     1       3.597  -3.973   2.667  0.00  0.00    +0.146 HD
ATOM      8  H   UNL     1       3.243  -2.859   3.874  0.00  0.00    +0.146 HD
ENDBRANCH   1   2
BRANCH   1  12
ATOM      9  C   UNL     1      -0.665  -0.770  -1.609  0.00  0.00    +0.000 A 
ATOM     10  C   UNL     1      -0.142  -2.046  -1.505  0.00  0.00    +0.000 A 
ATOM     11  C   UNL     1       1.161  -2.227  -1.082  0.00  0.00    +0.005 A 
ATOM     12  C   UNL     1       1.943  -1.131  -0.763  0.00  0.00    -0.027 A 
ATOM     13  C   UNL     1       1.420   0.144  -0.868  0.00  0.00    +0.005 A 
ATOM     14  C   UNL     1       0.116   0.325  -1.289  0.00  0.00    +0.000 A 
ENDBRANCH   1  12
BRANCH   1  15
ATOM     15  C   UNL     1       4.239  -1.713  -1.496  0.00  0.00    +0.040 C 
BRANCH  15  16
ATOM     16  C   UNL     1       5.701  -1.791  -1.051  0.00  0.00    +0.051 C 
BRANCH  16  17
ATOM     17  C   UNL     1       6.548  -2.288  -2.195  0.00  0.00    -0.040 A 
ATOM     18  C   UNL     1       7.383  -3.375  -2.015  0.00  0.00    +0.004 A 
ATOM     19  C   UNL     1       8.159  -3.831  -3.064  0.00  0.00    +0.000 A 
ATOM     20  C   UNL     1       8.100  -3.201  -4.293  0.00  0.00    +0.000 A 
ATOM     21  C   UNL     1       7.265  -2.115  -4.473  0.00  0.00    +0.000 A 
ATOM     22  C   UNL     1       6.485  -1.661  -3.425  0.00  0.00    +0.004 A 
ENDBRANCH  16  17
BRANCH  16  23
ATOM     23  C   UNL     1       6.174  -0.422  -0.635  0.00  0.00    -0.040 A 
ATOM     24  C   UNL     1       6.001   0.656  -1.483  0.00  0.00    +0.004 A 
ATOM     25  C   UNL     1       6.434   1.912  -1.101  0.00  0.00    +0.000 A 
ATOM     26  C   UNL     1       7.040   2.090   0.129  0.00  0.00    +0.000 A 
ATOM     27  C   UNL     1       7.212   1.012   0.977  0.00  0.00    +0.000 A 
ATOM     28  C   UNL     1       6.774  -0.243   0.597  0.00  0.00    +0.004 A 
ENDBRANCH  16  23
ENDBRANCH  15  16
ENDBRANCH   1  15
TORSDOF 6
