REMARK  Name = ZINC19512746
REMARK  6 active torsions:
REMARK  status: ('A' for Active; 'I' for Inactive)
REMARK    1  A    between atoms: C_1  and  C_2
REMARK    2  A    between atoms: C_3  and  C_17
REMARK    3  A    between atoms: C_7  and  N_16
REMARK    4  A    between atoms: C_9  and  C_11
REMARK    5  A    between atoms: C_11  and  C_12
REMARK    6  A    between atoms: C_12  and  C_13
REMARK                            x       y       z     vdW  Elec       q    Type
REMARK                         _______ _______ _______ _____ _____    ______ ____
ROOT
ATOM      1  C   UNL     1       1.638  -1.089   7.103  0.00  0.00    +0.045 C 
ATOM      2  C   UNL     1       1.885   0.163   6.302  0.00  0.00    -0.028 A 
ATOM      3  C   UNL     1       2.830   1.036   6.681  0.00  0.00    -0.008 A 
ATOM      4  S   UNL     1       2.737   2.315   5.442  0.00  0.00    -0.074 S 
ATOM      5  C   UNL     1       1.430   1.643   4.449  0.00  0.00    +0.114 A 
ATOM      6  C   UNL     1       1.102   0.439   5.110  0.00  0.00    +0.050 A 
ATOM      7  C   UNL     1       0.058  -0.319   4.511  0.00  0.00    +0.128 A 
ATOM      8  N   UNL     1      -0.523   0.137   3.414  0.00  0.00    -0.217 NA
ATOM      9  C   UNL     1      -0.160   1.273   2.846  0.00  0.00    +0.133 A 
ATOM     10  N   UNL     1       0.801   2.021   3.354  0.00  0.00    -0.225 NA
ATOM     11  C   UNL     1       3.752   0.954   7.870  0.00  0.00    +0.052 C 
ENDROOT
BRANCH   7  12
ATOM     12  N   UNL     1      -0.347  -1.517   5.072  0.00  0.00    -0.343 N 
ATOM     13  H   UNL     1      -1.155  -2.098   4.604  0.00  0.00    +0.144 HD
ATOM     14  H   UNL     1       0.138  -1.888   5.987  0.00  0.00    +0.144 HD
ENDBRANCH   7  12
BRANCH   9  15
ATOM     15  C   UNL     1      -0.863   1.729   1.593  0.00  0.00    +0.087 C 
BRANCH  15  16
ATOM     16  C   UNL     1      -0.130   1.179   0.368  0.00  0.00    +0.133 C 
BRANCH  16  17
ATOM     17  C   UNL     1      -0.833   1.635  -0.884  0.00  0.00    +0.356 C 
ATOM     18  O   UNL     1      -1.819   2.328  -0.805  0.00  0.00    -0.246 OA
ATOM     19  O   UNL     1      -0.363   1.270  -2.088  0.00  0.00    -0.246 OA
ENDBRANCH  16  17
ENDBRANCH  15  16
ENDBRANCH   9  15
TORSDOF 4
