REMARK  Name = ZINC39671501
REMARK  7 active torsions:
REMARK  status: ('A' for Active; 'I' for Inactive)
REMARK    1  A    between atoms: C_1  and  S_2
REMARK    2  A    between atoms: S_2  and  C_3
REMARK    3  A    between atoms: C_3  and  C_4
REMARK    4  A    between atoms: C_4  and  C_5
REMARK    5  A    between atoms: C_9  and  C_18
REMARK    6  A    between atoms: N_20  and  C_21
REMARK    7  A    between atoms: C_21  and  C_22
REMARK                            x       y       z     vdW  Elec       q    Type
REMARK                         _______ _______ _______ _____ _____    ______ ____
ROOT
ATOM      1  C   UNL     1       1.647  -2.356  -2.638  0.00  0.00    +0.216 C 
ATOM      2  O   UNL     1       2.042  -1.409  -3.285  0.00  0.00    -0.276 OA
ATOM      3  N   UNL     1       1.863  -3.611  -3.079  0.00  0.00    -0.300 N 
ATOM      4  C   UNL     1       1.454  -4.882  -2.437  0.00  0.00    +0.121 C 
ATOM      5  C   UNL     1       1.009  -5.786  -3.608  0.00  0.00    +0.100 C 
ATOM      6  C   UNL     1       1.743  -5.224  -4.838  0.00  0.00    -0.004 C 
ATOM      7  C   UNL     1       2.559  -4.031  -4.318  0.00  0.00    +0.115 C 
ATOM      8  C   UNL     1       0.737  -4.751  -5.883  0.00  0.00    -0.010 C 
ATOM      9  C   UNL     1       1.489  -4.249  -7.119  0.00  0.00    -0.082 C 
ATOM     10  N   UNL     1       2.318  -5.332  -7.662  0.00  0.00    +0.379 N 
ATOM     11  C   UNL     1       3.343  -5.718  -6.684  0.00  0.00    -0.082 C 
ATOM     12  C   UNL     1       2.669  -6.281  -5.430  0.00  0.00    -0.010 C 
ATOM     13  H   UNL     1       1.735  -6.130  -7.868  0.00  0.00    -0.086 HD
ATOM     14  H   UNL     1       2.765  -5.018  -8.510  0.00  0.00    -0.086 HD
ENDROOT
BRANCH   5  15
ATOM     15  C   UNL     1      -0.483  -5.700  -3.800  0.00  0.00    +0.219 C 
ATOM     16  O   UNL     1      -1.073  -4.678  -3.519  0.00  0.00    -0.275 OA
ATOM     17  N   UNL     1      -1.163  -6.758  -4.284  0.00  0.00    -0.309 N 
ATOM     18  H   UNL     1      -0.691  -7.576  -4.509  0.00  0.00    +0.149 HD
BRANCH  17  19
ATOM     19  C   UNL     1      -2.613  -6.675  -4.471  0.00  0.00    +0.157 C 
BRANCH  19  20
ATOM     20  C   UNL     1      -3.125  -7.982  -5.020  0.00  0.00    +0.034 A 
ATOM     21  H   UNL     1      -2.843  -7.756  -7.071  0.00  0.00    +0.166 HD
ATOM     22  C   UNL     1      -3.628  -8.983  -4.281  0.00  0.00    +0.032 A 
ATOM     23  C   UNL     1      -4.002 -10.054  -5.209  0.00  0.00    -0.000 A 
ATOM     24  C   UNL     1      -4.565 -11.321  -5.052  0.00  0.00    +0.010 A 
ATOM     25  C   UNL     1      -4.797 -12.101  -6.150  0.00  0.00    +0.001 A 
ATOM     26  C   UNL     1      -4.478 -11.643  -7.420  0.00  0.00    +0.002 A 
ATOM     27  C   UNL     1      -3.922 -10.395  -7.598  0.00  0.00    +0.026 A 
ATOM     28  C   UNL     1      -3.676  -9.585  -6.495  0.00  0.00    +0.047 A 
ATOM     29  N   UNL     1      -3.151  -8.321  -6.345  0.00  0.00    -0.357 N 
ENDBRANCH  19  20
ENDBRANCH  17  19
ENDBRANCH   5  15
BRANCH   1  30
ATOM     30  C   UNL     1       0.913  -2.128  -1.341  0.00  0.00    +0.106 C 
BRANCH  30  31
ATOM     31  C   UNL     1       0.803  -0.626  -1.074  0.00  0.00    +0.078 C 
BRANCH  31  33
ATOM     32  C   UNL     1      -0.126   1.453   0.654  0.00  0.00    +0.084 C 
ATOM     33  S   UNL     1      -0.080  -0.352   0.487  0.00  0.00    -0.164 S 
ENDBRANCH  31  33
ENDBRANCH  30  31
ENDBRANCH   1  30
TORSDOF 6
