REMARK  Name = ZINC23444267
REMARK  9 active torsions:
REMARK  status: ('A' for Active; 'I' for Inactive)
REMARK    1  A    between atoms: C_1  and  N_2
REMARK    2  A    between atoms: N_2  and  C_3
REMARK    3  A    between atoms: C_3  and  C_4
REMARK    4  A    between atoms: C_4  and  O_5
REMARK    5  A    between atoms: C_7  and  C_30
REMARK    6  A    between atoms: C_14  and  N_16
REMARK    7  A    between atoms: N_18  and  C_22
REMARK    8  A    between atoms: C_22  and  C_23
REMARK    9  A    between atoms: C_23  and  C_24
REMARK                            x       y       z     vdW  Elec       q    Type
REMARK                         _______ _______ _______ _____ _____    ______ ____
ROOT
ATOM      1  C   UNL     1     -11.113   3.682   2.661  0.00  0.00    +0.131 C 
ATOM      2  N   UNL     1     -10.401   3.888   1.393  0.00  0.00    -0.315 N 
ATOM      3  C   UNL     1      -9.271   3.095   1.325  0.00  0.00    +0.141 A 
ATOM      4  C   UNL     1      -8.013   3.700   1.173  0.00  0.00    +0.100 A 
ATOM      5  C   UNL     1      -6.843   2.825   1.107  0.00  0.00    +0.016 A 
ATOM      6  C   UNL     1      -5.543   3.294   0.958  0.00  0.00    +0.011 A 
ATOM      7  C   UNL     1      -4.490   2.397   0.905  0.00  0.00    +0.134 A 
ATOM      8  N   UNL     1      -4.725   1.082   0.995  0.00  0.00    -0.216 NA
ATOM      9  C   UNL     1      -5.935   0.575   1.137  0.00  0.00    +0.129 A 
ATOM     10  C   UNL     1      -7.055   1.423   1.200  0.00  0.00    +0.063 A 
ATOM     11  C   UNL     1      -8.370   0.944   1.351  0.00  0.00    +0.129 A 
ATOM     12  N   UNL     1      -9.394   1.777   1.406  0.00  0.00    -0.216 NA
ATOM     13  N   UNL     1      -6.102  -0.794   1.224  0.00  0.00    -0.343 N 
ATOM     14  N   UNL     1      -3.288   3.080   0.755  0.00  0.00    -0.255 N 
ATOM     15  C   UNL     1      -3.455   4.412   0.707  0.00  0.00    +0.225 C 
ATOM     16  O   UNL     1      -2.583   5.245   0.587  0.00  0.00    -0.275 OA
ATOM     17  C   UNL     1      -4.942   4.673   0.829  0.00  0.00    +0.135 C 
ATOM     18  H   UNL     1      -7.109  -1.219   1.343  0.00  0.00    +0.144 HD
ATOM     19  H   UNL     1      -5.227  -1.459   1.176  0.00  0.00    +0.144 HD
ENDROOT
BRANCH  11  20
ATOM     20  N   UNL     1      -8.591  -0.414   1.443  0.00  0.00    -0.343 N 
ATOM     21  H   UNL     1      -9.616  -0.797   1.561  0.00  0.00    +0.144 HD
ATOM     22  H   UNL     1      -7.744  -1.114   1.398  0.00  0.00    +0.144 HD
ENDBRANCH  11  20
BRANCH   4  23
ATOM     23  C   UNL     1      -7.880   5.123   1.087  0.00  0.00    +0.103 C 
ATOM     24  N   UNL     1      -7.774   6.252   1.018  0.00  0.00    -0.191 NA
ENDBRANCH   4  23
BRANCH   2  25
ATOM     25  C   UNL     1     -11.286   3.641   0.246  0.00  0.00    +0.134 C 
BRANCH  25  26
ATOM     26  C   UNL     1     -12.391   4.699   0.218  0.00  0.00    +0.174 C 
BRANCH  26  27
ATOM     27  O   UNL     1     -11.814   5.984  -0.019  0.00  0.00    -0.393 OA
ATOM     28  H   UNL     1     -12.458   6.874  -0.072  0.00  0.00    +0.209 HD
ENDBRANCH  26  27
ENDBRANCH  25  26
ENDBRANCH   2  25
BRANCH  14  29
ATOM     29  C   UNL     1      -1.983   2.420   0.665  0.00  0.00    +0.119 C 
BRANCH  29  30
ATOM     30  C   UNL     1      -1.665   2.116  -0.801  0.00  0.00    +0.050 C 
BRANCH  30  31
ATOM     31  C   UNL     1      -0.323   1.437  -0.893  0.00  0.00    -0.072 C 
ATOM     32  C   UNL     1      -0.298   0.144  -0.929  0.00  0.00    -0.028 C 
ATOM     33  C   UNL     1       0.960  -0.671  -1.016  0.00  0.00    +0.027 C 
ATOM     34  C   UNL     1       2.125   0.206  -1.478  0.00  0.00    +0.004 C 
ATOM     35  C   UNL     1       2.147   1.476  -0.618  0.00  0.00    +0.005 C 
ATOM     36  C   UNL     1       0.902   2.304  -0.945  0.00  0.00    +0.030 C 
ENDBRANCH  30  31
ENDBRANCH  29  30
ENDBRANCH  14  29
TORSDOF 8
