REMARK  Name = ZINC00137465
REMARK  7 active torsions:
REMARK  status: ('A' for Active; 'I' for Inactive)
REMARK    1  A    between atoms: C_9  and  N_11
REMARK    2  A    between atoms: N_11  and  C_12
REMARK    3  A    between atoms: C_12  and  N_14
REMARK    4  A    between atoms: N_14  and  N_15
REMARK    5  A    between atoms: N_15  and  C_16
REMARK    6  A    between atoms: C_16  and  N_18
REMARK    7  A    between atoms: N_18  and  C_19
REMARK                            x       y       z     vdW  Elec       q    Type
REMARK                         _______ _______ _______ _____ _____    ______ ____
ROOT
ATOM      1  N   UNL     1       0.991   7.534   1.983  0.00  0.00    -0.247 N 
ATOM      2  H   UNL     1       0.945   7.171   1.085  0.00  0.00    +0.172 HD
ENDROOT
BRANCH   1   3
ATOM      3  C   UNL     1       1.321   8.828   2.170  0.00  0.00    +0.147 C 
ATOM      4  S   UNL     1       1.659   9.829   0.823  0.00  0.00    -0.017 S 
BRANCH   3   5
ATOM      5  N   UNL     1       1.385   9.333   3.418  0.00  0.00    -0.322 N 
ATOM      6  H   UNL     1       1.194   8.765   4.181  0.00  0.00    +0.148 HD
BRANCH   5  13
ATOM      7  C   UNL     1       3.010  12.934   5.051  0.00  0.00    +0.004 C 
ATOM      8  C   UNL     1       1.474  12.773   4.988  0.00  0.00    +0.005 C 
ATOM      9  C   UNL     1       1.238  11.232   5.012  0.00  0.00    +0.010 C 
ATOM     10  C   UNL     1       2.422  10.771   5.932  0.00  0.00    +0.009 C 
ATOM     11  C   UNL     1       3.557  11.475   5.107  0.00  0.00    -0.009 C 
ATOM     12  C   UNL     1       3.280  10.899   3.685  0.00  0.00    +0.026 C 
ATOM     13  C   UNL     1       1.744  10.738   3.622  0.00  0.00    +0.075 C 
ENDBRANCH   5  13
ENDBRANCH   3   5
ENDBRANCH   1   3
BRANCH   1  14
ATOM     14  N   UNL     1       0.715   6.715   3.085  0.00  0.00    -0.247 N 
ATOM     15  H   UNL     1       0.761   7.078   3.983  0.00  0.00    +0.172 HD
BRANCH  14  16
ATOM     16  C   UNL     1       0.385   5.422   2.897  0.00  0.00    +0.147 C 
ATOM     17  S   UNL     1       0.047   4.420   4.245  0.00  0.00    -0.017 S 
BRANCH  16  18
ATOM     18  N   UNL     1       0.321   4.917   1.650  0.00  0.00    -0.322 N 
ATOM     19  H   UNL     1       0.512   5.484   0.886  0.00  0.00    +0.148 HD
BRANCH  18  20
ATOM     20  C   UNL     1      -0.038   3.511   1.446  0.00  0.00    +0.079 C 
ATOM     21  C   UNL     1       1.230   2.623   1.429  0.00  0.00    +0.030 C 
ATOM     22  C   UNL     1       1.219   1.990   0.001  0.00  0.00    +0.014 C 
ATOM     23  C   UNL     1       0.655   3.193  -0.839  0.00  0.00    +0.017 C 
ATOM     24  C   UNL     1      -0.654   3.302   0.026  0.00  0.00    +0.032 C 
ATOM     25  C   UNL     1      -1.092   1.832   0.017  0.00  0.00    -0.026 C 
ATOM     26  C   UNL     1      -0.013   1.076   0.008  0.00  0.00    -0.027 C 
ENDBRANCH  18  20
ENDBRANCH  16  18
ENDBRANCH  14  16
ENDBRANCH   1  14
TORSDOF 7
