REMARK  Name = ZINC35253783
REMARK  14 active torsions:
REMARK  status: ('A' for Active; 'I' for Inactive)
REMARK    1  A    between atoms: C_1  and  C_2
REMARK    2  A    between atoms: C_2  and  N_3
REMARK    3  A    between atoms: N_3  and  C_4
REMARK    4  A    between atoms: N_3  and  C_6
REMARK    5  A    between atoms: C_4  and  C_5
REMARK    6  A    between atoms: C_6  and  C_7
REMARK    7  A    between atoms: C_7  and  C_8
REMARK    8  A    between atoms: C_8  and  C_9
REMARK    9  A    between atoms: C_9  and  C_11
REMARK   10  A    between atoms: C_9  and  N_12
REMARK   11  A    between atoms: C_13  and  C_15
REMARK   12  A    between atoms: C_15  and  C_16
REMARK   13  A    between atoms: C_16  and  C_18
REMARK   14  A    between atoms: C_16  and  C_27
REMARK                            x       y       z     vdW  Elec       q    Type
REMARK                         _______ _______ _______ _____ _____    ______ ____
ROOT
ATOM      1  C   UNL     1       2.853  -3.194  -8.582  0.00  0.00    +0.076 C 
ENDROOT
BRANCH   1   2
ATOM      2  C   UNL     1       2.293  -2.530  -9.813  0.00  0.00    +0.051 A 
ATOM      3  C   UNL     1       1.028  -2.636 -10.277  0.00  0.00    +0.135 A 
ATOM      4  N   UNL     1       0.918  -1.903 -11.387  0.00  0.00    -0.236 NA
ATOM      5  C   UNL     1       2.084  -1.327 -11.646  0.00  0.00    +0.138 A 
ATOM      6  N   UNL     1       2.968  -1.700 -10.668  0.00  0.00    -0.302 N 
ATOM      7  C   UNL     1       4.254  -1.243 -10.686  0.00  0.00    +0.113 A 
ATOM      8  C   UNL     1       4.675  -0.414 -11.666  0.00  0.00    +0.058 A 
ATOM      9  C   UNL     1       3.790  -0.011 -12.681  0.00  0.00    +0.025 A 
ATOM     10  C   UNL     1       2.508  -0.466 -12.678  0.00  0.00    +0.048 A 
ATOM     11 CL   UNL     1       6.314   0.156 -11.671  0.00  0.00    -0.082 Cl
ENDBRANCH   1   2
BRANCH   1  12
ATOM     12  C   UNL     1       3.317  -4.585  -8.929  0.00  0.00    -0.034 A 
ATOM     13  C   UNL     1       2.417  -5.506  -9.433  0.00  0.00    +0.008 A 
ATOM     14  C   UNL     1       2.838  -6.784  -9.753  0.00  0.00    +0.050 A 
ATOM     15  C   UNL     1       4.163  -7.144  -9.569  0.00  0.00    +0.166 A 
ATOM     16  C   UNL     1       5.069  -6.216  -9.062  0.00  0.00    +0.167 A 
ATOM     17  C   UNL     1       4.642  -4.936  -8.749  0.00  0.00    +0.053 A 
ATOM     18  O   UNL     1       6.296  -6.807  -8.976  0.00  0.00    -0.453 OA
ATOM     19  C   UNL     1       6.047  -8.223  -9.049  0.00  0.00    +0.466 C 
ATOM     20  O   UNL     1       4.822  -8.316  -9.801  0.00  0.00    -0.453 OA
ENDBRANCH   1  12
BRANCH   1  21
ATOM     21  C   UNL     1       1.769  -3.271  -7.506  0.00  0.00    +0.110 C 
BRANCH  21  23
ATOM     22  N   UNL     1       1.586  -3.981  -5.144  0.00  0.00    -0.313 N 
ATOM     23  C   UNL     1       2.361  -3.823  -6.235  0.00  0.00    +0.214 C 
ATOM     24  O   UNL     1       3.535  -4.124  -6.194  0.00  0.00    -0.276 OA
ATOM     25  H   UNL     1       0.647  -3.740  -5.176  0.00  0.00    +0.149 HD
BRANCH  22  26
ATOM     26  C   UNL     1       2.162  -4.517  -3.908  0.00  0.00    +0.070 C 
ATOM     27  C   UNL     1       2.147  -6.046  -3.960  0.00  0.00    +0.028 C 
BRANCH  26  28
ATOM     28  C   UNL     1       1.336  -4.039  -2.711  0.00  0.00    +0.020 C 
BRANCH  28  29
ATOM     29  C   UNL     1       1.453  -2.519  -2.586  0.00  0.00    -0.017 C 
BRANCH  29  30
ATOM     30  C   UNL     1       0.628  -2.041  -1.389  0.00  0.00    -0.079 C 
BRANCH  30  31
ATOM     31  N   UNL     1       0.827  -0.598  -1.203  0.00  0.00    +0.379 N 
ATOM     32  H   UNL     1       1.813  -0.402  -1.119  0.00  0.00    -0.082 HD
BRANCH  31  34
ATOM     33  C   UNL     1       0.597   1.616  -2.224  0.00  0.00    -0.017 C 
ATOM     34  C   UNL     1       0.280   0.126  -2.359  0.00  0.00    -0.082 C 
ENDBRANCH  31  34
BRANCH  31  35
ATOM     35  C   UNL     1       0.136  -0.162   0.018  0.00  0.00    -0.082 C 
ATOM     36  C   UNL     1       0.810  -0.793   1.238  0.00  0.00    -0.017 C 
ENDBRANCH  31  35
ENDBRANCH  30  31
ENDBRANCH  29  30
ENDBRANCH  28  29
ENDBRANCH  26  28
ENDBRANCH  22  26
ENDBRANCH  21  23
ENDBRANCH   1  21
TORSDOF 11
