REMARK  Name = ZINC00886290
REMARK  12 active torsions:
REMARK  status: ('A' for Active; 'I' for Inactive)
REMARK    1  A    between atoms: C_1  and  C_2
REMARK    2  A    between atoms: C_5  and  C_7
REMARK    3  A    between atoms: N_10  and  C_12
REMARK    4  A    between atoms: C_12  and  C_13
REMARK    5  A    between atoms: N_15  and  C_16
REMARK    6  A    between atoms: N_15  and  C_25
REMARK    7  A    between atoms: C_16  and  C_17
REMARK    8  A    between atoms: C_20  and  O_23
REMARK    9  A    between atoms: O_23  and  C_24
REMARK   10  A    between atoms: C_25  and  C_27
REMARK   11  A    between atoms: C_25  and  C_32
REMARK   12  A    between atoms: N_34  and  C_35
REMARK                            x       y       z     vdW  Elec       q    Type
REMARK                         _______ _______ _______ _____ _____    ______ ____
ROOT
ATOM      1  C   UNL     1       6.399  -3.655  -0.298  0.00  0.00    +0.240 C 
ATOM      2  O   UNL     1       6.319  -2.460  -0.494  0.00  0.00    -0.273 OA
ATOM      3  N   UNL     1       6.908  -4.461  -1.251  0.00  0.00    -0.280 N 
ENDROOT
BRANCH   1   4
ATOM      4  C   UNL     1       5.929  -4.237   1.009  0.00  0.00    +0.264 C 
BRANCH   4   8
ATOM      5  C   UNL     1       5.663  -1.651   3.398  0.00  0.00    +0.239 A 
ATOM      6  N   UNL     1       4.411  -1.704   2.916  0.00  0.00    -0.105 NA
ATOM      7  N   UNL     1       4.385  -2.630   2.019  0.00  0.00    -0.045 NA
ATOM      8  N   UNL     1       5.558  -3.152   1.922  0.00  0.00    -0.154 N 
ATOM      9  N   UNL     1       6.356  -2.568   2.748  0.00  0.00    -0.127 NA
BRANCH   5  14
ATOM     10  C   UNL     1       8.772   0.608   6.627  0.00  0.00    +0.086 C 
ATOM     11  C   UNL     1       7.525   0.251   5.861  0.00  0.00    +0.103 A 
ATOM     12  C   UNL     1       6.318   0.831   6.011  0.00  0.00    +0.045 A 
ATOM     13  C   UNL     1       5.441   0.200   5.106  0.00  0.00    +0.053 A 
ATOM     14  C   UNL     1       6.169  -0.740   4.447  0.00  0.00    +0.175 A 
ATOM     15  O   UNL     1       7.433  -0.693   4.911  0.00  0.00    -0.457 OA
ENDBRANCH   5  14
ENDBRANCH   4   8
ENDBRANCH   1   4
BRANCH   3  16
ATOM     16  C   UNL     1       7.468  -3.885  -2.476  0.00  0.00    +0.144 C 
BRANCH  16  17
ATOM     17  C   UNL     1       8.871  -3.404  -2.209  0.00  0.00    -0.030 A 
ATOM     18  C   UNL     1       9.078  -2.167  -1.627  0.00  0.00    +0.009 A 
ATOM     19  C   UNL     1      10.363  -1.724  -1.382  0.00  0.00    +0.046 A 
ATOM     20  C   UNL     1      11.447  -2.521  -1.721  0.00  0.00    +0.120 A 
ATOM     21  C   UNL     1      11.237  -3.762  -2.305  0.00  0.00    +0.046 A 
ATOM     22  C   UNL     1       9.949  -4.203  -2.543  0.00  0.00    +0.009 A 
BRANCH  20  23
ATOM     23  O   UNL     1      12.712  -2.087  -1.481  0.00  0.00    -0.495 OA
ATOM     24  C   UNL     1      13.779  -2.960  -1.856  0.00  0.00    +0.277 C 
ENDBRANCH  20  23
ENDBRANCH  16  17
ENDBRANCH   3  16
BRANCH   3  25
ATOM     25  C   UNL     1       6.902  -5.914  -1.061  0.00  0.00    +0.199 C 
BRANCH  25  26
ATOM     26  C   UNL     1       5.690  -6.503  -1.736  0.00  0.00    +0.019 A 
ATOM     27  C   UNL     1       4.834  -7.450  -1.278  0.00  0.00    +0.013 A 
ATOM     28  C   UNL     1       3.778  -7.842  -2.079  0.00  0.00    +0.008 A 
ATOM     29  C   UNL     1       3.629  -7.268  -3.298  0.00  0.00    +0.045 A 
ATOM     30  S   UNL     1       5.004  -6.130  -3.341  0.00  0.00    -0.099 S 
ENDBRANCH  25  26
BRANCH  25  31
ATOM     31  C   UNL     1       8.150  -6.505  -1.664  0.00  0.00    +0.239 C 
ATOM     32  O   UNL     1       8.302  -6.500  -2.868  0.00  0.00    -0.273 OA
ATOM     33  N   UNL     1       9.096  -7.038  -0.867  0.00  0.00    -0.311 N 
ATOM     34  H   UNL     1       8.974  -7.042   0.095  0.00  0.00    +0.149 HD
BRANCH  33  35
ATOM     35  C   UNL     1      10.310  -7.613  -1.453  0.00  0.00    +0.073 C 
ATOM     36  C   UNL     1      10.076  -9.097  -1.803  0.00  0.00    +0.022 C 
ATOM     37  C   UNL     1      11.426  -9.782  -1.475  0.00  0.00    +0.002 C 
ATOM     38  C   UNL     1      11.882  -9.042  -0.192  0.00  0.00    +0.002 C 
ATOM     39  C   UNL     1      11.458  -7.577  -0.430  0.00  0.00    +0.022 C 
ENDBRANCH  33  35
ENDBRANCH  25  31
ENDBRANCH   3  25
TORSDOF 10
