REMARK  Name = ZINC08628243
REMARK  11 active torsions:
REMARK  status: ('A' for Active; 'I' for Inactive)
REMARK    1  A    between atoms: C_1  and  C_2
REMARK    2  A    between atoms: C_2  and  C_3
REMARK    3  A    between atoms: C_3  and  C_4
REMARK    4  A    between atoms: C_4  and  N_5
REMARK    5  A    between atoms: C_6  and  C_21
REMARK    6  A    between atoms: C_9  and  S_10
REMARK    7  A    between atoms: S_10  and  C_11
REMARK    8  A    between atoms: C_11  and  C_12
REMARK    9  A    between atoms: C_18  and  C_20
REMARK   10  A    between atoms: C_21  and  N_22
REMARK   11  A    between atoms: C_23  and  C_25
REMARK                            x       y       z     vdW  Elec       q    Type
REMARK                         _______ _______ _______ _____ _____    ______ ____
ROOT
ATOM      1  N   UNL     1       1.471  -2.526   2.420  0.00  0.00    -0.305 N 
ATOM      2  C   UNL     1       2.810  -2.779   2.537  0.00  0.00    +0.151 A 
ATOM      3  N   UNL     1       3.022  -3.192   3.754  0.00  0.00    -0.132 NA
ATOM      4  N   UNL     1       1.917  -3.219   4.410  0.00  0.00    -0.122 NA
ATOM      5  C   UNL     1       0.933  -2.814   3.641  0.00  0.00    +0.192 A 
ENDROOT
BRANCH   1   6
ATOM      6  C   UNL     1       0.763  -2.041   1.233  0.00  0.00    +0.125 C 
BRANCH   6   7
ATOM      7  C   UNL     1       0.742  -0.511   1.242  0.00  0.00    +0.021 C 
BRANCH   7   9
ATOM      8  C   UNL     1      -0.019   1.526   0.010  0.00  0.00    +0.004 C 
ATOM      9  C   UNL     1       0.002  -0.004   0.002  0.00  0.00    -0.002 C 
ENDBRANCH   7   9
ENDBRANCH   6   7
ENDBRANCH   1   6
BRANCH   5  10
ATOM     10  S   UNL     1      -0.763  -2.674   4.098  0.00  0.00    -0.077 S 
BRANCH  10  11
ATOM     11  C   UNL     1      -0.796  -3.205   5.832  0.00  0.00    +0.173 C 
BRANCH  11  12
ATOM     12  C   UNL     1      -2.208  -3.132   6.353  0.00  0.00    +0.229 C 
ATOM     13  O   UNL     1      -3.104  -2.758   5.626  0.00  0.00    -0.275 OA
ATOM     14  N   UNL     1      -2.475  -3.482   7.627  0.00  0.00    -0.263 N 
ATOM     15  C   UNL     1      -3.778  -3.414   8.108  0.00  0.00    +0.188 A 
ATOM     16  N   UNL     1      -4.878  -3.044   7.482  0.00  0.00    -0.126 NA
ATOM     17  N   UNL     1      -6.003  -3.034   8.057  0.00  0.00    -0.145 NA
ATOM     18  C   UNL     1      -6.081  -3.404   9.319  0.00  0.00    +0.101 A 
ATOM     19  S   UNL     1      -4.366  -3.791   9.643  0.00  0.00    -0.036 S 
ATOM     20  C   UNL     1      -7.278  -3.484  10.230  0.00  0.00    +0.075 C 
ATOM     21  H   UNL     1      -1.758  -3.781   8.209  0.00  0.00    +0.157 HD
ENDBRANCH  11  12
ENDBRANCH  10  11
ENDBRANCH   5  10
BRANCH   2  22
ATOM     22  C   UNL     1       3.848  -2.610   1.457  0.00  0.00    +0.180 C 
BRANCH  22  23
ATOM     23  N   UNL     1       4.395  -1.252   1.513  0.00  0.00    -0.308 N 
ATOM     24  C   UNL     1       5.345  -0.871   0.636  0.00  0.00    +0.220 C 
ATOM     25  O   UNL     1       5.748  -1.653  -0.199  0.00  0.00    -0.275 OA
ATOM     26  H   UNL     1       4.073  -0.627   2.182  0.00  0.00    +0.149 HD
BRANCH  24  27
ATOM     27  C   UNL     1       5.908   0.526   0.694  0.00  0.00    +0.048 C 
ATOM     28  C   UNL     1       4.781   1.538   0.481  0.00  0.00    +0.019 C 
ATOM     29  C   UNL     1       5.352   2.957   0.539  0.00  0.00    -0.009 C 
ATOM     30  C   UNL     1       6.406   3.128  -0.556  0.00  0.00    +0.007 C 
ATOM     31  C   UNL     1       7.532   2.115  -0.343  0.00  0.00    -0.009 C 
ATOM     32  C   UNL     1       6.961   0.697  -0.402  0.00  0.00    +0.019 C 
ATOM     33  C   UNL     1       8.177   2.349   1.025  0.00  0.00    +0.007 C 
ATOM     34  C   UNL     1       7.123   2.178   2.121  0.00  0.00    -0.009 C 
ATOM     35  C   UNL     1       5.996   3.191   1.907  0.00  0.00    +0.007 C 
ATOM     36  C   UNL     1       6.552   0.760   2.062  0.00  0.00    +0.019 C 
ENDBRANCH  24  27
ENDBRANCH  22  23
ENDBRANCH   2  22
TORSDOF 9
