REMARK  Name = ZINC67612524
REMARK  6 active torsions:
REMARK  status: ('A' for Active; 'I' for Inactive)
REMARK    1  A    between atoms: C_4  and  C_7
REMARK    2  A    between atoms: C_10  and  N_12
REMARK    3  A    between atoms: N_15  and  N_16
REMARK    4  A    between atoms: N_16  and  C_17
REMARK    5  A    between atoms: C_17  and  N_19
REMARK    6  A    between atoms: N_19  and  C_20
REMARK                            x       y       z     vdW  Elec       q    Type
REMARK                         _______ _______ _______ _____ _____    ______ ____
ROOT
ATOM      1  N   UNL     1       2.945  -1.750  -2.248  0.00  0.00    -0.295 N 
ATOM      2  C   UNL     1       3.276  -2.112  -3.503  0.00  0.00    +0.316 C 
ATOM      3  O   UNL     1       4.435  -2.348  -3.782  0.00  0.00    -0.251 OA
ATOM      4  N   UNL     1       2.321  -2.213  -4.449  0.00  0.00    -0.219 N 
ATOM      5  H   UNL     1       2.020  -1.561  -2.025  0.00  0.00    +0.151 HD
ATOM      6  H   UNL     1       2.559  -2.474  -5.352  0.00  0.00    +0.174 HD
ENDROOT
BRANCH   1   9
ATOM      7  C   UNL     1       3.711  -0.707  -0.038  0.00  0.00    +0.041 C 
ATOM      8  C   UNL     1       3.675  -2.224   0.162  0.00  0.00    +0.033 C 
ATOM      9  C   UNL     1       3.983  -1.640  -1.219  0.00  0.00    +0.083 C 
BRANCH   7  13
ATOM     10  C   UNL     1      -0.017   1.378   0.010  0.00  0.00    +0.000 A 
ATOM     11  C   UNL     1       1.171   2.086   0.002  0.00  0.00    +0.000 A 
ATOM     12  C   UNL     1       2.377   1.411  -0.013  0.00  0.00    +0.004 A 
ATOM     13  C   UNL     1       2.396   0.029  -0.020  0.00  0.00    -0.042 A 
ATOM     14  C   UNL     1       1.208  -0.679  -0.012  0.00  0.00    +0.004 A 
ATOM     15  C   UNL     1       0.002  -0.004   0.002  0.00  0.00    +0.000 A 
ENDBRANCH   7  13
ENDBRANCH   1   9
BRANCH   4  16
ATOM     16  N   UNL     1       0.985  -1.941  -4.127  0.00  0.00    -0.245 N 
ATOM     17  H   UNL     1       0.747  -1.680  -3.223  0.00  0.00    +0.172 HD
BRANCH  16  18
ATOM     18  C   UNL     1       0.030  -2.042  -5.073  0.00  0.00    +0.147 C 
ATOM     19  S   UNL     1      -1.603  -1.709  -4.680  0.00  0.00    -0.017 S 
BRANCH  18  20
ATOM     20  N   UNL     1       0.360  -2.404  -6.328  0.00  0.00    -0.323 N 
ATOM     21  H   UNL     1       1.286  -2.593  -6.551  0.00  0.00    +0.148 HD
BRANCH  20  22
ATOM     22  C   UNL     1      -0.677  -2.514  -7.356  0.00  0.00    +0.072 C 
ATOM     23  C   UNL     1      -1.289  -3.930  -7.341  0.00  0.00    +0.022 C 
ATOM     24  C   UNL     1      -1.548  -4.248  -8.834  0.00  0.00    +0.002 C 
ATOM     25  C   UNL     1      -0.318  -3.620  -9.536  0.00  0.00    +0.002 C 
ATOM     26  C   UNL     1      -0.060  -2.317  -8.752  0.00  0.00    +0.022 C 
ENDBRANCH  20  22
ENDBRANCH  18  20
ENDBRANCH  16  18
ENDBRANCH   4  16
TORSDOF 6
