REMARK  Name = ZINC39534162
REMARK  10 active torsions:
REMARK  status: ('A' for Active; 'I' for Inactive)
REMARK    1  A    between atoms: C_1  and  C_2
REMARK    2  A    between atoms: C_2  and  O_3
REMARK    3  A    between atoms: O_3  and  C_4
REMARK    4  A    between atoms: N_7  and  C_11
REMARK    5  A    between atoms: C_11  and  C_13
REMARK    6  A    between atoms: C_11  and  C_16
REMARK    7  A    between atoms: C_13  and  N_14
REMARK    8  A    between atoms: N_14  and  O_15
REMARK    9  A    between atoms: C_19  and  C_22
REMARK   10  A    between atoms: C_27  and  O_28
REMARK                            x       y       z     vdW  Elec       q    Type
REMARK                         _______ _______ _______ _____ _____    ______ ____
ROOT
ATOM      1  C   UNL     1       2.729  -4.130   3.548  0.00  0.00    -0.021 C 
ENDROOT
BRANCH   1   4
ATOM      2  C   UNL     1       1.687  -2.003   0.636  0.00  0.00    +0.169 C 
ATOM      3  C   UNL     1       2.292  -2.353   1.998  0.00  0.00    -0.030 C 
ATOM      4  N   UNL     1       2.132  -3.791   2.250  0.00  0.00    +0.388 N 
ATOM      5  C   UNL     1       0.703  -4.130   2.265  0.00  0.00    -0.062 C 
ATOM      6  C   UNL     1       0.084  -3.795   0.906  0.00  0.00    +0.065 C 
ATOM      7  N   UNL     1       0.262  -2.362   0.630  0.00  0.00    -0.295 NA
ATOM      8  H   UNL     1      -0.256  -1.800   1.288  0.00  0.00    +0.124 HD
ATOM      9  H   UNL     1       2.594  -4.314   1.521  0.00  0.00    -0.081 HD
BRANCH   2  10
ATOM     10  O   UNL     1       1.826  -0.600   0.399  0.00  0.00    -0.364 OA
BRANCH  10  12
ATOM     11  C   UNL     1       1.682   1.312  -1.072  0.00  0.00    +0.034 C 
ATOM     12  C   UNL     1       1.498  -0.201  -0.933  0.00  0.00    +0.158 C 
ENDBRANCH  10  12
ENDBRANCH   2  10
ENDBRANCH   1   4
BRANCH   1  13
ATOM     13  C   UNL     1       4.155  -3.644   3.587  0.00  0.00    -0.060 A 
ATOM     14  C   UNL     1       4.955  -3.762   2.465  0.00  0.00    +0.002 A 
ATOM     15  C   UNL     1       6.261  -3.320   2.495  0.00  0.00    +0.009 A 
ATOM     16  C   UNL     1       6.775  -2.752   3.659  0.00  0.00    -0.014 A 
ATOM     17  C   UNL     1       5.965  -2.634   4.787  0.00  0.00    +0.009 A 
ATOM     18  C   UNL     1       4.658  -3.076   4.744  0.00  0.00    +0.002 A 
BRANCH  16  19
ATOM     19  C   UNL     1       8.179  -2.274   3.698  0.00  0.00    +0.024 A 
ATOM     20  C   UNL     1       9.211  -3.100   3.260  0.00  0.00    +0.012 A 
ATOM     21  C   UNL     1      10.516  -2.652   3.297  0.00  0.00    +0.001 A 
ATOM     22  C   UNL     1      10.803  -1.383   3.770  0.00  0.00    +0.004 A 
ATOM     23  C   UNL     1       9.787  -0.555   4.207  0.00  0.00    +0.046 A 
ATOM     24  C   UNL     1       8.472  -0.991   4.169  0.00  0.00    +0.125 A 
BRANCH  24  25
ATOM     25  O   UNL     1       7.471  -0.176   4.593  0.00  0.00    -0.506 OA
ATOM     26  H   UNL     1       7.268  -0.260   5.535  0.00  0.00    +0.292 HD
ENDBRANCH  24  25
ENDBRANCH  16  19
ENDBRANCH   1  13
BRANCH   1  27
ATOM     27  C   UNL     1       2.702  -5.647   3.742  0.00  0.00    +0.100 C 
BRANCH  27  28
ATOM     28  N   UNL     1       1.310  -6.099   3.873  0.00  0.00    -0.205 NA
ATOM     29  H   UNL     1       0.843  -5.616   4.625  0.00  0.00    +0.153 HD
BRANCH  28  30
ATOM     30  O   UNL     1       1.245  -7.549   4.060  0.00  0.00    -0.315 OA
ATOM     31  H   UNL     1       0.347  -7.894   4.151  0.00  0.00    +0.236 HD
ENDBRANCH  28  30
ENDBRANCH  27  28
ENDBRANCH   1  27
TORSDOF 9
