REMARK  Name = ZINC35911213
REMARK  6 active torsions:
REMARK  status: ('A' for Active; 'I' for Inactive)
REMARK    1  A    between atoms: C_7  and  C_11
REMARK    2  A    between atoms: C_11  and  C_13
REMARK    3  A    between atoms: C_11  and  C_25
REMARK    4  A    between atoms: C_13  and  C_14
REMARK    5  A    between atoms: C_19  and  C_22
REMARK    6  A    between atoms: C_29  and  C_31
REMARK                            x       y       z     vdW  Elec       q    Type
REMARK                         _______ _______ _______ _____ _____    ______ ____
ROOT
ATOM      1  C   UNL     1       0.666  -3.275  -0.021  0.00  0.00    +0.060 C 
ENDROOT
BRANCH   1   8
ATOM      2  C   UNL     1      -0.017   1.362   0.009  0.00  0.00    +0.001 A 
ATOM      3  C   UNL     1       1.170   2.083   0.002  0.00  0.00    +0.002 A 
ATOM      4  C   UNL     1       2.386   1.436  -0.013  0.00  0.00    +0.026 A 
ATOM      5  C   UNL     1       2.428   0.046  -0.021  0.00  0.00    +0.047 A 
ATOM      6  C   UNL     1       1.223  -0.681  -0.013  0.00  0.00    +0.003 A 
ATOM      7  C   UNL     1       0.002  -0.004   0.002  0.00  0.00    +0.010 A 
ATOM      8  C   UNL     1       1.604  -2.095  -0.025  0.00  0.00    -0.015 A 
ATOM      9  C   UNL     1       2.945  -2.141  -0.038  0.00  0.00    +0.087 A 
ATOM     10  N   UNL     1       3.455  -0.871  -0.036  0.00  0.00    -0.360 N 
ATOM     11  H   UNL     1       4.399  -0.650  -0.044  0.00  0.00    +0.165 HD
ENDBRANCH   1   8
BRANCH   1  12
ATOM     12  C   UNL     1       0.898  -4.104  -1.258  0.00  0.00    -0.039 A 
ATOM     13  C   UNL     1       2.138  -4.669  -1.490  0.00  0.00    +0.006 A 
ATOM     14  C   UNL     1       2.351  -5.429  -2.624  0.00  0.00    +0.021 A 
ATOM     15  C   UNL     1       1.322  -5.624  -3.529  0.00  0.00    +0.053 A 
ATOM     16  C   UNL     1       0.081  -5.059  -3.296  0.00  0.00    +0.073 A 
ATOM     17  C   UNL     1      -0.132  -4.304  -2.159  0.00  0.00    +0.018 A 
ATOM     18 CL   UNL     1       1.589  -6.578  -4.955  0.00  0.00    -0.083 Cl
BRANCH  16  19
ATOM     19  C   UNL     1      -1.040  -5.272  -4.281  0.00  0.00    +0.419 C 
ATOM     20  F   UNL     1      -2.187  -4.608  -3.832  0.00  0.00    -0.166 F 
ATOM     21  F   UNL     1      -0.666  -4.764  -5.530  0.00  0.00    -0.166 F 
ATOM     22  F   UNL     1      -1.308  -6.640  -4.395  0.00  0.00    -0.166 F 
ENDBRANCH  16  19
ENDBRANCH   1  12
BRANCH   1  23
ATOM     23  C   UNL     1       0.927  -4.130   1.221  0.00  0.00    +0.109 C 
BRANCH  23  24
ATOM     24  C   UNL     1      -0.090  -5.240   1.289  0.00  0.00    +0.216 C 
ATOM     25  O   UNL     1      -0.939  -5.338   0.429  0.00  0.00    -0.276 OA
ATOM     26  N   UNL     1      -0.055  -6.124   2.306  0.00  0.00    -0.301 N 
ATOM     27  C   UNL     1       0.964  -6.014   3.359  0.00  0.00    +0.108 C 
ATOM     28  C   UNL     1       1.692  -7.357   3.482  0.00  0.00    +0.032 C 
ATOM     29  C   UNL     1       0.666  -8.469   3.713  0.00  0.00    +0.078 C 
ATOM     30  C   UNL     1      -0.286  -8.544   2.518  0.00  0.00    +0.032 C 
ATOM     31  C   UNL     1      -1.040  -7.212   2.386  0.00  0.00    +0.108 C 
BRANCH  29  32
ATOM     32  C   UNL     1       1.381  -9.787   3.869  0.00  0.00    +0.214 C 
ATOM     33  O   UNL     1       2.591  -9.831   3.803  0.00  0.00    -0.276 OA
ATOM     34  N   UNL     1       0.676 -10.915   4.083  0.00  0.00    -0.329 N 
ATOM     35  H   UNL     1      -0.292 -10.879   4.137  0.00  0.00    +0.145 HD
ATOM     36  H   UNL     1       1.136 -11.763   4.184  0.00  0.00    +0.145 HD
ENDBRANCH  29  32
ENDBRANCH  23  24
ENDBRANCH   1  23
TORSDOF 6
