REMARK  Name = ZINC66684895
REMARK  9 active torsions:
REMARK  status: ('A' for Active; 'I' for Inactive)
REMARK    1  A    between atoms: C_1  and  S_2
REMARK    2  A    between atoms: S_2  and  C_3
REMARK    3  A    between atoms: C_3  and  C_4
REMARK    4  A    between atoms: C_4  and  C_5
REMARK    5  A    between atoms: C_5  and  C_7
REMARK    6  A    between atoms: C_5  and  N_24
REMARK    7  A    between atoms: N_9  and  C_10
REMARK    8  A    between atoms: C_10  and  C_11
REMARK    9  A    between atoms: C_11  and  C_18
REMARK                            x       y       z     vdW  Elec       q    Type
REMARK                         _______ _______ _______ _____ _____    ______ ____
ROOT
ATOM      1  C   UNL     1       1.544  -3.422  -4.225  0.00  0.00    +0.233 C 
ATOM      2  O   UNL     1       2.605  -3.913  -3.901  0.00  0.00    -0.274 OA
ATOM      3  N   UNL     1       0.441  -4.191  -4.304  0.00  0.00    -0.313 N 
ATOM      4  H   UNL     1      -0.407  -3.799  -4.564  0.00  0.00    +0.149 HD
ENDROOT
BRANCH   1   5
ATOM      5  C   UNL     1       1.461  -1.950  -4.540  0.00  0.00    +0.161 C 
BRANCH   5   6
ATOM      6  N   UNL     1       2.798  -1.440  -4.851  0.00  0.00    -0.288 N 
ATOM      7  C   UNL     1       3.781  -1.521  -3.932  0.00  0.00    +0.298 C 
ATOM      8  O   UNL     1       3.557  -2.017  -2.845  0.00  0.00    -0.253 OA
ATOM      9  N   UNL     1       5.011  -1.052  -4.218  0.00  0.00    -0.313 N 
ATOM     10  H   UNL     1       2.977  -1.045  -5.719  0.00  0.00    +0.151 HD
ATOM     11  H   UNL     1       5.190  -0.657  -5.086  0.00  0.00    +0.146 HD
ATOM     12  H   UNL     1       5.718  -1.110  -3.557  0.00  0.00    +0.146 HD
ENDBRANCH   5   6
BRANCH   5  13
ATOM     13  C   UNL     1       0.898  -1.201  -3.331  0.00  0.00    +0.042 C 
BRANCH  13  14
ATOM     14  C   UNL     1       0.696   0.272  -3.693  0.00  0.00    +0.071 C 
BRANCH  14  16
ATOM     15  C   UNL     1      -0.151   2.868  -2.845  0.00  0.00    +0.084 C 
ATOM     16  S   UNL     1       0.028   1.160  -2.259  0.00  0.00    -0.164 S 
ENDBRANCH  14  16
ENDBRANCH  13  14
ENDBRANCH   5  13
ENDBRANCH   1   5
BRANCH   3  17
ATOM     17  C   UNL     1       0.522  -5.622  -3.998  0.00  0.00    +0.115 C 
BRANCH  17  18
ATOM     18  C   UNL     1      -0.822  -6.286  -4.302  0.00  0.00    +0.011 C 
ATOM     19  C   UNL     1      -1.287  -5.850  -5.705  0.00  0.00    +0.013 C 
ATOM     20  C   UNL     1      -0.580  -6.621  -6.836  0.00  0.00    +0.001 C 
ATOM     21  C   UNL     1       0.891  -6.804  -6.575  0.00  0.00    +0.000 C 
ATOM     22  C   UNL     1       1.101  -8.174  -5.899  0.00  0.00    +0.000 C 
ATOM     23  C   UNL     1       0.806  -8.140  -4.474  0.00  0.00    +0.001 C 
ATOM     24  C   UNL     1      -0.665  -7.778  -4.186  0.00  0.00    +0.013 C 
BRANCH  18  25
ATOM     25  C   UNL     1      -1.835  -5.822  -3.288  0.00  0.00    -0.040 A 
ATOM     26  C   UNL     1      -2.911  -5.052  -3.689  0.00  0.00    +0.004 A 
ATOM     27  C   UNL     1      -3.841  -4.626  -2.759  0.00  0.00    +0.000 A 
ATOM     28  C   UNL     1      -3.695  -4.970  -1.428  0.00  0.00    +0.000 A 
ATOM     29  C   UNL     1      -2.619  -5.741  -1.027  0.00  0.00    +0.000 A 
ATOM     30  C   UNL     1      -1.692  -6.170  -1.958  0.00  0.00    +0.004 A 
ENDBRANCH  18  25
ENDBRANCH  17  18
ENDBRANCH   3  17
TORSDOF 8
