REMARK  Name = ZINC66235221
REMARK  10 active torsions:
REMARK  status: ('A' for Active; 'I' for Inactive)
REMARK    1  A    between atoms: C_10  and  O_11
REMARK    2  A    between atoms: O_11  and  C_12
REMARK    3  A    between atoms: C_12  and  C_13
REMARK    4  A    between atoms: C_13  and  C_15
REMARK    5  A    between atoms: C_13  and  O_29
REMARK    6  A    between atoms: C_15  and  N_16
REMARK    7  A    between atoms: N_19  and  C_20
REMARK    8  A    between atoms: C_20  and  C_21
REMARK    9  A    between atoms: C_21  and  C_22
REMARK   10  A    between atoms: C_26  and  O_28
REMARK                            x       y       z     vdW  Elec       q    Type
REMARK                         _______ _______ _______ _____ _____    ______ ____
ROOT
ATOM      1  C   UNL     1       8.537  -0.538  -0.207  0.00  0.00    +0.140 C 
ENDROOT
BRANCH   1   2
ATOM      2  N   UNL     1       9.685   0.372  -0.214  0.00  0.00    -0.297 N 
ATOM      3  C   UNL     1      10.934  -0.120  -0.330  0.00  0.00    +0.300 C 
ATOM      4  O   UNL     1      11.109  -1.319  -0.429  0.00  0.00    -0.253 OA
ATOM      5  N   UNL     1      11.991   0.717  -0.336  0.00  0.00    -0.299 N 
ATOM      6  H   UNL     1       9.546   1.329  -0.135  0.00  0.00    +0.150 HD
ATOM      7  H   UNL     1      11.851   1.674  -0.257  0.00  0.00    +0.150 HD
BRANCH   5   8
ATOM      8  C   UNL     1      13.349   0.183  -0.462  0.00  0.00    +0.110 C 
BRANCH   8   9
ATOM      9  C   UNL     1      14.354   1.335  -0.442  0.00  0.00    +0.054 C 
BRANCH   9  10
ATOM     10  C   UNL     1      15.752   0.785  -0.571  0.00  0.00    -0.042 A 
ATOM     11  C   UNL     1      16.466   0.440   0.561  0.00  0.00    +0.004 A 
ATOM     12  C   UNL     1      17.748  -0.065   0.446  0.00  0.00    +0.004 A 
ATOM     13  C   UNL     1      18.318  -0.226  -0.802  0.00  0.00    +0.045 A 
ATOM     14  C   UNL     1      17.604   0.120  -1.940  0.00  0.00    +0.117 A 
ATOM     15  C   UNL     1      16.315   0.621  -1.822  0.00  0.00    +0.049 A 
BRANCH  14  16
ATOM     16  O   UNL     1      18.163  -0.038  -3.169  0.00  0.00    -0.507 OA
ATOM     17  H   UNL     1      17.998  -0.903  -3.568  0.00  0.00    +0.292 HD
ENDBRANCH  14  16
ENDBRANCH   9  10
ENDBRANCH   8   9
ENDBRANCH   5   8
ENDBRANCH   1   2
BRANCH   1  18
ATOM     18  C   UNL     1       7.246   0.271  -0.066  0.00  0.00    +0.169 C 
BRANCH  18  19
ATOM     19  O   UNL     1       7.277   1.007   1.159  0.00  0.00    -0.387 OA
ATOM     20  H   UNL     1       7.356   0.454   1.948  0.00  0.00    +0.210 HD
ENDBRANCH  18  19
BRANCH  18  21
ATOM     21  C   UNL     1       6.047  -0.680  -0.059  0.00  0.00    +0.261 C 
BRANCH  21  22
ATOM     22  O   UNL     1       4.837   0.080  -0.043  0.00  0.00    -0.489 OA
BRANCH  22  32
ATOM     23  C   UNL     1      -0.016   1.357   0.009  0.00  0.00    +0.001 A 
ATOM     24  C   UNL     1       1.169   2.090   0.002  0.00  0.00    +0.001 A 
ATOM     25  C   UNL     1       2.379   1.467  -0.013  0.00  0.00    +0.012 A 
ATOM     26  C   UNL     1       2.437   0.064  -0.021  0.00  0.00    +0.024 A 
ATOM     27  C   UNL     1       1.233  -0.683  -0.013  0.00  0.00    -0.014 A 
ATOM     28  C   UNL     1       0.002  -0.004   0.002  0.00  0.00    +0.008 A 
ATOM     29  C   UNL     1       1.292  -2.087  -0.021  0.00  0.00    +0.009 A 
ATOM     30  C   UNL     1       2.501  -2.713  -0.035  0.00  0.00    +0.004 A 
ATOM     31  C   UNL     1       3.687  -1.984  -0.043  0.00  0.00    +0.046 A 
ATOM     32  C   UNL     1       3.671  -0.617  -0.036  0.00  0.00    +0.128 A 
ENDBRANCH  22  32
ENDBRANCH  21  22
ENDBRANCH  18  21
ENDBRANCH   1  18
TORSDOF 10
