REMARK  Name = ZINC13498608
REMARK  14 active torsions:
REMARK  status: ('A' for Active; 'I' for Inactive)
REMARK    1  A    between atoms: C_1  and  C_2
REMARK    2  A    between atoms: C_2  and  C_3
REMARK    3  A    between atoms: C_2  and  C_4
REMARK    4  A    between atoms: C_4  and  C_6
REMARK    5  A    between atoms: C_4  and  N_72
REMARK    6  A    between atoms: N_10  and  C_11
REMARK    7  A    between atoms: C_11  and  C_12
REMARK    8  A    between atoms: C_11  and  C_13
REMARK    9  A    between atoms: C_11  and  C_14
REMARK   10  A    between atoms: C_15  and  C_16
REMARK   11  A    between atoms: C_15  and  N_72
REMARK   12  A    between atoms: C_20  and  O_28
REMARK   13  A    between atoms: O_28  and  C_29
REMARK   14  A    between atoms: C_30  and  N_72
REMARK                            x       y       z     vdW  Elec       q    Type
REMARK                         _______ _______ _______ _____ _____    ______ ____
ROOT
ATOM      1  N   UNL     1       3.992  -1.178  -0.028  0.00  0.00    +0.391 N 
ATOM      2  H   UNL     1       3.617  -1.773   0.720  0.00  0.00    -0.080 HD
ENDROOT
BRANCH   1   3
ATOM      3  C   UNL     1       3.316  -1.521  -1.297  0.00  0.00    -0.067 C 
ATOM      4  C   UNL     1       3.108  -3.036  -1.347  0.00  0.00    -0.015 C 
ATOM      5  C   UNL     1       2.394  -3.410  -2.647  0.00  0.00    -0.002 C 
ATOM      6  C   UNL     1       3.245  -2.973  -3.841  0.00  0.00    -0.000 C 
ATOM      7  C   UNL     1       3.453  -1.458  -3.791  0.00  0.00    -0.002 C 
ATOM      8  C   UNL     1       4.167  -1.084  -2.491  0.00  0.00    -0.015 C 
ENDBRANCH   1   3
BRANCH   1   9
ATOM      9  C   UNL     1       3.739   0.238   0.312  0.00  0.00    +0.006 C 
BRANCH   9  10
ATOM     10  C   UNL     1       2.276   0.407   0.632  0.00  0.00    +0.139 A 
ATOM     11  N   UNL     1       1.573  -0.303   1.480  0.00  0.00    -0.115 NA
ATOM     12  N   UNL     1       0.366   0.147   1.471  0.00  0.00    -0.023 NA
ATOM     13  N   UNL     1       0.281   1.126   0.639  0.00  0.00    -0.043 NA
ATOM     14  N   UNL     1       1.438   1.317   0.102  0.00  0.00    -0.226 N 
BRANCH  14  15
ATOM     15  C   UNL     1       1.776   2.333  -0.898  0.00  0.00    +0.059 C 
ATOM     16  C   UNL     1       0.557   3.221  -1.155  0.00  0.00    +0.036 C 
ATOM     17  C   UNL     1       2.933   3.191  -0.383  0.00  0.00    +0.036 C 
ATOM     18  C   UNL     1       2.191   1.647  -2.201  0.00  0.00    +0.036 C 
ENDBRANCH  14  15
ENDBRANCH   9  10
BRANCH   9  20
ATOM     19  C   UNL     1       4.290   2.067   1.922  0.00  0.00    +0.006 C 
ATOM     20  C   UNL     1       4.576   0.614   1.536  0.00  0.00    -0.024 C 
ATOM     21  C   UNL     1       4.212  -0.304   2.705  0.00  0.00    +0.006 C 
ENDBRANCH   9  20
ENDBRANCH   1   9
BRANCH   1  22
ATOM     22  C   UNL     1       5.445  -1.417  -0.149  0.00  0.00    -0.036 C 
BRANCH  22  23
ATOM     23  C   UNL     1       5.688  -2.902  -0.231  0.00  0.00    +0.001 A 
ATOM     24  C   UNL     1       6.199  -3.442  -1.366  0.00  0.00    +0.017 A 
ATOM     25  C   UNL     1       6.428  -4.887  -1.412  0.00  0.00    +0.002 A 
ATOM     26  C   UNL     1       6.958  -5.498  -2.553  0.00  0.00    +0.055 A 
ATOM     27  C   UNL     1       7.157  -6.864  -2.565  0.00  0.00    +0.121 A 
ATOM     28  C   UNL     1       6.832  -7.631  -1.448  0.00  0.00    +0.047 A 
ATOM     29  C   UNL     1       6.309  -7.041  -0.319  0.00  0.00    +0.030 A 
ATOM     30  C   UNL     1       6.101  -5.666  -0.286  0.00  0.00    +0.049 A 
ATOM     31  N   UNL     1       5.579  -5.056   0.836  0.00  0.00    -0.322 N 
ATOM     32  H   UNL     1       5.354  -5.594   1.611  0.00  0.00    +0.169 HD
ATOM     33  C   UNL     1       5.378  -3.727   0.871  0.00  0.00    +0.251 A 
ATOM     34  O   UNL     1       4.915  -3.223   1.879  0.00  0.00    -0.268 OA
BRANCH  27  35
ATOM     35  O   UNL     1       7.672  -7.463  -3.671  0.00  0.00    -0.495 OA
ATOM     36  C   UNL     1       7.853  -8.879  -3.617  0.00  0.00    +0.277 C 
ENDBRANCH  27  35
ENDBRANCH  22  23
ENDBRANCH   1  22
TORSDOF 8
