REMARK  Name = ZINC09074174
REMARK  8 active torsions:
REMARK  status: ('A' for Active; 'I' for Inactive)
REMARK    1  A    between atoms: C_1  and  C_2
REMARK    2  A    between atoms: C_5  and  N_11
REMARK    3  A    between atoms: C_6  and  N_8
REMARK    4  A    between atoms: C_12  and  C_14
REMARK    5  A    between atoms: C_14  and  C_16
REMARK    6  A    between atoms: C_14  and  O_22
REMARK    7  A    between atoms: O_22  and  C_23
REMARK    8  A    between atoms: C_23  and  C_25
REMARK                            x       y       z     vdW  Elec       q    Type
REMARK                         _______ _______ _______ _____ _____    ______ ____
ROOT
ATOM      1  C   UNL     1       6.114  -0.692  -0.050  0.00  0.00    +0.292 C 
ENDROOT
BRANCH   1   2
ATOM      2  C   UNL     1       6.575  -0.949   1.362  0.00  0.00    +0.002 A 
ATOM      3  C   UNL     1       6.365   0.004   2.341  0.00  0.00    +0.008 A 
ATOM      4  C   UNL     1       6.784  -0.233   3.637  0.00  0.00    +0.000 A 
ATOM      5  C   UNL     1       7.420  -1.419   3.951  0.00  0.00    +0.000 A 
ATOM      6  C   UNL     1       7.635  -2.370   2.971  0.00  0.00    +0.000 A 
ATOM      7  C   UNL     1       7.212  -2.134   1.676  0.00  0.00    +0.008 A 
ENDBRANCH   1   2
BRANCH   1   9
ATOM      8  N   UNL     1       8.375  -0.450  -1.024  0.00  0.00    -0.280 N 
ATOM      9  C   UNL     1       7.166   0.096  -0.786  0.00  0.00    +0.263 C 
ATOM     10  O   UNL     1       6.925   1.223  -1.165  0.00  0.00    -0.271 OA
ATOM     11  H   UNL     1       8.590  -1.325  -0.665  0.00  0.00    +0.155 HD
BRANCH   8  16
ATOM     12  C   UNL     1      12.205   2.367  -4.118  0.00  0.00    +0.044 C 
ATOM     13  C   UNL     1      11.187   1.619  -3.297  0.00  0.00    -0.048 A 
ATOM     14  C   UNL     1      10.336   2.311  -2.455  0.00  0.00    +0.005 A 
ATOM     15  C   UNL     1       9.402   1.628  -1.701  0.00  0.00    +0.026 A 
ATOM     16  C   UNL     1       9.319   0.245  -1.787  0.00  0.00    +0.064 A 
ATOM     17  C   UNL     1      10.179  -0.448  -2.629  0.00  0.00    +0.148 A 
ATOM     18  C   UNL     1      11.107   0.241  -3.385  0.00  0.00    +0.038 A 
BRANCH  17  19
ATOM     19  N   UNL     1      10.098  -1.923  -2.720  0.00  0.00    +0.058 N 
ATOM     20  O   UNL     1      10.915  -2.538  -3.381  0.00  0.00    -0.126 OA
ATOM     21  O   UNL     1       9.215  -2.522  -2.133  0.00  0.00    -0.126 OA
ENDBRANCH  17  19
ENDBRANCH   8  16
ENDBRANCH   1   9
BRANCH   1  22
ATOM     22  O   UNL     1       4.873   0.062  -0.025  0.00  0.00    -0.444 OA
BRANCH  22  23
ATOM     23  C   UNL     1       3.727  -0.647   0.003  0.00  0.00    +0.340 C 
ATOM     24  O   UNL     1       3.764  -1.861   0.006  0.00  0.00    -0.245 OA
BRANCH  23  25
ATOM     25  C   UNL     1       2.430   0.051   0.029  0.00  0.00    +0.061 A 
ATOM     26  C   UNL     1       2.389   1.450   0.026  0.00  0.00    +0.016 A 
ATOM     27  C   UNL     1       1.175   2.099   0.048  0.00  0.00    +0.017 A 
ATOM     28  C   UNL     1      -0.005   1.367   0.074  0.00  0.00    +0.030 A 
ATOM     29  C   UNL     1       0.021  -0.032   0.082  0.00  0.00    +0.048 A 
ATOM     30  C   UNL     1       1.243  -0.684   0.058  0.00  0.00    +0.039 A 
ATOM     31  N   UNL     1      -1.153  -0.781   0.119  0.00  0.00    -0.284 N 
ATOM     32  C   UNL     1      -2.362  -0.368  -0.250  0.00  0.00    +0.227 C 
ATOM     33  O   UNL     1      -3.285  -1.151  -0.168  0.00  0.00    -0.275 OA
ATOM     34  C   UNL     1      -2.648   1.016  -0.766  0.00  0.00    +0.170 C 
ATOM     35  S   UNL     1      -1.563   2.196   0.090  0.00  0.00    -0.114 S 
ATOM     36  H   UNL     1      -1.082  -1.692   0.446  0.00  0.00    +0.155 HD
ENDBRANCH  23  25
ENDBRANCH  22  23
ENDBRANCH   1  22
TORSDOF 7
