REMARK  Name = ZINC10244638
REMARK  13 active torsions:
REMARK  status: ('A' for Active; 'I' for Inactive)
REMARK    1  A    between atoms: C_1  and  C_2
REMARK    2  A    between atoms: C_2  and  O_3
REMARK    3  A    between atoms: O_3  and  C_4
REMARK    4  A    between atoms: C_4  and  C_6
REMARK    5  A    between atoms: C_6  and  C_7
REMARK    6  A    between atoms: C_6  and  S_12
REMARK    7  A    between atoms: C_7  and  O_9
REMARK    8  A    between atoms: O_9  and  C_10
REMARK    9  A    between atoms: C_10  and  C_11
REMARK   10  A    between atoms: S_12  and  C_13
REMARK   11  A    between atoms: N_27  and  C_28
REMARK   12  A    between atoms: C_32  and  C_35
REMARK   13  A    between atoms: C_33  and  C_34
REMARK                            x       y       z     vdW  Elec       q    Type
REMARK                         _______ _______ _______ _____ _____    ______ ____
ROOT
ATOM      1  C   UNL     1      -2.391   0.813   1.334  0.00  0.00    +0.178 A 
ATOM      2  N   UNL     1      -2.579   0.028   0.297  0.00  0.00    -0.221 NA
ATOM      3  C   UNL     1      -3.731  -0.643   0.136  0.00  0.00    +0.104 A 
ATOM      4  C   UNL     1      -4.229  -1.572  -0.889  0.00  0.00    +0.026 A 
ATOM      5  C   UNL     1      -3.681  -2.090  -2.063  0.00  0.00    +0.012 A 
ATOM      6  C   UNL     1      -4.408  -2.957  -2.829  0.00  0.00    +0.001 A 
ATOM      7  C   UNL     1      -5.690  -3.327  -2.447  0.00  0.00    +0.002 A 
ATOM      8  C   UNL     1      -6.250  -2.828  -1.292  0.00  0.00    +0.026 A 
ATOM      9  C   UNL     1      -5.526  -1.943  -0.496  0.00  0.00    +0.049 A 
ATOM     10  N   UNL     1      -5.822  -1.296   0.685  0.00  0.00    -0.349 N 
ATOM     11  H   UNL     1      -6.658  -1.379   1.170  0.00  0.00    +0.166 HD
ATOM     12  C   UNL     1      -4.750  -0.510   1.078  0.00  0.00    +0.132 A 
ATOM     13  C   UNL     1      -4.536   0.336   2.186  0.00  0.00    +0.283 A 
ATOM     14  O   UNL     1      -5.400   0.481   3.034  0.00  0.00    -0.265 OA
ATOM     15  N   UNL     1      -3.352   0.978   2.290  0.00  0.00    -0.254 N 
ENDROOT
BRANCH  15  16
ATOM     16  C   UNL     1      -3.111   1.820   3.383  0.00  0.00    +0.055 A 
ATOM     17  C   UNL     1      -3.444   3.166   3.312  0.00  0.00    +0.026 A 
ATOM     18  C   UNL     1      -3.205   3.994   4.391  0.00  0.00    +0.002 A 
ATOM     19  C   UNL     1      -2.635   3.483   5.543  0.00  0.00    +0.004 A 
ATOM     20  C   UNL     1      -2.301   2.143   5.617  0.00  0.00    -0.046 A 
ATOM     21  C   UNL     1      -2.543   1.309   4.543  0.00  0.00    -0.024 A 
ATOM     22  C   UNL     1      -2.185  -0.152   4.627  0.00  0.00    +0.046 C 
ATOM     23  C   UNL     1      -1.679   1.591   6.874  0.00  0.00    +0.044 C 
ENDBRANCH  15  16
BRANCH   1  24
ATOM     24  S   UNL     1      -0.860   1.669   1.497  0.00  0.00    -0.061 S 
BRANCH  24  25
ATOM     25  C   UNL     1      -0.013   1.086   0.008  0.00  0.00    +0.270 C 
BRANCH  25  26
ATOM     26  C   UNL     1       1.401   1.607  -0.003  0.00  0.00    +0.332 C 
ATOM     27  O   UNL     1       1.697   2.565   0.672  0.00  0.00    -0.249 OA
BRANCH  26  28
ATOM     28  O   UNL     1       2.332   1.008  -0.762  0.00  0.00    -0.464 OA
BRANCH  28  30
ATOM     29  C   UNL     1       4.587   0.756  -1.645  0.00  0.00    +0.048 C 
ATOM     30  C   UNL     1       3.672   1.565  -0.723  0.00  0.00    +0.229 C 
ENDBRANCH  28  30
ENDBRANCH  26  28
ENDBRANCH  25  26
BRANCH  25  31
ATOM     31  C   UNL     1      -0.742   1.585  -1.213  0.00  0.00    +0.332 C 
ATOM     32  O   UNL     1      -1.352   0.810  -1.911  0.00  0.00    -0.249 OA
BRANCH  31  33
ATOM     33  O   UNL     1      -0.713   2.890  -1.525  0.00  0.00    -0.464 OA
BRANCH  33  34
ATOM     34  C   UNL     1      -1.437   3.300  -2.715  0.00  0.00    +0.229 C 
ATOM     35  C   UNL     1      -1.291   4.811  -2.906  0.00  0.00    +0.048 C 
ENDBRANCH  33  34
ENDBRANCH  31  33
ENDBRANCH  25  31
ENDBRANCH  24  25
ENDBRANCH   1  24
TORSDOF 9
