REMARK  Name = ZINC15002484
REMARK  11 active torsions:
REMARK  status: ('A' for Active; 'I' for Inactive)
REMARK    1  A    between atoms: C_1  and  C_2
REMARK    2  A    between atoms: C_2  and  C_3
REMARK    3  A    between atoms: C_2  and  C_4
REMARK    4  A    between atoms: C_4  and  C_5
REMARK    5  A    between atoms: C_5  and  N_6
REMARK    6  A    between atoms: C_17  and  N_61
REMARK    7  A    between atoms: C_21  and  C_22
REMARK    8  A    between atoms: C_21  and  N_61
REMARK    9  A    between atoms: C_22  and  C_23
REMARK   10  A    between atoms: C_26  and  S_29
REMARK   11  A    between atoms: S_29  and  N_32
REMARK                            x       y       z     vdW  Elec       q    Type
REMARK                         _______ _______ _______ _____ _____    ______ ____
ROOT
ATOM      1  N   UNL     1      -0.421   1.942  14.788  0.00  0.00    -0.299 N 
ATOM      2  C   UNL     1       0.667   2.747  14.844  0.00  0.00    +0.203 A 
ATOM      3  N   UNL     1       1.058   3.494  13.835  0.00  0.00    -0.230 NA
ATOM      4  C   UNL     1       0.337   3.440  12.719  0.00  0.00    +0.116 A 
ATOM      5  C   UNL     1      -0.812   2.634  12.563  0.00  0.00    +0.076 A 
ATOM      6  C   UNL     1      -1.204   1.833  13.688  0.00  0.00    +0.262 A 
ATOM      7  O   UNL     1      -2.180   1.103  13.656  0.00  0.00    -0.267 OA
ATOM      8  C   UNL     1      -1.474   2.704  11.273  0.00  0.00    -0.023 A 
ATOM      9  C   UNL     1      -0.924   3.531  10.353  0.00  0.00    -0.006 A 
ATOM     10  S   UNL     1       0.486   4.249  11.158  0.00  0.00    -0.073 S 
ATOM     11  C   UNL     1      -1.405   3.784   8.958  0.00  0.00    +0.027 C 
ATOM     12  C   UNL     1      -2.410   2.685   8.583  0.00  0.00    -0.067 C 
ATOM     13  C   UNL     1      -3.414   2.528   9.729  0.00  0.00    -0.011 C 
ATOM     14  C   UNL     1      -2.726   1.897  10.940  0.00  0.00    +0.035 C 
ENDROOT
BRANCH  12  15
ATOM     15  N   UNL     1      -3.130   3.069   7.354  0.00  0.00    +0.381 N 
ATOM     16  H   UNL     1      -3.259   4.088   7.342  0.00  0.00    -0.086 HD
ATOM     17  H   UNL     1      -4.047   2.608   7.340  0.00  0.00    -0.086 HD
BRANCH  15  18
ATOM     18  C   UNL     1      -2.362   2.661   6.163  0.00  0.00    -0.078 C 
BRANCH  18  19
ATOM     19  C   UNL     1      -3.131   3.072   4.906  0.00  0.00    +0.016 C 
BRANCH  19  20
ATOM     20  C   UNL     1      -2.353   2.659   3.683  0.00  0.00    -0.049 A 
ATOM     21  C   UNL     1      -2.559   1.412   3.121  0.00  0.00    +0.005 A 
ATOM     22  C   UNL     1      -1.846   1.033   2.000  0.00  0.00    +0.029 A 
ATOM     23  C   UNL     1      -0.927   1.900   1.439  0.00  0.00    +0.105 A 
ATOM     24  C   UNL     1      -0.717   3.145   2.004  0.00  0.00    +0.029 A 
ATOM     25  C   UNL     1      -1.434   3.526   3.123  0.00  0.00    +0.005 A 
BRANCH  23  26
ATOM     26  S   UNL     1      -0.017   1.417   0.010  0.00  0.00    +0.056 S 
ATOM     27  O   UNL     1       0.002  -0.004   0.002  0.00  0.00    -0.153 OA
ATOM     28  O   UNL     1       1.172   2.195   0.003  0.00  0.00    -0.153 OA
BRANCH  26  29
ATOM     29  N   UNL     1      -0.897   1.885  -1.312  0.00  0.00    -0.204 NA
ATOM     30  H   UNL     1      -1.747   2.338  -1.194  0.00  0.00    +0.144 HD
ATOM     31  H   UNL     1      -0.563   1.708  -2.205  0.00  0.00    +0.144 HD
ENDBRANCH  26  29
ENDBRANCH  23  26
ENDBRANCH  19  20
ENDBRANCH  18  19
ENDBRANCH  15  18
ENDBRANCH  12  15
BRANCH   1  32
ATOM     32  C   UNL     1      -0.767   1.151  15.972  0.00  0.00    +0.126 C 
BRANCH  32  33
ATOM     33  C   UNL     1      -1.712   1.958  16.865  0.00  0.00    +0.024 C 
BRANCH  33  35
ATOM     34  C   UNL     1      -0.818   0.902  18.945  0.00  0.00    +0.007 C 
ATOM     35  C   UNL     1      -2.073   1.133  18.102  0.00  0.00    -0.016 C 
ATOM     36  C   UNL     1      -3.114   1.887  18.932  0.00  0.00    +0.007 C 
ENDBRANCH  33  35
ENDBRANCH  32  33
ENDBRANCH   1  32
TORSDOF 9
