REMARK  Name = ZINC66640684
REMARK  10 active torsions:
REMARK  status: ('A' for Active; 'I' for Inactive)
REMARK    1  A    between atoms: C_1  and  C_2
REMARK    2  A    between atoms: C_2  and  C_3
REMARK    3  A    between atoms: C_2  and  N_4
REMARK    4  A    between atoms: C_5  and  C_10
REMARK    5  A    between atoms: C_10  and  N_11
REMARK    6  A    between atoms: C_12  and  C_14
REMARK    7  A    between atoms: C_14  and  S_15
REMARK    8  A    between atoms: S_15  and  C_16
REMARK    9  A    between atoms: C_16  and  C_17
REMARK   10  A    between atoms: N_19  and  C_20
REMARK                            x       y       z     vdW  Elec       q    Type
REMARK                         _______ _______ _______ _____ _____    ______ ____
ROOT
ATOM      1  N   UNL     1      -2.181  -2.650  -2.958  0.00  0.00    -0.307 N 
ATOM      2  C   UNL     1      -1.784  -3.204  -4.120  0.00  0.00    +0.223 C 
ATOM      3  O   UNL     1      -0.656  -3.019  -4.526  0.00  0.00    -0.275 OA
ATOM      4  H   UNL     1      -3.083  -2.798  -2.633  0.00  0.00    +0.149 HD
ENDROOT
BRANCH   1   5
ATOM      5  C   UNL     1      -1.250  -1.825  -2.183  0.00  0.00    +0.180 C 
BRANCH   5   7
ATOM      6  N   UNL     1      -1.366  -0.531   0.025  0.00  0.00    -0.303 N 
ATOM      7  C   UNL     1      -1.935  -1.330  -0.936  0.00  0.00    +0.149 A 
ATOM      8  N   UNL     1      -3.156  -1.589  -0.595  0.00  0.00    -0.157 NA
ATOM      9  N   UNL     1      -3.414  -0.947   0.625  0.00  0.00    -0.254 N 
ATOM     10  C   UNL     1      -2.284  -0.304   0.986  0.00  0.00    +0.176 A 
ATOM     11  S   UNL     1      -2.058   0.630   2.403  0.00  0.00    -0.011 S 
ATOM     12  H   UNL     1      -4.248  -0.965   1.119  0.00  0.00    +0.191 HD
BRANCH   6  14
ATOM     13  C   UNL     1      -0.023   1.513   0.024  0.00  0.00    +0.030 C 
ATOM     14  C   UNL     1       0.006  -0.017   0.010  0.00  0.00    +0.085 C 
ATOM     15  C   UNL     1       0.753  -0.523   1.245  0.00  0.00    +0.030 C 
ENDBRANCH   6  14
ENDBRANCH   5   7
ENDBRANCH   1   5
BRANCH   2  16
ATOM     16  C   UNL     1      -2.741  -4.052  -4.917  0.00  0.00    +0.165 C 
BRANCH  16  17
ATOM     17  S   UNL     1      -1.916  -4.648  -6.418  0.00  0.00    -0.142 S 
BRANCH  17  18
ATOM     18  C   UNL     1      -3.186  -5.639  -7.253  0.00  0.00    +0.165 C 
BRANCH  18  19
ATOM     19  C   UNL     1      -2.624  -6.200  -8.533  0.00  0.00    +0.227 C 
ATOM     20  O   UNL     1      -1.479  -5.957  -8.852  0.00  0.00    -0.275 OA
ATOM     21  N   UNL     1      -3.393  -6.974  -9.325  0.00  0.00    -0.285 N 
ATOM     22  H   UNL     1      -4.285  -7.224  -9.039  0.00  0.00    +0.155 HD
BRANCH  21  23
ATOM     23  C   UNL     1      -2.904  -7.416 -10.560  0.00  0.00    +0.034 A 
ATOM     24  C   UNL     1      -3.762  -7.537 -11.645  0.00  0.00    +0.026 A 
ATOM     25  C   UNL     1      -3.278  -7.974 -12.862  0.00  0.00    +0.040 A 
ATOM     26  C   UNL     1      -1.937  -8.291 -13.002  0.00  0.00    +0.124 A 
ATOM     27  C   UNL     1      -1.079  -8.170 -11.921  0.00  0.00    +0.040 A 
ATOM     28  C   UNL     1      -1.558  -7.728 -10.704  0.00  0.00    +0.026 A 
ATOM     29  F   UNL     1      -1.465  -8.718 -14.194  0.00  0.00    -0.205 F 
ENDBRANCH  21  23
ENDBRANCH  18  19
ENDBRANCH  17  18
ENDBRANCH  16  17
ENDBRANCH   2  16
TORSDOF 8
