REMARK  Name = ZINC36503391
REMARK  15 active torsions:
REMARK  status: ('A' for Active; 'I' for Inactive)
REMARK    1  A    between atoms: C_1  and  C_2
REMARK    2  A    between atoms: C_2  and  C_3
REMARK    3  A    between atoms: C_2  and  C_4
REMARK    4  A    between atoms: C_2  and  C_5
REMARK    5  A    between atoms: C_5  and  C_6
REMARK    6  A    between atoms: C_6  and  C_7
REMARK    7  A    between atoms: C_6  and  C_8
REMARK    8  A    between atoms: C_6  and  N_9
REMARK    9  A    between atoms: C_10  and  C_12
REMARK   10  A    between atoms: C_12  and  C_14
REMARK   11  A    between atoms: C_12  and  N_24
REMARK   12  A    between atoms: C_16  and  N_21
REMARK   13  A    between atoms: N_24  and  C_25
REMARK   14  A    between atoms: C_25  and  C_26
REMARK   15  A    between atoms: C_31  and  C_33
REMARK                            x       y       z     vdW  Elec       q    Type
REMARK                         _______ _______ _______ _____ _____    ______ ____
ROOT
ATOM      1  C   UNL     1       5.464  -0.250  -4.604  0.00  0.00    +0.194 C 
ENDROOT
BRANCH   1   2
ATOM      2  C   UNL     1       5.735  -1.635  -5.133  0.00  0.00    +0.002 A 
ATOM      3  C   UNL     1       6.913  -2.281  -4.807  0.00  0.00    +0.040 A 
ATOM      4  C   UNL     1       7.163  -3.551  -5.293  0.00  0.00    +0.127 A 
ATOM      5  C   UNL     1       6.235  -4.176  -6.105  0.00  0.00    +0.034 A 
ATOM      6  C   UNL     1       5.057  -3.531  -6.432  0.00  0.00    +0.022 A 
ATOM      7  C   UNL     1       4.804  -2.262  -5.941  0.00  0.00    +0.047 A 
ATOM      8 CL   UNL     1       3.321  -1.454  -6.345  0.00  0.00    -0.083 Cl
BRANCH   4   9
ATOM      9  N   UNL     1       8.424  -4.242  -4.943  0.00  0.00    +0.056 N 
ATOM     10  O   UNL     1       9.236  -3.696  -4.233  0.00  0.00    -0.126 OA
ATOM     11  O   UNL     1       8.643  -5.352  -5.368  0.00  0.00    -0.126 OA
ENDBRANCH   4   9
ENDBRANCH   1   2
BRANCH   1  13
ATOM     12  N   UNL     1       3.784  -1.082  -2.989  0.00  0.00    -0.308 N 
ATOM     13  C   UNL     1       4.892  -0.348  -3.213  0.00  0.00    +0.239 C 
ATOM     14  O   UNL     1       5.429   0.235  -2.295  0.00  0.00    -0.273 OA
ATOM     15  H   UNL     1       3.375  -1.577  -3.717  0.00  0.00    +0.149 HD
BRANCH  12  16
ATOM     16  C   UNL     1       3.199  -1.135  -1.647  0.00  0.00    +0.030 C 
ATOM     17  C   UNL     1       3.143   0.277  -1.060  0.00  0.00    +0.031 C 
ATOM     18  C   UNL     1       4.059  -2.026  -0.750  0.00  0.00    +0.031 C 
BRANCH  16  19
ATOM     19  C   UNL     1       1.783  -1.709  -1.731  0.00  0.00    +0.031 C 
BRANCH  19  21
ATOM     20  C   UNL     1       1.410  -1.738  -4.201  0.00  0.00    +0.010 C 
ATOM     21  C   UNL     1       1.032  -1.048  -2.889  0.00  0.00    -0.036 C 
ATOM     22  C   UNL     1       1.411   0.432  -2.964  0.00  0.00    +0.010 C 
ATOM     23  C   UNL     1      -0.475  -1.179  -2.660  0.00  0.00    +0.010 C 
ENDBRANCH  19  21
ENDBRANCH  16  19
ENDBRANCH  12  16
ENDBRANCH   1  13
BRANCH   1  24
ATOM     24  N   UNL     1       6.714   0.512  -4.566  0.00  0.00    -0.278 N 
ATOM     25  C   UNL     1       7.333   0.849  -5.715  0.00  0.00    +0.231 C 
ATOM     26  O   UNL     1       8.415   1.396  -5.683  0.00  0.00    -0.274 OA
BRANCH  25  27
ATOM     27  C   UNL     1       6.681   0.546  -7.039  0.00  0.00    +0.204 C 
ATOM     28 CL   UNL     1       7.673   1.246  -8.372  0.00  0.00    -0.116 Cl
ENDBRANCH  25  27
BRANCH  24  29
ATOM     29  C   UNL     1       7.292   0.908  -3.279  0.00  0.00    +0.183 C 
BRANCH  29  30
ATOM     30  C   UNL     1       7.867  -0.304  -2.592  0.00  0.00    +0.122 A 
ATOM     31  C   UNL     1       9.129  -0.753  -2.716  0.00  0.00    +0.046 A 
ATOM     32  C   UNL     1       9.234  -1.905  -1.904  0.00  0.00    +0.041 A 
ATOM     33  C   UNL     1       8.031  -2.091  -1.332  0.00  0.00    +0.195 A 
ATOM     34  O   UNL     1       7.208  -1.115  -1.748  0.00  0.00    -0.466 OA
ENDBRANCH  29  30
ENDBRANCH  24  29
ENDBRANCH   1  24
TORSDOF 10
