REMARK  Name = ZINC10063072
REMARK  5 active torsions:
REMARK  status: ('A' for Active; 'I' for Inactive)
REMARK    1  A    between atoms: C_1  and  C_2
REMARK    2  A    between atoms: C_12  and  C_14
REMARK    3  A    between atoms: N_16  and  C_30
REMARK    4  A    between atoms: N_21  and  C_24
REMARK    5  A    between atoms: C_30  and  C_31
REMARK                            x       y       z     vdW  Elec       q    Type
REMARK                         _______ _______ _______ _____ _____    ______ ____
ROOT
ATOM      1  C   UNL     1       4.630  -5.710  -0.072  0.00  0.00    +0.081 A 
ATOM      2  C   UNL     1       3.674  -6.684  -0.063  0.00  0.00    +0.101 A 
ATOM      3  N   UNL     1       3.995  -8.001  -0.079  0.00  0.00    -0.348 N 
ATOM      4  C   UNL     1       5.262  -8.457  -0.093  0.00  0.00    +0.101 A 
ATOM      5  C   UNL     1       6.320  -7.585  -0.099  0.00  0.00    +0.085 A 
ATOM      6  C   UNL     1       7.776  -7.698  -0.113  0.00  0.00    +0.283 A 
ATOM      7  O   UNL     1       8.431  -8.728  -0.125  0.00  0.00    -0.265 OA
ATOM      8  N   UNL     1       8.251  -6.434  -0.111  0.00  0.00    -0.196 N 
ATOM      9  N   UNL     1       7.195  -5.518  -0.096  0.00  0.00    -0.162 NA
ATOM     10  C   UNL     1       6.045  -6.130  -0.088  0.00  0.00    +0.112 A 
ENDROOT
BRANCH   1  22
ATOM     11  C   UNL     1      -1.298  -0.767   0.010  0.00  0.00    +0.046 C 
ATOM     12  C   UNL     1       0.002  -0.004   0.002  0.00  0.00    -0.024 A 
ATOM     13  C   UNL     1      -0.017   1.367   0.010  0.00  0.00    +0.005 A 
ATOM     14  C   UNL     1       1.156   2.107   0.002  0.00  0.00    +0.001 A 
ATOM     15  C   UNL     1       2.373   1.450  -0.013  0.00  0.00    +0.017 A 
ATOM     16  C   UNL     1       2.401   0.078  -0.021  0.00  0.00    +0.041 A 
ATOM     17  C   UNL     1       1.227  -0.710  -0.013  0.00  0.00    +0.083 A 
ATOM     18  N   UNL     1       1.419  -2.047  -0.022  0.00  0.00    -0.224 NA
ATOM     19  C   UNL     1       2.616  -2.587  -0.036  0.00  0.00    +0.166 A 
ATOM     20  S   UNL     1       3.682  -1.153  -0.039  0.00  0.00    -0.052 S 
ATOM     21  N   UNL     1       2.963  -3.927  -0.047  0.00  0.00    -0.261 N 
ATOM     22  C   UNL     1       4.261  -4.287  -0.061  0.00  0.00    +0.253 C 
ATOM     23  O   UNL     1       5.129  -3.434  -0.065  0.00  0.00    -0.270 OA
ATOM     24  H   UNL     1       2.271  -4.607  -0.044  0.00  0.00    +0.157 HD
ENDBRANCH   1  22
BRANCH   8  25
ATOM     25  C   UNL     1       9.607  -6.090  -0.122  0.00  0.00    +0.069 A 
ATOM     26  C   UNL     1      10.530  -6.874   0.559  0.00  0.00    +0.028 A 
ATOM     27  C   UNL     1      11.868  -6.534   0.541  0.00  0.00    +0.002 A 
ATOM     28  C   UNL     1      12.289  -5.409  -0.143  0.00  0.00    +0.000 A 
ATOM     29  C   UNL     1      11.373  -4.623  -0.818  0.00  0.00    +0.002 A 
ATOM     30  C   UNL     1      10.033  -4.960  -0.809  0.00  0.00    +0.028 A 
ENDBRANCH   8  25
BRANCH   3  31
ATOM     31  C   UNL     1       2.906  -8.981  -0.073  0.00  0.00    +0.148 C 
BRANCH  31  32
ATOM     32  C   UNL     1       2.546  -9.324   1.350  0.00  0.00    -0.013 C 
ATOM     33  C   UNL     1       1.310  -9.191   1.764  0.00  0.00    +0.005 C 
ENDBRANCH  31  32
ENDBRANCH   3  31
TORSDOF 4
