REMARK  Name = ZINC61886697
REMARK  5 active torsions:
REMARK  status: ('A' for Active; 'I' for Inactive)
REMARK    1  A    between atoms: C_4  and  S_7
REMARK    2  A    between atoms: S_7  and  N_10
REMARK    3  A    between atoms: N_10  and  C_11
REMARK    4  A    between atoms: C_16  and  C_18
REMARK    5  A    between atoms: C_18  and  N_20
REMARK                            x       y       z     vdW  Elec       q    Type
REMARK                         _______ _______ _______ _____ _____    ______ ____
ROOT
ATOM      1  N   UNL     1       3.173  -2.560  -0.043  0.00  0.00    -0.186 NA
ATOM      2  H   UNL     1       3.608  -2.962  -0.811  0.00  0.00    +0.148 HD
ENDROOT
BRANCH   1   3
ATOM      3  C   UNL     1       3.972  -2.115   1.101  0.00  0.00    +0.086 C 
ATOM      4  C   UNL     1       4.546  -0.714   0.831  0.00  0.00    +0.021 C 
ATOM      5  C   UNL     1       6.082  -0.851   0.875  0.00  0.00    +0.002 C 
ATOM      6  C   UNL     1       6.326  -2.112   1.740  0.00  0.00    +0.011 C 
ATOM      7  C   UNL     1       5.178  -3.056   1.302  0.00  0.00    +0.059 C 
BRANCH   7   8
ATOM      8  C   UNL     1       4.884  -4.068   2.379  0.00  0.00    +0.051 C 
ATOM      9  S   UNL     1       3.472  -4.050   3.129  0.00  0.00    -0.040 S 
BRANCH   8  10
ATOM     10  N   UNL     1       5.812  -4.987   2.711  0.00  0.00    -0.355 N 
ATOM     11  H   UNL     1       6.669  -4.998   2.256  0.00  0.00    +0.143 HD
ATOM     12  H   UNL     1       5.623  -5.638   3.405  0.00  0.00    +0.143 HD
ENDBRANCH   8  10
ENDBRANCH   7   8
ENDBRANCH   1   3
BRANCH   1  13
ATOM     13  S   UNL     1       1.527  -2.376  -0.026  0.00  0.00    +0.066 S 
ATOM     14  O   UNL     1       1.075  -2.885   1.220  0.00  0.00    -0.153 OA
ATOM     15  O   UNL     1       1.050  -2.870  -1.270  0.00  0.00    -0.153 OA
BRANCH  13  19
ATOM     16  C   UNL     1      -0.017   1.379   0.010  0.00  0.00    +0.025 A 
ATOM     17  C   UNL     1       1.160   2.052   0.002  0.00  0.00    +0.048 A 
ATOM     18  S   UNL     1       2.348   0.720  -0.017  0.00  0.00    -0.076 S 
ATOM     19  C   UNL     1       1.197  -0.645  -0.013  0.00  0.00    +0.156 A 
ATOM     20  C   UNL     1       0.002  -0.004   0.002  0.00  0.00    +0.051 A 
ATOM     21 BR   UNL     1      -1.614  -0.986   0.013  0.00  0.00    -0.048 Br
ENDBRANCH  13  19
ENDBRANCH   1  13
TORSDOF 5
