REMARK  Name = ZINC33781307
REMARK  10 active torsions:
REMARK  status: ('A' for Active; 'I' for Inactive)
REMARK    1  A    between atoms: C_1  and  C_2
REMARK    2  A    between atoms: C_2  and  C_3
REMARK    3  A    between atoms: C_3  and  C_4
REMARK    4  A    between atoms: C_4  and  C_5
REMARK    5  A    between atoms: C_5  and  N_6
REMARK    6  A    between atoms: N_6  and  C_7
REMARK    7  A    between atoms: C_8  and  C_19
REMARK    8  A    between atoms: C_15  and  C_18
REMARK    9  A    between atoms: N_23  and  C_27
REMARK   10  A    between atoms: C_27  and  C_28
REMARK                            x       y       z     vdW  Elec       q    Type
REMARK                         _______ _______ _______ _____ _____    ______ ____
ROOT
ATOM      1  C   UNL     1       1.686  -3.769  -4.440  0.00  0.00    +0.134 A 
ATOM      2  C   UNL     1       1.939  -2.607  -3.673  0.00  0.00    +0.081 A 
ATOM      3  C   UNL     1       1.428  -2.548  -2.354  0.00  0.00    +0.267 A 
ATOM      4  O   UNL     1       1.626  -1.569  -1.656  0.00  0.00    -0.267 OA
ATOM      5  N   UNL     1       0.715  -3.594  -1.884  0.00  0.00    -0.267 N 
ATOM      6  C   UNL     1       0.213  -3.543  -0.617  0.00  0.00    +0.096 A 
ATOM      7  C   UNL     1      -0.500  -4.575  -0.114  0.00  0.00    +0.019 A 
ATOM      8  C   UNL     1      -0.736  -5.714  -0.895  0.00  0.00    +0.008 A 
ATOM      9  C   UNL     1      -0.239  -5.774  -2.163  0.00  0.00    -0.007 A 
ATOM     10  C   UNL     1       0.501  -4.691  -2.670  0.00  0.00    +0.145 A 
ATOM     11  N   UNL     1       0.982  -4.759  -3.912  0.00  0.00    -0.214 NA
ATOM     12  C   UNL     1      -0.483  -6.993  -3.016  0.00  0.00    +0.047 C 
ENDROOT
BRANCH   2  13
ATOM     13  C   UNL     1       2.687  -1.533  -4.210  0.00  0.00    +0.037 C 
ATOM     14  C   UNL     1       2.086  -0.330  -4.440  0.00  0.00    +0.077 C 
ATOM     15  C   UNL     1       0.716   0.038  -4.310  0.00  0.00    +0.259 C 
ATOM     16  O   UNL     1      -0.118  -0.772  -3.946  0.00  0.00    -0.269 OA
ATOM     17  N   UNL     1       0.374   1.282  -4.599  0.00  0.00    -0.251 N 
ATOM     18  C   UNL     1       1.301   2.182  -4.997  0.00  0.00    +0.121 C 
ATOM     19  S   UNL     1       1.088   3.829  -5.413  0.00  0.00    -0.027 S 
ATOM     20  S   UNL     1       2.804   1.216  -4.980  0.00  0.00    -0.061 S 
BRANCH  17  21
ATOM     21  C   UNL     1      -1.027   1.692  -4.481  0.00  0.00    +0.150 C 
BRANCH  21  22
ATOM     22  C   UNL     1      -1.730   1.462  -5.794  0.00  0.00    -0.026 A 
ATOM     23  C   UNL     1      -2.346   0.250  -6.044  0.00  0.00    +0.009 A 
ATOM     24  C   UNL     1      -2.989   0.033  -7.249  0.00  0.00    +0.050 A 
ATOM     25  C   UNL     1      -3.025   1.035  -8.205  0.00  0.00    +0.166 A 
ATOM     26  C   UNL     1      -2.404   2.256  -7.954  0.00  0.00    +0.167 A 
ATOM     27  C   UNL     1      -1.758   2.464  -6.746  0.00  0.00    +0.054 A 
ATOM     28  O   UNL     1      -2.574   3.064  -9.041  0.00  0.00    -0.453 OA
ATOM     29  C   UNL     1      -3.651   2.474  -9.793  0.00  0.00    +0.466 C 
ATOM     30  O   UNL     1      -3.583   1.078  -9.450  0.00  0.00    -0.453 OA
ENDBRANCH  21  22
ENDBRANCH  17  21
ENDBRANCH   2  13
BRANCH   1  31
ATOM     31  N   UNL     1       2.169  -3.869  -5.726  0.00  0.00    -0.328 N 
ATOM     32  H   UNL     1       2.753  -3.045  -6.161  0.00  0.00    +0.147 HD
BRANCH  31  33
ATOM     33  C   UNL     1       1.905  -5.075  -6.516  0.00  0.00    +0.103 C 
BRANCH  33  34
ATOM     34  C   UNL     1       2.546  -4.931  -7.897  0.00  0.00    +0.019 C 
BRANCH  34  35
ATOM     35  C   UNL     1       2.270  -6.191  -8.721  0.00  0.00    +0.001 C 
BRANCH  35  37
ATOM     36  C   UNL     1       2.636  -7.306 -10.927  0.00  0.00    +0.004 C 
ATOM     37  C   UNL     1       2.912  -6.047 -10.103  0.00  0.00    -0.003 C 
ENDBRANCH  35  37
ENDBRANCH  34  35
ENDBRANCH  33  34
ENDBRANCH  31  33
ENDBRANCH   1  31
TORSDOF 8
