REMARK  Name = ZINC14271552
REMARK  10 active torsions:
REMARK  status: ('A' for Active; 'I' for Inactive)
REMARK    1  A    between atoms: C_1  and  C_2
REMARK    2  A    between atoms: C_5  and  C_9
REMARK    3  A    between atoms: N_11  and  C_12
REMARK    4  A    between atoms: C_12  and  N_14
REMARK    5  A    between atoms: N_14  and  C_15
REMARK    6  A    between atoms: C_16  and  C_29
REMARK    7  A    between atoms: C_21  and  C_25
REMARK    8  A    between atoms: C_25  and  C_26
REMARK    9  A    between atoms: C_25  and  C_27
REMARK   10  A    between atoms: C_25  and  C_28
REMARK                            x       y       z     vdW  Elec       q    Type
REMARK                         _______ _______ _______ _____ _____    ______ ____
ROOT
ATOM      1  C   UNL     1      -1.137  -2.079   0.002  0.00  0.00    +0.084 A 
ATOM      2  C   UNL     1      -2.213  -2.957   0.007  0.00  0.00    +0.068 A 
ATOM      3  C   UNL     1      -1.919  -4.380  -0.004  0.00  0.00    -0.023 A 
ATOM      4  C   UNL     1      -0.606  -4.695  -0.018  0.00  0.00    -0.004 A 
ATOM      5  S   UNL     1       0.235  -3.137  -0.025  0.00  0.00    -0.077 S 
ATOM      6  C   UNL     1      -0.007  -6.068  -0.031  0.00  0.00    +0.046 C 
ATOM      7  C   UNL     1      -1.100  -7.076   0.352  0.00  0.00    -0.000 C 
ATOM      8  C   UNL     1      -2.357  -6.778  -0.471  0.00  0.00    +0.009 C 
ATOM      9  C   UNL     1      -2.987  -5.466  -0.000  0.00  0.00    +0.037 C 
ENDROOT
BRANCH   2  10
ATOM     10  C   UNL     1      -3.594  -2.466   0.024  0.00  0.00    +0.244 C 
ATOM     11  O   UNL     1      -4.178  -2.256  -1.023  0.00  0.00    -0.270 OA
ATOM     12  N   UNL     1      -4.217  -2.247   1.199  0.00  0.00    -0.325 N 
ATOM     13  H   UNL     1      -3.751  -2.414   2.033  0.00  0.00    +0.145 HD
ATOM     14  H   UNL     1      -5.131  -1.922   1.210  0.00  0.00    +0.145 HD
ENDBRANCH   2  10
BRANCH   7  15
ATOM     15  C   UNL     1      -0.616  -8.496   0.052  0.00  0.00    -0.035 C 
ATOM     16  C   UNL     1      -0.289  -8.620  -1.437  0.00  0.00    +0.011 C 
ATOM     17  C   UNL     1       0.639  -8.792   0.876  0.00  0.00    +0.011 C 
ATOM     18  C   UNL     1      -1.714  -9.497   0.419  0.00  0.00    +0.011 C 
ENDBRANCH   7  15
BRANCH   1  19
ATOM     19  N   UNL     1      -1.156  -0.694   0.009  0.00  0.00    -0.291 N 
ATOM     20  H   UNL     1      -2.002  -0.220   0.020  0.00  0.00    +0.154 HD
BRANCH  19  21
ATOM     21  C   UNL     1       0.002  -0.004   0.002  0.00  0.00    +0.141 C 
ATOM     22  S   UNL     1       1.496  -0.840  -0.017  0.00  0.00    -0.018 S 
BRANCH  21  25
ATOM     23  C   UNL     1       1.142   2.033   0.002  0.00  0.00    +0.251 C 
ATOM     24  O   UNL     1       2.202   1.440  -0.011  0.00  0.00    -0.270 OA
ATOM     25  N   UNL     1      -0.016   1.344   0.009  0.00  0.00    -0.264 N 
ATOM     26  H   UNL     1      -0.863   1.817   0.016  0.00  0.00    +0.157 HD
BRANCH  23  31
ATOM     27  C   UNL     1       1.062   7.787   0.034  0.00  0.00    +0.044 C 
ATOM     28  C   UNL     1       1.084   6.280   0.025  0.00  0.00    -0.049 A 
ATOM     29  C   UNL     1      -0.107   5.574   0.033  0.00  0.00    +0.004 A 
ATOM     30  C   UNL     1      -0.095   4.195   0.020  0.00  0.00    +0.015 A 
ATOM     31  C   UNL     1       1.122   3.510   0.010  0.00  0.00    +0.055 A 
ATOM     32  C   UNL     1       2.320   4.228   0.003  0.00  0.00    +0.053 A 
ATOM     33  C   UNL     1       2.293   5.610   0.010  0.00  0.00    +0.024 A 
ATOM     34 CL   UNL     1       3.839   3.388  -0.017  0.00  0.00    -0.083 Cl
ENDBRANCH  23  31
ENDBRANCH  21  25
ENDBRANCH  19  21
ENDBRANCH   1  19
TORSDOF 6
