REMARK  Name = ZINC19973230
REMARK  10 active torsions:
REMARK  status: ('A' for Active; 'I' for Inactive)
REMARK    1  A    between atoms: C_1  and  C_2
REMARK    2  A    between atoms: C_6  and  C_15
REMARK    3  A    between atoms: C_13  and  C_14
REMARK    4  A    between atoms: C_15  and  C_17
REMARK    5  A    between atoms: C_15  and  N_28
REMARK    6  A    between atoms: N_21  and  C_22
REMARK    7  A    between atoms: N_28  and  C_29
REMARK    8  A    between atoms: N_28  and  C_36
REMARK    9  A    between atoms: C_29  and  C_30
REMARK   10  A    between atoms: C_36  and  C_37
REMARK                            x       y       z     vdW  Elec       q    Type
REMARK                         _______ _______ _______ _____ _____    ______ ____
ROOT
ATOM      1  C   UNL     1       0.626  -0.254   0.256  0.00  0.00    +0.163 C 
ENDROOT
BRANCH   1   7
ATOM      2  C   UNL     1       7.375   2.904  -0.042  0.00  0.00    +0.044 C 
ATOM      3  C   UNL     1       6.210   2.228  -0.716  0.00  0.00    -0.047 A 
ATOM      4  C   UNL     1       5.127   1.846   0.024  0.00  0.00    +0.013 A 
ATOM      5  C   UNL     1       4.045   1.219  -0.602  0.00  0.00    -0.001 A 
ATOM      6  C   UNL     1       2.869   0.797   0.161  0.00  0.00    +0.021 A 
ATOM      7  C   UNL     1       1.851   0.193  -0.500  0.00  0.00    +0.042 A 
ATOM      8  C   UNL     1       1.936  -0.024  -1.892  0.00  0.00    +0.254 A 
ATOM      9  O   UNL     1       1.011  -0.573  -2.465  0.00  0.00    -0.268 OA
ATOM     10  N   UNL     1       3.010   0.364  -2.602  0.00  0.00    -0.322 N 
ATOM     11  H   UNL     1       3.044   0.188  -3.687  0.00  0.00    +0.169 HD
ATOM     12  C   UNL     1       4.079   0.983  -1.990  0.00  0.00    +0.049 A 
ATOM     13  C   UNL     1       5.192   1.380  -2.723  0.00  0.00    +0.030 A 
ATOM     14  C   UNL     1       6.246   1.998  -2.085  0.00  0.00    -0.046 A 
ATOM     15  C   UNL     1       7.451   2.428  -2.881  0.00  0.00    +0.044 C 
ENDBRANCH   1   7
BRANCH   1  16
ATOM     16  C   UNL     1       0.548  -1.759   0.242  0.00  0.00    +0.173 A 
ATOM     17  N   UNL     1       0.487  -2.530  -0.816  0.00  0.00    -0.111 NA
ATOM     18  N   UNL     1       0.435  -3.753  -0.414  0.00  0.00    -0.023 NA
ATOM     19  N   UNL     1       0.453  -3.782   0.873  0.00  0.00    -0.044 NA
ATOM     20  N   UNL     1       0.523  -2.572   1.315  0.00  0.00    -0.224 N 
BRANCH  20  21
ATOM     21  C   UNL     1       0.566  -2.160   2.720  0.00  0.00    +0.111 C 
ATOM     22  C   UNL     1       1.866  -2.655   3.357  0.00  0.00    +0.027 C 
ATOM     23  C   UNL     1       1.912  -2.225   4.824  0.00  0.00    +0.002 C 
ATOM     24  C   UNL     1       0.718  -2.826   5.569  0.00  0.00    +0.000 C 
ATOM     25  C   UNL     1      -0.582  -2.330   4.933  0.00  0.00    +0.002 C 
ATOM     26  C   UNL     1      -0.628  -2.761   3.465  0.00  0.00    +0.027 C 
ENDBRANCH  20  21
ENDBRANCH   1  16
BRANCH   1  27
ATOM     27  N   UNL     1      -0.574   0.304  -0.383  0.00  0.00    -0.280 NA
BRANCH  27  28
ATOM     28  C   UNL     1      -1.790  -0.347   0.122  0.00  0.00    +0.121 C 
BRANCH  28  29
ATOM     29  C   UNL     1      -2.001  -1.651  -0.605  0.00  0.00    -0.033 A 
ATOM     30  C   UNL     1      -2.205  -1.654  -1.972  0.00  0.00    +0.005 A 
ATOM     31  C   UNL     1      -2.393  -2.850  -2.640  0.00  0.00    +0.000 A 
ATOM     32  C   UNL     1      -2.388  -4.041  -1.939  0.00  0.00    +0.000 A 
ATOM     33  C   UNL     1      -2.189  -4.037  -0.571  0.00  0.00    +0.000 A 
ATOM     34  C   UNL     1      -1.995  -2.842   0.096  0.00  0.00    +0.005 A 
ENDBRANCH  28  29
ENDBRANCH  27  28
BRANCH  27  35
ATOM     35  C   UNL     1      -0.641   1.760  -0.197  0.00  0.00    +0.122 C 
BRANCH  35  36
ATOM     36  C   UNL     1       0.230   2.437  -1.223  0.00  0.00    -0.015 A 
ATOM     37  C   UNL     1       1.523   2.823  -0.902  0.00  0.00    +0.008 A 
ATOM     38  C   UNL     1       2.290   3.439  -1.879  0.00  0.00    +0.020 A 
ATOM     39  C   UNL     1       1.741   3.655  -3.129  0.00  0.00    +0.111 A 
ATOM     40  N   UNL     1       0.506   3.280  -3.398  0.00  0.00    -0.263 NA
ATOM     41  C   UNL     1      -0.251   2.687  -2.494  0.00  0.00    +0.115 A 
ENDBRANCH  35  36
ENDBRANCH  27  35
ENDBRANCH   1  27
TORSDOF 8
