REMARK  Name = ZINC17879101
REMARK  4 active torsions:
REMARK  status: ('A' for Active; 'I' for Inactive)
REMARK    1  A    between atoms: C_1  and  C_2
REMARK    2  A    between atoms: C_3  and  C_21
REMARK    3  A    between atoms: C_7  and  C_14
REMARK    4  A    between atoms: C_8  and  C_13
REMARK                            x       y       z     vdW  Elec       q    Type
REMARK                         _______ _______ _______ _____ _____    ______ ____
ROOT
ATOM      1  C   UNL     1      -0.018   1.503   0.010  0.00  0.00    +0.051 C 
ATOM      2  C   UNL     1       0.002  -0.004   0.002  0.00  0.00    +0.035 A 
ATOM      3  C   UNL     1      -1.159  -0.698   0.004  0.00  0.00    +0.023 A 
ATOM      4  N   UNL     1      -1.137  -2.061  -0.004  0.00  0.00    -0.343 N 
ATOM      5  H   UNL     1      -1.969  -2.558  -0.003  0.00  0.00    +0.167 HD
ATOM      6  C   UNL     1       0.067  -2.733  -0.014  0.00  0.00    +0.146 A 
ATOM      7  C   UNL     1       0.385  -4.080  -0.024  0.00  0.00    +0.047 A 
ATOM      8  C   UNL     1       1.788  -4.178  -0.032  0.00  0.00    +0.070 A 
ATOM      9  N   UNL     1       2.290  -2.972  -0.027  0.00  0.00    -0.166 NA
ATOM     10  N   UNL     1       1.243  -2.042  -0.016  0.00  0.00    -0.179 N 
ATOM     11  C   UNL     1       1.231  -0.694  -0.013  0.00  0.00    +0.278 A 
ATOM     12  O   UNL     1       2.280  -0.074  -0.020  0.00  0.00    -0.265 OA
ATOM     13  C   UNL     1       2.580  -5.461  -0.043  0.00  0.00    +0.068 C 
ATOM     14  C   UNL     1      -2.476   0.035   0.015  0.00  0.00    +0.064 C 
ENDROOT
BRANCH   7  15
ATOM     15  C   UNL     1      -0.576  -5.210  -0.025  0.00  0.00    -0.013 A 
ATOM     16  C   UNL     1      -1.415  -5.416   1.068  0.00  0.00    +0.010 A 
ATOM     17  C   UNL     1      -2.307  -6.469   1.061  0.00  0.00    +0.016 A 
ATOM     18  C   UNL     1      -2.369  -7.320  -0.029  0.00  0.00    +0.018 A 
ATOM     19  C   UNL     1      -1.538  -7.120  -1.117  0.00  0.00    +0.016 A 
ATOM     20  C   UNL     1      -0.646  -6.067  -1.123  0.00  0.00    +0.010 A 
ATOM     21 BR   UNL     1      -3.594  -8.760  -0.031  0.00  0.00    -0.050 Br
ENDBRANCH   7  15
TORSDOF 1
