REMARK  Name = ZINC03798064
REMARK  4 active torsions:
REMARK  status: ('A' for Active; 'I' for Inactive)
REMARK    1  A    between atoms: N_9  and  C1*_10
REMARK    2  A    between atoms: C3*_13  and  O3*_20
REMARK    3  A    between atoms: C4*_15  and  C5*_18
REMARK    4  A    between atoms: C5*_18  and  O5*_19
REMARK                            x       y       z     vdW  Elec       q    Type
REMARK                         _______ _______ _______ _____ _____    ______ ____
ROOT
ATOM      1  C   UNL     1      -0.016   1.359   0.009  0.00  0.00    +0.203 A 
ATOM      2  N   UNL     1       1.200   1.820   0.000  0.00  0.00    -0.231 NA
ATOM      3  C   UNL     1       2.075   0.785  -0.013  0.00  0.00    +0.147 A 
ATOM      4  C   UNL     1       3.476   0.675  -0.028  0.00  0.00    +0.149 A 
ATOM      5  N   UNL     1       4.016  -0.538  -0.040  0.00  0.00    -0.201 NA
ATOM      6  C   UNL     1       3.261  -1.624  -0.039  0.00  0.00    +0.226 A 
ATOM      7  N   UNL     1       1.945  -1.569  -0.026  0.00  0.00    -0.198 NA
ATOM      8  C   UNL     1       1.316  -0.397  -0.013  0.00  0.00    +0.169 A 
ATOM      9  N   UNL     1       0.002  -0.004   0.002  0.00  0.00    -0.288 N 
ATOM     10 CL   UNL     1       4.033  -3.179  -0.055  0.00  0.00    -0.041 Cl
ATOM     11  N   UNL     1       4.274   1.806  -0.030  0.00  0.00    -0.341 N 
ATOM     12  H   UNL     1       3.868   2.686  -0.021  0.00  0.00    +0.144 HD
ATOM     13  H   UNL     1       5.240   1.717  -0.040  0.00  0.00    +0.144 HD
ENDROOT
BRANCH   9  14
ATOM     14  C1* UNL     1      -1.167  -0.887   0.008  0.00  0.00    +0.225 C 
ATOM     15  C2* UNL     1      -1.530  -1.288   1.455  0.00  0.00    +0.088 C 
ATOM     16  C3* UNL     1      -3.075  -1.316   1.461  0.00  0.00    +0.150 C 
ATOM     17  C4* UNL     1      -3.462  -0.929   0.016  0.00  0.00    +0.175 C 
ATOM     18  O4* UNL     1      -2.329  -0.186  -0.485  0.00  0.00    -0.348 OA
BRANCH  16  19
ATOM     19  O3* UNL     1      -3.551  -2.627   1.775  0.00  0.00    -0.389 OA
ATOM     20  H3* UNL     1      -3.284  -2.942   2.650  0.00  0.00    +0.210 HD
ENDBRANCH  16  19
BRANCH  17  21
ATOM     21  C5* UNL     1      -4.718  -0.055   0.018  0.00  0.00    +0.190 C 
BRANCH  21  22
ATOM     22  O5* UNL     1      -5.126   0.195  -1.329  0.00  0.00    -0.392 OA
ATOM     23  H5* UNL     1      -5.918   0.744  -1.405  0.00  0.00    +0.210 HD
ENDBRANCH  21  22
ENDBRANCH  17  21
ENDBRANCH   9  14
TORSDOF 4
