REMARK  Name = ZINC39987340
REMARK  11 active torsions:
REMARK  status: ('A' for Active; 'I' for Inactive)
REMARK    1  A    between atoms: C_1  and  C_2
REMARK    2  A    between atoms: C_2  and  C_4
REMARK    3  A    between atoms: C_2  and  O_29
REMARK    4  A    between atoms: N_6  and  N_7
REMARK    5  A    between atoms: N_15  and  C_18
REMARK    6  A    between atoms: C_18  and  C_19
REMARK    7  A    between atoms: C_19  and  O_20
REMARK    8  A    between atoms: O_20  and  C_21
REMARK    9  A    between atoms: C_24  and  O_27
REMARK   10  A    between atoms: O_27  and  C_28
REMARK   11  A    between atoms: O_29  and  C_30
REMARK                            x       y       z     vdW  Elec       q    Type
REMARK                         _______ _______ _______ _____ _____    ______ ____
ROOT
ATOM      1  N   UNL     1      -3.674  -0.347  -0.761  0.00  0.00    -0.174 NA
ATOM      2  C   UNL     1      -4.491  -0.096  -1.755  0.00  0.00    +0.153 C 
ATOM      3  C   UNL     1      -5.954  -0.324  -1.800  0.00  0.00    +0.028 A 
ATOM      4  C   UNL     1      -6.867  -0.836  -0.885  0.00  0.00    +0.012 A 
ATOM      5  C   UNL     1      -8.201  -0.927  -1.226  0.00  0.00    +0.001 A 
ATOM      6  C   UNL     1      -8.628  -0.510  -2.476  0.00  0.00    +0.002 A 
ATOM      7  C   UNL     1      -7.729  -0.001  -3.392  0.00  0.00    +0.024 A 
ATOM      8  C   UNL     1      -6.381   0.099  -3.066  0.00  0.00    +0.046 A 
ATOM      9  N   UNL     1      -5.288   0.565  -3.788  0.00  0.00    -0.262 N 
ATOM     10  C   UNL     1      -4.154   0.483  -3.072  0.00  0.00    +0.271 C 
ATOM     11  O   UNL     1      -3.046   0.821  -3.443  0.00  0.00    -0.268 OA
ENDROOT
BRANCH   1  14
ATOM     12  C   UNL     1      -1.469  -0.319   0.136  0.00  0.00    +0.273 C 
ATOM     13  O   UNL     1      -1.895  -0.799   1.164  0.00  0.00    -0.270 OA
ATOM     14  N   UNL     1      -2.308  -0.061  -0.887  0.00  0.00    -0.203 N 
ATOM     15  H   UNL     1      -1.967   0.323  -1.710  0.00  0.00    +0.177 HD
BRANCH  12  17
ATOM     16  C   UNL     1       0.194   1.500  -0.138  0.00  0.00    +0.062 C 
ATOM     17  C   UNL     1       0.000  -0.012   0.000  0.00  0.00    +0.257 C 
BRANCH  17  18
ATOM     18  O   UNL     1       0.693  -0.477   1.160  0.00  0.00    -0.480 OA
BRANCH  18  19
ATOM     19  C   UNL     1       2.014  -0.764   1.016  0.00  0.00    +0.122 A 
ATOM     20  C   UNL     1       2.720  -1.330   2.067  0.00  0.00    +0.047 A 
ATOM     21  C   UNL     1       4.063  -1.621   1.918  0.00  0.00    +0.023 A 
ATOM     22  C   UNL     1       4.703  -1.347   0.723  0.00  0.00    +0.041 A 
ATOM     23  C   UNL     1       4.000  -0.781  -0.327  0.00  0.00    +0.023 A 
ATOM     24  C   UNL     1       2.656  -0.496  -0.184  0.00  0.00    +0.047 A 
ATOM     25 CL   UNL     1       6.390  -1.712   0.539  0.00  0.00    -0.084 Cl
ENDBRANCH  18  19
ENDBRANCH  17  18
ENDBRANCH  12  17
ENDBRANCH   1  14
BRANCH   9  26
ATOM     26  C   UNL     1      -5.364   1.086  -5.155  0.00  0.00    +0.155 C 
BRANCH  26  27
ATOM     27  C   UNL     1      -5.614   2.595  -5.112  0.00  0.00    +0.248 C 
BRANCH  27  28
ATOM     28  O   UNL     1      -4.489   3.248  -4.521  0.00  0.00    -0.490 OA
BRANCH  28  29
ATOM     29  C   UNL     1      -4.550   4.601  -4.407  0.00  0.00    +0.121 A 
ATOM     30  C   UNL     1      -5.672   5.285  -4.850  0.00  0.00    +0.049 A 
ATOM     31  C   UNL     1      -5.734   6.660  -4.734  0.00  0.00    +0.049 A 
ATOM     32  C   UNL     1      -4.674   7.357  -4.174  0.00  0.00    +0.120 A 
ATOM     33  C   UNL     1      -3.552   6.673  -3.730  0.00  0.00    +0.049 A 
ATOM     34  C   UNL     1      -3.492   5.298  -3.842  0.00  0.00    +0.049 A 
BRANCH  32  35
ATOM     35  O   UNL     1      -4.735   8.711  -4.060  0.00  0.00    -0.495 OA
ATOM     36  C   UNL     1      -3.607   9.364  -3.474  0.00  0.00    +0.277 C 
ENDBRANCH  32  35
ENDBRANCH  28  29
ENDBRANCH  27  28
ENDBRANCH  26  27
ENDBRANCH   9  26
TORSDOF 9
