REMARK  Name = ZINC00342326
REMARK  5 active torsions:
REMARK  status: ('A' for Active; 'I' for Inactive)
REMARK    1  A    between atoms: C_4  and  C_7
REMARK    2  A    between atoms: C_9  and  C_20
REMARK    3  A    between atoms: C_11  and  C_13
REMARK    4  A    between atoms: C_17  and  N_19
REMARK    5  A    between atoms: C_24  and  N_26
REMARK                            x       y       z     vdW  Elec       q    Type
REMARK                         _______ _______ _______ _____ _____    ______ ____
ROOT
ATOM      1  C   UNL     1       1.043   7.352   0.033  0.00  0.00    +0.161 A 
ATOM      2  N   UNL     1      -0.090   8.038   0.048  0.00  0.00    -0.227 NA
ATOM      3  C   UNL     1      -1.266   7.414   0.055  0.00  0.00    +0.075 A 
ATOM      4  C   UNL     1      -1.293   6.018   0.041  0.00  0.00    +0.056 A 
ATOM      5  C   UNL     1      -0.078   5.332   0.032  0.00  0.00    +0.075 A 
ATOM      6  N   UNL     1       1.057   6.027   0.025  0.00  0.00    -0.227 NA
ENDROOT
BRANCH   1  10
ATOM      7  C   UNL     1       4.736   9.460   0.011  0.00  0.00    +0.000 A 
ATOM      8  C   UNL     1       3.543  10.160   0.027  0.00  0.00    +0.001 A 
ATOM      9  C   UNL     1       2.341   9.481   0.034  0.00  0.00    +0.011 A 
ATOM     10  C   UNL     1       2.331   8.087   0.026  0.00  0.00    +0.019 A 
ATOM     11  C   UNL     1       3.536   7.387   0.017  0.00  0.00    +0.011 A 
ATOM     12  C   UNL     1       4.732   8.076   0.003  0.00  0.00    +0.001 A 
ENDBRANCH   1  10
BRANCH   5  13
ATOM     13  C   UNL     1      -0.052   3.849   0.023  0.00  0.00    +0.002 A 
ATOM     14  C   UNL     1      -1.246   3.129   0.031  0.00  0.00    +0.010 A 
ATOM     15  C   UNL     1      -1.220   1.749   0.017  0.00  0.00    +0.002 A 
ATOM     16  C   UNL     1      -0.013   1.076   0.008  0.00  0.00    +0.023 A 
ATOM     17  C   UNL     1       1.182   1.785   0.000  0.00  0.00    +0.025 A 
ATOM     18  C   UNL     1       1.165   3.172   0.008  0.00  0.00    +0.032 A 
BRANCH  17  19
ATOM     19  N   UNL     1       2.401   1.102  -0.015  0.00  0.00    -0.358 N 
ATOM     20  H   UNL     1       2.413   0.132  -0.019  0.00  0.00    +0.142 HD
ATOM     21  H   UNL     1       3.235   1.597  -0.020  0.00  0.00    +0.142 HD
ENDBRANCH  17  19
ENDBRANCH   5  13
BRANCH   3  22
ATOM     22  C   UNL     1      -2.530   8.190   0.071  0.00  0.00    +0.002 A 
ATOM     23  C   UNL     1      -3.757   7.529   0.073  0.00  0.00    +0.010 A 
ATOM     24  C   UNL     1      -4.932   8.252   0.093  0.00  0.00    +0.002 A 
ATOM     25  C   UNL     1      -4.897   9.634   0.101  0.00  0.00    +0.023 A 
ATOM     26  C   UNL     1      -3.679  10.303   0.094  0.00  0.00    +0.025 A 
ATOM     27  C   UNL     1      -2.494   9.582   0.079  0.00  0.00    +0.032 A 
BRANCH  26  28
ATOM     28  N   UNL     1      -3.648  11.699   0.101  0.00  0.00    -0.358 N 
ATOM     29  H   UNL     1      -2.797  12.165   0.096  0.00  0.00    +0.142 HD
ATOM     30  H   UNL     1      -4.477  12.203   0.111  0.00  0.00    +0.142 HD
ENDBRANCH  26  28
ENDBRANCH   3  22
TORSDOF 5
