REMARK  Name = ZINC34912790
REMARK  7 active torsions:
REMARK  status: ('A' for Active; 'I' for Inactive)
REMARK    1  A    between atoms: C_1  and  C_2
REMARK    2  A    between atoms: C_7  and  C_18
REMARK    3  A    between atoms: C_8  and  N_11
REMARK    4  A    between atoms: C_12  and  C_14
REMARK    5  A    between atoms: C_14  and  C_16
REMARK    6  A    between atoms: C_21  and  O_24
REMARK    7  A    between atoms: O_24  and  C_25
REMARK                            x       y       z     vdW  Elec       q    Type
REMARK                         _______ _______ _______ _____ _____    ______ ____
ROOT
ATOM      1  C   UNL     1      -2.578   0.745   0.177  0.00  0.00    +0.045 C 
ATOM      2  C   UNL     1      -1.774  -0.529   0.118  0.00  0.00    -0.034 A 
ATOM      3  C   UNL     1      -1.542  -1.152  -1.121  0.00  0.00    +0.008 A 
ATOM      4  C   UNL     1      -0.817  -2.301  -1.173  0.00  0.00    +0.047 A 
ATOM      5  C   UNL     1      -0.307  -2.853   0.021  0.00  0.00    +0.140 A 
ATOM      6  N   UNL     1       0.416  -3.937   0.256  0.00  0.00    -0.226 NA
ATOM      7  C   UNL     1       0.653  -4.034   1.575  0.00  0.00    +0.112 A 
ATOM      8  C   UNL     1       0.052  -2.961   2.198  0.00  0.00    +0.137 A 
ATOM      9  N   UNL     1      -0.550  -2.221   1.217  0.00  0.00    -0.287 N 
ATOM     10  C   UNL     1      -1.277  -1.063   1.252  0.00  0.00    +0.097 A 
ENDROOT
BRANCH   7  11
ATOM     11  C   UNL     1       1.426  -5.108   2.244  0.00  0.00    +0.004 A 
ATOM     12  C   UNL     1       2.207  -4.815   3.361  0.00  0.00    +0.014 A 
ATOM     13  C   UNL     1       2.924  -5.816   3.981  0.00  0.00    +0.046 A 
ATOM     14  C   UNL     1       2.869  -7.115   3.494  0.00  0.00    +0.120 A 
ATOM     15  C   UNL     1       2.092  -7.411   2.383  0.00  0.00    +0.046 A 
ATOM     16  C   UNL     1       1.368  -6.415   1.761  0.00  0.00    +0.014 A 
BRANCH  14  17
ATOM     17  O   UNL     1       3.578  -8.100   4.107  0.00  0.00    -0.495 OA
ATOM     18  C   UNL     1       3.475  -9.413   3.554  0.00  0.00    +0.277 C 
ENDBRANCH  14  17
ENDBRANCH   7  11
BRANCH   8  19
ATOM     19  N   UNL     1       0.056  -2.682   3.566  0.00  0.00    -0.268 N 
ATOM     20  C   UNL     1       0.713  -1.602   4.032  0.00  0.00    +0.236 C 
ATOM     21  O   UNL     1       1.225  -0.822   3.256  0.00  0.00    -0.274 OA
ATOM     22  H   UNL     1      -0.413  -3.267   4.182  0.00  0.00    +0.156 HD
BRANCH  20  23
ATOM     23  C   UNL     1       0.811  -1.361   5.517  0.00  0.00    +0.163 C 
ATOM     24  C   UNL     1       0.514   0.109   5.816  0.00  0.00    +0.034 C 
ATOM     25 CL   UNL     1       2.474  -1.766   6.082  0.00  0.00    -0.112 Cl
ENDBRANCH  20  23
ENDBRANCH   8  19
TORSDOF 4
