REMARK  Name = ZINC39054925
REMARK  3 active torsions:
REMARK  status: ('A' for Active; 'I' for Inactive)
REMARK    1  A    between atoms: C_1  and  C_2
REMARK    2  A    between atoms: C_2  and  C_5
REMARK    3  A    between atoms: C_5  and  C_7
REMARK                            x       y       z     vdW  Elec       q    Type
REMARK                         _______ _______ _______ _____ _____    ______ ____
ROOT
ATOM      1  C   UNL     1      -0.019   1.526   0.010  0.00  0.00    +0.019 C 
ATOM      2  C   UNL     1       0.002  -0.004   0.002  0.00  0.00    +0.027 C 
ATOM      3  C   UNL     1      -0.825  -0.728   1.066  0.00  0.00    +0.015 C 
ATOM      4  C   UNL     1       0.701  -0.708   1.167  0.00  0.00    +0.015 C 
ENDROOT
BRANCH   2   5
ATOM      5  C   UNL     1       0.101  -0.645  -1.358  0.00  0.00    +0.149 C 
ATOM      6  O   UNL     1       0.716  -1.675  -1.497  0.00  0.00    -0.296 OA
BRANCH   5   7
ATOM      7  C   UNL     1      -0.569  -0.001  -2.545  0.00  0.00    +0.154 C 
ATOM      8 BR   UNL     1      -0.245  -1.089  -4.150  0.00  0.00    -0.084 Br
ENDBRANCH   5   7
ENDBRANCH   2   5
TORSDOF 2
