REMARK  Name = ZINC01341867
REMARK  10 active torsions:
REMARK  status: ('A' for Active; 'I' for Inactive)
REMARK    1  A    between atoms: C_1  and  C_2
REMARK    2  A    between atoms: C_5  and  C_8
REMARK    3  A    between atoms: C_8  and  C_10
REMARK    4  A    between atoms: C_8  and  N_20
REMARK    5  A    between atoms: N_12  and  C_13
REMARK    6  A    between atoms: C_13  and  C_14
REMARK    7  A    between atoms: N_20  and  C_21
REMARK    8  A    between atoms: C_21  and  C_22
REMARK    9  A    between atoms: C_31  and  C_33
REMARK   10  A    between atoms: C_33  and  N_34
REMARK                            x       y       z     vdW  Elec       q    Type
REMARK                         _______ _______ _______ _____ _____    ______ ____
ROOT
ATOM      1  N   UNL     1       0.522  -5.427   0.756  0.00  0.00    -0.280 N 
ATOM      2  C   UNL     1       1.260  -6.188  -0.077  0.00  0.00    +0.238 C 
ATOM      3  O   UNL     1       1.515  -5.793  -1.194  0.00  0.00    -0.274 OA
ENDROOT
BRANCH   1   4
ATOM      4  C   UNL     1      -0.016  -4.145   0.293  0.00  0.00    +0.193 C 
BRANCH   4   9
ATOM      5  C   UNL     1       4.342  -0.527  -0.852  0.00  0.00    +0.044 C 
ATOM      6  C   UNL     1       3.206  -1.471  -0.553  0.00  0.00    -0.050 A 
ATOM      7  C   UNL     1       2.160  -1.598  -1.448  0.00  0.00    +0.004 A 
ATOM      8  C   UNL     1       1.117  -2.463  -1.174  0.00  0.00    +0.006 A 
ATOM      9  C   UNL     1       1.121  -3.203  -0.006  0.00  0.00    -0.018 A 
ATOM     10  C   UNL     1       2.168  -3.076   0.888  0.00  0.00    +0.006 A 
ATOM     11  C   UNL     1       3.213  -2.214   0.612  0.00  0.00    +0.004 A 
ENDBRANCH   4   9
BRANCH   4  12
ATOM     12  C   UNL     1      -0.892  -3.551   1.366  0.00  0.00    +0.238 C 
ATOM     13  O   UNL     1      -0.583  -3.666   2.533  0.00  0.00    -0.273 OA
ATOM     14  N   UNL     1      -2.018  -2.893   1.028  0.00  0.00    -0.311 N 
ATOM     15  H   UNL     1      -2.266  -2.802   0.095  0.00  0.00    +0.149 HD
BRANCH  14  16
ATOM     16  C   UNL     1      -2.870  -2.316   2.071  0.00  0.00    +0.135 C 
BRANCH  16  17
ATOM     17  C   UNL     1      -4.075  -1.630   1.424  0.00  0.00    +0.135 C 
ATOM     18  C   UNL     1      -4.914  -0.916   2.505  0.00  0.00    +0.035 C 
ATOM     19  C   UNL     1      -6.367  -1.194   2.032  0.00  0.00    +0.031 C 
ATOM     20  C   UNL     1      -6.211  -2.609   1.420  0.00  0.00    +0.160 C 
ATOM     21  O   UNL     1      -4.914  -2.609   0.799  0.00  0.00    -0.375 OA
ENDBRANCH  16  17
ENDBRANCH  14  16
ENDBRANCH   4  12
ENDBRANCH   1   4
BRANCH   1  22
ATOM     22  C   UNL     1       0.257  -5.882   2.123  0.00  0.00    +0.144 C 
BRANCH  22  23
ATOM     23  C   UNL     1      -1.143  -6.431   2.208  0.00  0.00    -0.026 A 
ATOM     24  C   UNL     1      -2.220  -5.567   2.278  0.00  0.00    +0.009 A 
ATOM     25  C   UNL     1      -3.507  -6.066   2.356  0.00  0.00    +0.050 A 
ATOM     26  C   UNL     1      -3.720  -7.435   2.363  0.00  0.00    +0.166 A 
ATOM     27  C   UNL     1      -2.636  -8.306   2.291  0.00  0.00    +0.167 A 
ATOM     28  C   UNL     1      -1.349  -7.798   2.208  0.00  0.00    +0.054 A 
ATOM     29  O   UNL     1      -3.103  -9.588   2.315  0.00  0.00    -0.453 OA
ATOM     30  C   UNL     1      -4.452  -9.497   2.812  0.00  0.00    +0.466 C 
ATOM     31  O   UNL     1      -4.867  -8.172   2.431  0.00  0.00    -0.453 OA
ENDBRANCH  22  23
ENDBRANCH   1  22
BRANCH   2  32
ATOM     32  C   UNL     1       1.767  -7.531   0.381  0.00  0.00    +0.241 C 
BRANCH  32  33
ATOM     33  N   UNL     1       2.657  -8.091  -0.639  0.00  0.00    -0.235 N 
ATOM     34  C   UNL     1       2.295  -8.890  -1.697  0.00  0.00    +0.090 A 
ATOM     35  C   UNL     1       1.086  -9.410  -2.146  0.00  0.00    +0.029 A 
ATOM     36  C   UNL     1       1.057 -10.196  -3.264  0.00  0.00    +0.002 A 
ATOM     37  C   UNL     1       2.227 -10.480  -3.958  0.00  0.00    +0.002 A 
ATOM     38  C   UNL     1       3.425  -9.982  -3.538  0.00  0.00    +0.032 A 
ATOM     39  C   UNL     1       3.482  -9.174  -2.395  0.00  0.00    +0.113 A 
ATOM     40  N   UNL     1       4.492  -8.554  -1.753  0.00  0.00    -0.129 NA
ATOM     41  N   UNL     1       4.045  -7.911  -0.733  0.00  0.00    -0.064 NA
ENDBRANCH  32  33
ENDBRANCH   2  32
TORSDOF 9
