REMARK  Name = ZINC50841152
REMARK  4 active torsions:
REMARK  status: ('A' for Active; 'I' for Inactive)
REMARK    1  A    between atoms: C_8  and  C_10
REMARK    2  A    between atoms: C_10  and  S_11
REMARK    3  A    between atoms: S_11  and  C_12
REMARK    4  A    between atoms: C_16  and  N_18
REMARK                            x       y       z     vdW  Elec       q    Type
REMARK                         _______ _______ _______ _____ _____    ______ ____
ROOT
ATOM      1  S   UNL     1       0.709  -4.770  -1.741  0.00  0.00    -0.078 S 
ENDROOT
BRANCH   1   2
ATOM      2  C   UNL     1       0.964  -6.506  -1.585  0.00  0.00    +0.192 A 
ATOM      3  N   UNL     1       1.047  -7.040  -0.375  0.00  0.00    -0.207 NA
ATOM      4  C   UNL     1       1.239  -8.348  -0.219  0.00  0.00    +0.122 A 
ATOM      5  C   UNL     1       1.353  -9.156  -1.347  0.00  0.00    +0.086 A 
ATOM      6  C   UNL     1       1.260  -8.559  -2.601  0.00  0.00    +0.122 A 
ATOM      7  N   UNL     1       1.062  -7.245  -2.680  0.00  0.00    -0.207 NA
ATOM      8  N   UNL     1       1.325  -8.898   1.051  0.00  0.00    -0.343 N 
ATOM      9  H   UNL     1       1.246  -8.329   1.832  0.00  0.00    +0.144 HD
ATOM     10  H   UNL     1       1.465  -9.852   1.157  0.00  0.00    +0.144 HD
BRANCH   6  11
ATOM     11  N   UNL     1       1.368  -9.324  -3.752  0.00  0.00    -0.343 N 
ATOM     12  H   UNL     1       1.508 -10.282  -3.686  0.00  0.00    +0.144 HD
ATOM     13  H   UNL     1       1.302  -8.902  -4.623  0.00  0.00    +0.144 HD
ENDBRANCH   6  11
ENDBRANCH   1   2
BRANCH   1  14
ATOM     14  C   UNL     1       0.638  -4.181  -0.027  0.00  0.00    +0.153 C 
BRANCH  14  22
ATOM     15  C   UNL     1      -0.018   1.449   0.010  0.00  0.00    +0.020 A 
ATOM     16  C   UNL     1       1.143   2.120   0.003  0.00  0.00    +0.048 A 
ATOM     17  S   UNL     1       2.373   0.829  -0.016  0.00  0.00    -0.077 S 
ATOM     18  C   UNL     1       1.296  -0.580  -0.013  0.00  0.00    +0.113 A 
ATOM     19  C   UNL     1       0.002  -0.004   0.002  0.00  0.00    +0.044 A 
ATOM     20  C   UNL     1      -1.072  -0.924   0.007  0.00  0.00    +0.141 A 
ATOM     21  N   UNL     1      -0.814  -2.216  -0.003  0.00  0.00    -0.219 NA
ATOM     22  C   UNL     1       0.420  -2.690  -0.017  0.00  0.00    +0.142 A 
ATOM     23  N   UNL     1       1.465  -1.884  -0.023  0.00  0.00    -0.224 NA
ATOM     24 CL   UNL     1      -2.713  -0.358   0.026  0.00  0.00    -0.061 Cl
ENDBRANCH  14  22
ENDBRANCH   1  14
TORSDOF 4
