REMARK  Name = ZINC38901496
REMARK  12 active torsions:
REMARK  status: ('A' for Active; 'I' for Inactive)
REMARK    1  A    between atoms: C_1  and  C_2
REMARK    2  A    between atoms: C_2  and  C_3
REMARK    3  A    between atoms: C_2  and  C_4
REMARK    4  A    between atoms: C_4  and  C_5
REMARK    5  A    between atoms: C_5  and  C_7
REMARK    6  A    between atoms: C_5  and  N_15
REMARK    7  A    between atoms: C_10  and  O_13
REMARK    8  A    between atoms: O_13  and  C_14
REMARK    9  A    between atoms: C_16  and  C_18
REMARK   10  A    between atoms: N_23  and  C_25
REMARK   11  A    between atoms: C_25  and  C_26
REMARK   12  A    between atoms: C_28  and  C_31
REMARK                            x       y       z     vdW  Elec       q    Type
REMARK                         _______ _______ _______ _____ _____    ______ ____
ROOT
ATOM      1  C   UNL     1      -3.708  -1.015   1.848  0.00  0.00    +0.058 C 
ATOM      2  C   UNL     1      -3.539  -2.406   1.230  0.00  0.00    +0.009 C 
ATOM      3  C   UNL     1      -4.905  -3.095   1.169  0.00  0.00    -0.018 C 
ATOM      4  C   UNL     1      -5.877  -2.221   0.374  0.00  0.00    -0.078 C 
ATOM      5  N   UNL     1      -6.015  -0.915   1.030  0.00  0.00    +0.386 N 
ATOM      6  C   UNL     1      -4.724  -0.217   1.028  0.00  0.00    -0.065 C 
ATOM      7  H   UNL     1      -6.322  -1.049   1.982  0.00  0.00    -0.081 HD
ENDROOT
BRANCH   1   9
ATOM      8  N   UNL     1      -1.330  -0.821   2.503  0.00  0.00    -0.308 N 
ATOM      9  C   UNL     1      -2.382  -0.298   1.842  0.00  0.00    +0.215 C 
ATOM     10  O   UNL     1      -2.262   0.749   1.243  0.00  0.00    -0.276 OA
ATOM     11  H   UNL     1      -1.426  -1.658   2.983  0.00  0.00    +0.149 HD
BRANCH   8  12
ATOM     12  C   UNL     1      -0.042  -0.124   2.497  0.00  0.00    +0.103 C 
BRANCH  12  13
ATOM     13  C   UNL     1       0.746  -0.514   3.721  0.00  0.00    -0.027 A 
ATOM     14  C   UNL     1       0.740  -1.826   4.157  0.00  0.00    +0.009 A 
ATOM     15  C   UNL     1       1.461  -2.186   5.279  0.00  0.00    +0.046 A 
ATOM     16  C   UNL     1       2.192  -1.230   5.968  0.00  0.00    +0.120 A 
ATOM     17  C   UNL     1       2.197   0.086   5.529  0.00  0.00    +0.046 A 
ATOM     18  C   UNL     1       1.479   0.440   4.404  0.00  0.00    +0.009 A 
BRANCH  16  19
ATOM     19  O   UNL     1       2.902  -1.582   7.073  0.00  0.00    -0.495 OA
ATOM     20  C   UNL     1       3.631  -0.545   7.733  0.00  0.00    +0.277 C 
ENDBRANCH  16  19
ENDBRANCH  12  13
BRANCH  12  21
ATOM     21  C   UNL     1       0.742  -0.511   1.242  0.00  0.00    +0.030 C 
BRANCH  21  23
ATOM     22  C   UNL     1      -0.019   1.526   0.010  0.00  0.00    +0.007 C 
ATOM     23  C   UNL     1       0.002  -0.004   0.002  0.00  0.00    -0.015 C 
ATOM     24  C   UNL     1       0.718  -0.497  -1.257  0.00  0.00    +0.007 C 
ENDBRANCH  21  23
ENDBRANCH  12  21
ENDBRANCH   8  12
ENDBRANCH   1   9
BRANCH   5  25
ATOM     25  C   UNL     1      -7.007  -0.108   0.307  0.00  0.00    +0.022 C 
BRANCH  25  26
ATOM     26  C   UNL     1      -8.362  -0.757   0.420  0.00  0.00    +0.211 A 
ATOM     27  N   UNL     1      -9.240  -0.528   1.355  0.00  0.00    -0.193 NA
ATOM     28  C   UNL     1     -10.337  -1.278   1.150  0.00  0.00    +0.202 A 
ATOM     29  N   UNL     1     -10.158  -1.997   0.069  0.00  0.00    -0.056 NA
ATOM     30  O   UNL     1      -8.869  -1.663  -0.426  0.00  0.00    -0.340 OA
BRANCH  28  31
ATOM     31  C   UNL     1     -11.550  -1.290   2.006  0.00  0.00    +0.023 A 
ATOM     32  C   UNL     1     -11.619  -0.471   3.131  0.00  0.00    +0.014 A 
ATOM     33  C   UNL     1     -12.748  -0.485   3.923  0.00  0.00    +0.039 A 
ATOM     34  C   UNL     1     -13.812  -1.312   3.602  0.00  0.00    +0.123 A 
ATOM     35  C   UNL     1     -13.748  -2.129   2.484  0.00  0.00    +0.039 A 
ATOM     36  C   UNL     1     -12.624  -2.117   1.683  0.00  0.00    +0.014 A 
ATOM     37  F   UNL     1     -14.916  -1.323   4.380  0.00  0.00    -0.205 F 
ENDBRANCH  28  31
ENDBRANCH  25  26
ENDBRANCH   5  25
TORSDOF 9
