REMARK  Name = ZINC40161550
REMARK  11 active torsions:
REMARK  status: ('A' for Active; 'I' for Inactive)
REMARK    1  A    between atoms: C_1  and  C_2
REMARK    2  A    between atoms: C_2  and  C_3
REMARK    3  A    between atoms: C_3  and  N_4
REMARK    4  A    between atoms: N_4  and  C_5
REMARK    5  A    between atoms: N_4  and  C_16
REMARK    6  A    between atoms: C_5  and  C_6
REMARK    7  A    between atoms: C_9  and  C_11
REMARK    8  A    between atoms: C_16  and  C_17
REMARK    9  A    between atoms: N_19  and  C_20
REMARK   10  A    between atoms: C_25  and  S_26
REMARK   11  A    between atoms: S_26  and  C_27
REMARK                            x       y       z     vdW  Elec       q    Type
REMARK                         _______ _______ _______ _____ _____    ______ ____
ROOT
ATOM      1  C   UNL     1       0.751  -1.990   1.075  0.00  0.00    +0.201 C 
ATOM      2  O   UNL     1       1.243  -1.472   0.094  0.00  0.00    -0.278 OA
ATOM      3  N   UNL     1       1.442  -2.033   2.231  0.00  0.00    -0.286 N 
ATOM      4  H   UNL     1       1.088  -2.523   2.990  0.00  0.00    +0.155 HD
ENDROOT
BRANCH   3   5
ATOM      5  C   UNL     1       2.672  -1.371   2.338  0.00  0.00    +0.047 A 
ATOM      6  C   UNL     1       3.014  -0.386   1.424  0.00  0.00    +0.024 A 
ATOM      7  C   UNL     1       4.228   0.266   1.531  0.00  0.00    +0.002 A 
ATOM      8  C   UNL     1       5.106  -0.061   2.548  0.00  0.00    +0.001 A 
ATOM      9  C   UNL     1       4.775  -1.041   3.464  0.00  0.00    +0.017 A 
ATOM     10  C   UNL     1       3.556  -1.697   3.368  0.00  0.00    +0.034 A 
BRANCH  10  11
ATOM     11  S   UNL     1       3.128  -2.943   4.538  0.00  0.00    -0.088 S 
BRANCH  11  12
ATOM     12  C   UNL     1       4.450  -2.907   5.702  0.00  0.00    +0.013 A 
ATOM     13  C   UNL     1       4.344  -2.135   6.852  0.00  0.00    +0.016 A 
ATOM     14  C   UNL     1       5.381  -2.109   7.763  0.00  0.00    +0.021 A 
ATOM     15  C   UNL     1       6.527  -2.850   7.530  0.00  0.00    +0.041 A 
ATOM     16  C   UNL     1       6.636  -3.619   6.385  0.00  0.00    +0.021 A 
ATOM     17  C   UNL     1       5.599  -3.655   5.474  0.00  0.00    +0.016 A 
ATOM     18 CL   UNL     1       7.830  -2.814   8.677  0.00  0.00    -0.084 Cl
ENDBRANCH  11  12
ENDBRANCH  10  11
ENDBRANCH   3   5
BRANCH   1  19
ATOM     19  C   UNL     1      -0.632  -2.583   1.001  0.00  0.00    +0.020 C 
BRANCH  19  20
ATOM     20  N   UNL     1      -1.108  -2.542  -0.388  0.00  0.00    +0.391 N 
ATOM     21  H   UNL     1      -1.003  -1.607  -0.752  0.00  0.00    -0.080 HD
BRANCH  20  22
ATOM     22  C   UNL     1      -2.525  -2.927  -0.431  0.00  0.00    -0.078 C 
BRANCH  22  24
ATOM     23  C   UNL     1      -4.850  -2.199   0.123  0.00  0.00    +0.002 C 
ATOM     24  C   UNL     1      -3.366  -1.859   0.271  0.00  0.00    -0.022 C 
ENDBRANCH  22  24
ENDBRANCH  20  22
BRANCH  20  25
ATOM     25  C   UNL     1      -0.322  -3.477  -1.203  0.00  0.00    +0.021 C 
BRANCH  25  26
ATOM     26  C   UNL     1      -0.727  -3.347  -2.649  0.00  0.00    +0.202 A 
ATOM     27  N   UNL     1      -0.194  -2.544  -3.527  0.00  0.00    -0.114 NA
ATOM     28  N   UNL     1      -0.783  -2.694  -4.661  0.00  0.00    -0.104 NA
ATOM     29  C   UNL     1      -1.723  -3.607  -4.544  0.00  0.00    +0.284 A 
ATOM     30  O   UNL     1      -1.699  -4.041  -3.267  0.00  0.00    -0.420 OA
BRANCH  29  31
ATOM     31  C   UNL     1      -2.625  -4.072  -5.608  0.00  0.00    +0.191 A 
ATOM     32  C   UNL     1      -2.633  -3.636  -6.899  0.00  0.00    +0.055 A 
ATOM     33  C   UNL     1      -3.651  -4.347  -7.561  0.00  0.00    +0.042 A 
ATOM     34  C   UNL     1      -4.210  -5.174  -6.654  0.00  0.00    +0.196 A 
ATOM     35  O   UNL     1      -3.585  -5.010  -5.477  0.00  0.00    -0.458 OA
ENDBRANCH  29  31
ENDBRANCH  25  26
ENDBRANCH  20  25
ENDBRANCH  19  20
ENDBRANCH   1  19
TORSDOF 10
