REMARK  Name = ZINC03198148
REMARK  8 active torsions:
REMARK  status: ('A' for Active; 'I' for Inactive)
REMARK    1  A    between atoms: C_1  and  C_2
REMARK    2  A    between atoms: C_2  and  C_3
REMARK    3  A    between atoms: C_3  and  C_4
REMARK    4  A    between atoms: C_4  and  C_5
REMARK    5  A    between atoms: C_5  and  O_6
REMARK    6  A    between atoms: O_6  and  C_7
REMARK    7  A    between atoms: N_17  and  S_18
REMARK    8  A    between atoms: S_18  and  C_21
REMARK                            x       y       z     vdW  Elec       q    Type
REMARK                         _______ _______ _______ _____ _____    ______ ____
ROOT
ATOM      1  C   UNL     1       1.182   2.057   0.002  0.00  0.00    +0.258 A 
ATOM      2  C   UNL     1       1.232   3.470   0.009  0.00  0.00    +0.201 A 
ATOM      3  N   UNL     1       2.390   4.097   0.001  0.00  0.00    -0.224 NA
ATOM      4  C   UNL     1       3.529   3.390  -0.013  0.00  0.00    +0.092 A 
ATOM      5  C   UNL     1       4.777   4.034  -0.021  0.00  0.00    +0.030 A 
ATOM      6  C   UNL     1       5.920   3.293  -0.036  0.00  0.00    +0.002 A 
ATOM      7  C   UNL     1       5.870   1.902  -0.043  0.00  0.00    +0.002 A 
ATOM      8  C   UNL     1       4.678   1.244  -0.035  0.00  0.00    +0.030 A 
ATOM      9  C   UNL     1       3.479   1.976  -0.021  0.00  0.00    +0.093 A 
ATOM     10  N   UNL     1       2.292   1.351  -0.007  0.00  0.00    -0.208 NA
ATOM     11  N   UNL     1       0.053   4.200   0.025  0.00  0.00    -0.195 N 
ATOM     12  H   UNL     1      -0.802   3.742   0.030  0.00  0.00    +0.175 HD
ENDROOT
BRANCH  11  13
ATOM     13  S   UNL     1       0.104   5.855   0.033  0.00  0.00    +0.074 S 
ATOM     14  O   UNL     1      -1.244   6.304   0.022  0.00  0.00    -0.150 OA
ATOM     15  O   UNL     1       1.022   6.228   1.051  0.00  0.00    -0.150 OA
BRANCH  13  16
ATOM     16  C   UNL     1       0.816   6.362  -1.497  0.00  0.00    +0.109 A 
ATOM     17  C   UNL     1       2.185   6.530  -1.600  0.00  0.00    +0.030 A 
ATOM     18  C   UNL     1       2.744   6.922  -2.802  0.00  0.00    +0.022 A 
ATOM     19  C   UNL     1       1.934   7.157  -3.898  0.00  0.00    +0.041 A 
ATOM     20  C   UNL     1       0.564   6.995  -3.792  0.00  0.00    +0.022 A 
ATOM     21  C   UNL     1       0.006   6.597  -2.592  0.00  0.00    +0.030 A 
ATOM     22 CL   UNL     1       2.635   7.656  -5.405  0.00  0.00    -0.084 Cl
ENDBRANCH  13  16
ENDBRANCH  11  13
BRANCH   1  23
ATOM     23  O   UNL     1      -0.017   1.425   0.010  0.00  0.00    -0.474 OA
BRANCH  23  24
ATOM     24  C   UNL     1       0.002  -0.004   0.002  0.00  0.00    +0.231 C 
BRANCH  24  25
ATOM     25  C   UNL     1      -1.433  -0.534   0.013  0.00  0.00    +0.041 C 
BRANCH  25  26
ATOM     26  C   UNL     1      -1.413  -2.063   0.004  0.00  0.00    +0.003 C 
BRANCH  26  28
ATOM     27  C   UNL     1      -2.827  -4.123   0.007  0.00  0.00    +0.004 C 
ATOM     28  C   UNL     1      -2.848  -2.593   0.015  0.00  0.00    -0.003 C 
ENDBRANCH  26  28
ENDBRANCH  25  26
ENDBRANCH  24  25
ENDBRANCH  23  24
ENDBRANCH   1  23
TORSDOF 7
