REMARK  Name = ZINC14628509
REMARK  10 active torsions:
REMARK  status: ('A' for Active; 'I' for Inactive)
REMARK    1  A    between atoms: C_1  and  O_2
REMARK    2  A    between atoms: O_2  and  C_3
REMARK    3  A    between atoms: C_7  and  C_9
REMARK    4  A    between atoms: C_9  and  C_11
REMARK    5  A    between atoms: C_9  and  N_67
REMARK    6  A    between atoms: C_11  and  N_12
REMARK    7  A    between atoms: C_13  and  C_15
REMARK    8  A    between atoms: C_15  and  C_16
REMARK    9  A    between atoms: C_16  and  C_17
REMARK   10  A    between atoms: C_17  and  N_18
REMARK                            x       y       z     vdW  Elec       q    Type
REMARK                         _______ _______ _______ _____ _____    ______ ____
ROOT
ATOM      1  N   UNL     1      -0.465   7.347   1.414  0.00  0.00    -0.317 N 
ATOM      2  C   UNL     1      -0.659   8.041   2.553  0.00  0.00    +0.213 C 
ATOM      3  O   UNL     1      -0.809   7.453   3.603  0.00  0.00    -0.276 OA
ATOM      4  H   UNL     1      -0.346   7.817   0.574  0.00  0.00    +0.149 HD
ENDROOT
BRANCH   1   5
ATOM      5  C   UNL     1      -0.435   5.883   1.444  0.00  0.00    +0.093 C 
BRANCH   5   6
ATOM      6  C   UNL     1      -0.073   5.351   0.056  0.00  0.00    -0.020 C 
BRANCH   6  11
ATOM      7  C   UNL     1       2.848   7.230  -1.433  0.00  0.00    +0.120 A 
ATOM      8  C   UNL     1       3.922   6.521  -0.917  0.00  0.00    +0.045 A 
ATOM      9  C   UNL     1       3.700   5.434  -0.095  0.00  0.00    +0.004 A 
ATOM     10  C   UNL     1       2.407   5.060   0.225  0.00  0.00    +0.002 A 
ATOM     11  C   UNL     1       1.335   5.765  -0.288  0.00  0.00    -0.056 A 
ATOM     12  C   UNL     1       1.552   6.850  -1.116  0.00  0.00    +0.047 A 
BRANCH   7  14
ATOM     13  C   UNL     1       4.424   8.632  -2.530  0.00  0.00    +0.277 C 
ATOM     14  O   UNL     1       3.064   8.297  -2.247  0.00  0.00    -0.495 OA
ENDBRANCH   7  14
ENDBRANCH   6  11
BRANCH   6  19
ATOM     15  C   UNL     1      -1.536   3.439   0.415  0.00  0.00    -0.078 C 
ATOM     16  C   UNL     1      -1.595   1.993  -0.138  0.00  0.00    -0.020 C 
ATOM     17  C   UNL     1      -0.800   2.095  -1.460  0.00  0.00    -0.020 C 
ATOM     18  C   UNL     1       0.092   3.340  -1.297  0.00  0.00    -0.078 C 
ATOM     19  N   UNL     1      -0.176   3.861   0.044  0.00  0.00    +0.385 N 
ATOM     20  H   UNL     1       0.501   3.471   0.710  0.00  0.00    -0.081 HD
ENDBRANCH   6  19
ENDBRANCH   5   6
ENDBRANCH   1   5
BRANCH   2  21
ATOM     21  C   UNL     1      -0.690   9.547   2.522  0.00  0.00    +0.097 C 
BRANCH  21  22
ATOM     22  C   UNL     1      -0.923  10.082   3.936  0.00  0.00    +0.029 C 
BRANCH  22  23
ATOM     23  C   UNL     1      -0.954  11.612   3.904  0.00  0.00    +0.117 C 
BRANCH  23  24
ATOM     24  N   UNL     1      -1.177  12.124   5.259  0.00  0.00    -0.234 N 
ATOM     25  C   UNL     1      -2.442  12.328   5.675  0.00  0.00    +0.254 C 
ATOM     26  O   UNL     1      -3.370  12.087   4.928  0.00  0.00    -0.270 OA
ATOM     27  C   UNL     1      -2.706  12.836   7.029  0.00  0.00    +0.046 A 
ATOM     28  C   UNL     1      -3.992  13.057   7.499  0.00  0.00    +0.014 A 
ATOM     29  C   UNL     1      -4.190  13.544   8.786  0.00  0.00    +0.001 A 
ATOM     30  C   UNL     1      -3.142  13.817   9.617  0.00  0.00    +0.008 A 
ATOM     31  C   UNL     1      -1.823  13.607   9.179  0.00  0.00    -0.016 A 
ATOM     32  C   UNL     1      -1.608  13.114   7.875  0.00  0.00    +0.006 A 
ATOM     33  C   UNL     1      -0.294  12.893   7.404  0.00  0.00    +0.046 A 
ATOM     34  C   UNL     1       0.776  13.168   8.242  0.00  0.00    +0.014 A 
ATOM     35  C   UNL     1       0.552  13.654   9.525  0.00  0.00    +0.001 A 
ATOM     36  C   UNL     1      -0.711  13.873   9.996  0.00  0.00    +0.008 A 
ATOM     37  C   UNL     1      -0.110  12.378   6.040  0.00  0.00    +0.254 C 
ATOM     38  O   UNL     1       1.012  12.181   5.614  0.00  0.00    -0.270 OA
ENDBRANCH  23  24
ENDBRANCH  22  23
ENDBRANCH  21  22
ENDBRANCH   2  21
TORSDOF 9
