REMARK  Name = ZINC20130435
REMARK  12 active torsions:
REMARK  status: ('A' for Active; 'I' for Inactive)
REMARK    1  A    between atoms: C_1  and  C_2
REMARK    2  A    between atoms: C_2  and  N_3
REMARK    3  A    between atoms: N_3  and  C_4
REMARK    4  A    between atoms: N_3  and  C_6
REMARK    5  A    between atoms: C_4  and  C_5
REMARK    6  A    between atoms: C_6  and  C_7
REMARK    7  A    between atoms: C_7  and  N_8
REMARK    8  A    between atoms: C_9  and  C_25
REMARK    9  A    between atoms: C_11  and  C_16
REMARK   10  A    between atoms: C_16  and  C_18
REMARK   11  A    between atoms: C_21  and  C_24
REMARK   12  A    between atoms: C_30  and  N_31
REMARK                            x       y       z     vdW  Elec       q    Type
REMARK                         _______ _______ _______ _____ _____    ______ ____
ROOT
ATOM      1  N   UNL     1      -0.464   5.104   1.198  0.00  0.00    -0.285 N 
ATOM      2  C   UNL     1      -0.344   3.878   0.401  0.00  0.00    +0.147 C 
ATOM      3  C   UNL     1       0.063   4.316  -0.987  0.00  0.00    +0.076 C 
ATOM      4  C   UNL     1       0.159   5.666  -0.958  0.00  0.00    +0.249 C 
ATOM      5  C   UNL     1      -0.169   6.147   0.400  0.00  0.00    +0.288 C 
ATOM      6  O   UNL     1      -0.172   7.312   0.746  0.00  0.00    -0.266 OA
ATOM      7  O   UNL     1       0.501   6.450  -2.006  0.00  0.00    -0.282 OA
ENDROOT
BRANCH   2   8
ATOM      8  C   UNL     1      -1.668   3.161   0.350  0.00  0.00    +0.008 A 
ATOM      9  C   UNL     1      -2.843   3.866   0.530  0.00  0.00    +0.008 A 
ATOM     10  C   UNL     1      -4.058   3.209   0.484  0.00  0.00    +0.000 A 
ATOM     11  C   UNL     1      -4.098   1.845   0.257  0.00  0.00    +0.002 A 
ATOM     12  C   UNL     1      -2.923   1.141   0.073  0.00  0.00    +0.033 A 
ATOM     13  C   UNL     1      -1.708   1.798   0.124  0.00  0.00    +0.131 A 
BRANCH  13  14
ATOM     14  N   UNL     1      -0.450   1.043  -0.068  0.00  0.00    +0.057 N 
ATOM     15  O   UNL     1      -0.478  -0.170  -0.175  0.00  0.00    -0.126 OA
ATOM     16  O   UNL     1       0.613   1.635  -0.125  0.00  0.00    -0.126 OA
ENDBRANCH  13  14
ENDBRANCH   2   8
BRANCH   3  17
ATOM     17  C   UNL     1       0.307   3.446  -2.142  0.00  0.00    +0.195 C 
ATOM     18  O   UNL     1      -0.631   2.985  -2.764  0.00  0.00    -0.287 OA
BRANCH  17  19
ATOM     19  C   UNL     1       1.692   3.130  -2.550  0.00  0.00    +0.022 A 
ATOM     20  C   UNL     1       2.769   3.574  -1.779  0.00  0.00    +0.012 A 
ATOM     21  C   UNL     1       4.059   3.272  -2.164  0.00  0.00    +0.004 A 
ATOM     22  C   UNL     1       4.287   2.539  -3.315  0.00  0.00    -0.050 A 
ATOM     23  C   UNL     1       3.225   2.101  -4.086  0.00  0.00    +0.004 A 
ATOM     24  C   UNL     1       1.930   2.392  -3.711  0.00  0.00    +0.012 A 
ATOM     25  C   UNL     1       5.700   2.218  -3.732  0.00  0.00    +0.044 C 
ENDBRANCH  17  19
ENDBRANCH   3  17
BRANCH   1  26
ATOM     26  C   UNL     1      -0.838   5.180   2.612  0.00  0.00    +0.090 C 
BRANCH  26  27
ATOM     27  C   UNL     1       0.422   5.099   3.478  0.00  0.00    -0.060 C 
BRANCH  27  28
ATOM     28  N   UNL     1       0.047   5.175   4.896  0.00  0.00    +0.380 N 
ATOM     29  H   UNL     1      -0.731   4.419   5.081  0.00  0.00    -0.082 HD
BRANCH  28  31
ATOM     30  C   UNL     1       1.585   3.397   5.581  0.00  0.00    -0.017 C 
ATOM     31  C   UNL     1       1.193   4.865   5.761  0.00  0.00    -0.082 C 
ENDBRANCH  28  31
BRANCH  28  32
ATOM     32  C   UNL     1      -0.518   6.492   5.222  0.00  0.00    -0.082 C 
ATOM     33  C   UNL     1      -1.245   6.416   6.566  0.00  0.00    -0.017 C 
ENDBRANCH  28  32
ENDBRANCH  27  28
ENDBRANCH  26  27
ENDBRANCH   1  26
TORSDOF 9
