REMARK  Name = ZINC05242971
REMARK  7 active torsions:
REMARK  status: ('A' for Active; 'I' for Inactive)
REMARK    1  A    between atoms: C_1  and  C_2
REMARK    2  A    between atoms: C_6  and  C_22
REMARK    3  A    between atoms: C_10  and  C_11
REMARK    4  A    between atoms: C_13  and  C_21
REMARK    5  A    between atoms: C_14  and  C_18
REMARK    6  A    between atoms: C_15  and  N_17
REMARK    7  A    between atoms: C_18  and  C_20
REMARK                            x       y       z     vdW  Elec       q    Type
REMARK                         _______ _______ _______ _____ _____    ______ ____
ROOT
ATOM      1  C   UNL     1       3.739  -1.982   0.775  0.00  0.00    +0.046 C 
ATOM      2  C   UNL     1       3.666  -0.485   0.937  0.00  0.00    -0.020 A 
ATOM      3  C   UNL     1       2.421   0.160   0.948  0.00  0.00    +0.051 A 
ATOM      4  C   UNL     1       1.114  -0.401   0.823  0.00  0.00    +0.129 A 
ATOM      5  N   UNL     1       0.062   0.396   0.862  0.00  0.00    -0.212 NA
ATOM      6  C   UNL     1       0.176   1.712   1.013  0.00  0.00    +0.163 A 
ATOM      7  N   UNL     1       1.365   2.291   1.134  0.00  0.00    -0.220 NA
ATOM      8  C   UNL     1       2.462   1.567   1.106  0.00  0.00    +0.115 A 
ATOM      9  S   UNL     1       4.199   1.913   1.229  0.00  0.00    -0.065 S 
ATOM     10  C   UNL     1       4.807   0.242   1.073  0.00  0.00    +0.062 A 
ATOM     11  N   UNL     1       0.951  -1.764   0.665  0.00  0.00    -0.343 N 
ATOM     12  H   UNL     1       0.127  -2.190   0.949  0.00  0.00    +0.144 HD
ATOM     13  H   UNL     1       1.661  -2.294   0.271  0.00  0.00    +0.144 HD
ENDROOT
BRANCH  10  14
ATOM     14  C   UNL     1       6.201  -0.233   1.089  0.00  0.00    +0.169 A 
ATOM     15  N   UNL     1       7.176   0.638   1.341  0.00  0.00    -0.231 NA
ATOM     16  C   UNL     1       8.438   0.259   1.371  0.00  0.00    +0.054 A 
ATOM     17  C   UNL     1       8.752  -1.086   1.120  0.00  0.00    +0.078 A 
ATOM     18  C   UNL     1       7.690  -1.981   0.850  0.00  0.00    +0.131 A 
ATOM     19  N   UNL     1       6.447  -1.515   0.845  0.00  0.00    -0.212 NA
ATOM     20  C   UNL     1       9.529   1.257   1.664  0.00  0.00    +0.066 C 
BRANCH  18  21
ATOM     21  N   UNL     1       7.941  -3.312   0.598  0.00  0.00    -0.342 N 
ATOM     22  H   UNL     1       7.203  -3.934   0.495  0.00  0.00    +0.144 HD
ATOM     23  H   UNL     1       8.855  -3.627   0.523  0.00  0.00    +0.144 HD
ENDBRANCH  18  21
BRANCH  17  24
ATOM     24  C   UNL     1      10.140  -1.550   1.137  0.00  0.00    +0.165 C 
ATOM     25  O   UNL     1      10.655  -1.887   2.183  0.00  0.00    -0.292 OA
ATOM     26  C   UNL     1      10.931  -1.608  -0.145  0.00  0.00    +0.092 C 
ENDBRANCH  17  24
ENDBRANCH  10  14
BRANCH   6  27
ATOM     27  C   UNL     1      -1.047   2.550   1.041  0.00  0.00    +0.019 A 
ATOM     28  C   UNL     1      -0.946   3.931   1.205  0.00  0.00    +0.011 A 
ATOM     29  C   UNL     1      -2.087   4.706   1.224  0.00  0.00    +0.001 A 
ATOM     30  C   UNL     1      -3.331   4.114   1.094  0.00  0.00    +0.000 A 
ATOM     31  C   UNL     1      -3.438   2.744   0.937  0.00  0.00    +0.001 A 
ATOM     32  C   UNL     1      -2.303   1.959   0.910  0.00  0.00    +0.011 A 
ENDBRANCH   6  27
TORSDOF 4
