REMARK  Name = ZINC61369152
REMARK  4 active torsions:
REMARK  status: ('A' for Active; 'I' for Inactive)
REMARK    1  A    between atoms: CB_1  and  CA_2
REMARK    2  A    between atoms: CA_2  and  C_4
REMARK    3  A    between atoms: CA_2  and  N_7
REMARK    4  A    between atoms: N_10  and  C_11
REMARK                            x       y       z     vdW  Elec       q    Type
REMARK                         _______ _______ _______ _____ _____    ______ ____
ROOT
ATOM      1  N   ALA A   1       0.711  -0.489   1.189  0.00  0.00    -0.286 N 
ATOM      2  C   UNK A   0       2.054  -0.600   1.174  0.00  0.00    +0.301 C 
ATOM      3  O   UNK A   0       2.677  -0.297   0.175  0.00  0.00    -0.253 OA
ATOM      4  N   UNK A   0       2.706  -1.046   2.266  0.00  0.00    -0.293 N 
ATOM      5  H   ALA A   1       0.213  -0.731   1.986  0.00  0.00    +0.151 HD
ATOM      6  H   UNK A   0       2.208  -1.288   3.062  0.00  0.00    +0.151 HD
ENDROOT
BRANCH   4   7
ATOM      7  C   UNK A   0       4.166  -1.166   2.249  0.00  0.00    +0.105 C 
ATOM      8  C   UNK A   0       4.703  -1.081   3.678  0.00  0.00    +0.027 C 
ATOM      9  C   UNK A   0       6.203  -1.387   3.693  0.00  0.00    +0.007 C 
ATOM     10  C   UNK A   0       6.404  -2.881   3.395  0.00  0.00    +0.043 C 
ATOM     11  C   UNK A   0       5.570  -3.240   2.209  0.00  0.00    -0.005 A 
ATOM     12  C   UNK A   0       4.561  -2.513   1.651  0.00  0.00    -0.017 A 
ATOM     13  C   UNK A   0       3.934  -3.067   0.535  0.00  0.00    +0.013 A 
ATOM     14  C   UNK A   0       4.335  -4.267   0.058  0.00  0.00    +0.046 A 
ATOM     15  S   UNK A   0       5.652  -4.693   1.196  0.00  0.00    -0.101 S 
ENDBRANCH   4   7
BRANCH   1  17
ATOM     16  CB  ALA A   1      -0.019   1.526   0.010  0.00  0.00    +0.040 C 
ATOM     17  CA  ALA A   1       0.002  -0.004   0.002  0.00  0.00    +0.184 C 
BRANCH  17  18
ATOM     18  C   ALA A   1      -1.412  -0.526   0.013  0.00  0.00    +0.376 C 
ATOM     19  O   ALA A   1      -2.118  -0.393  -0.972  0.00  0.00    -0.244 OA
ATOM     20  OXT ALA A   1      -1.849  -1.081   1.006  0.00  0.00    -0.244 OA
ENDBRANCH  17  18
ENDBRANCH   1  17
TORSDOF 3
