REMARK  Name = ZINC01683965
REMARK  9 active torsions:
REMARK  status: ('A' for Active; 'I' for Inactive)
REMARK    1  A    between atoms: C_1  and  C_2
REMARK    2  A    between atoms: C_3  and  C_12
REMARK    3  A    between atoms: C_12  and  C_14
REMARK    4  A    between atoms: C_12  and  C_29
REMARK    5  A    between atoms: C_14  and  C_15
REMARK    6  A    between atoms: C_20  and  N_21
REMARK    7  A    between atoms: C_22  and  C_24
REMARK    8  A    between atoms: C_25  and  C_26
REMARK    9  A    between atoms: C_25  and  C_27
REMARK                            x       y       z     vdW  Elec       q    Type
REMARK                         _______ _______ _______ _____ _____    ______ ____
ROOT
ATOM      1  C   UNL     1       2.184   4.223  -0.286  0.00  0.00    +0.058 C 
ENDROOT
BRANCH   1   4
ATOM      2  C   UNL     1       1.192   3.310  -3.082  0.00  0.00    +0.063 C 
ATOM      3  C   UNL     1       2.049   4.520  -2.811  0.00  0.00    +0.018 A 
ATOM      4  C   UNL     1       2.473   4.907  -1.597  0.00  0.00    -0.012 A 
ATOM      5  C   UNL     1       3.277   6.116  -1.790  0.00  0.00    +0.004 A 
ATOM      6  C   UNL     1       3.977   6.964  -0.930  0.00  0.00    +0.010 A 
ATOM      7  C   UNL     1       4.647   8.041  -1.436  0.00  0.00    +0.001 A 
ATOM      8  C   UNL     1       4.638   8.300  -2.800  0.00  0.00    +0.002 A 
ATOM      9  C   UNL     1       3.954   7.477  -3.667  0.00  0.00    +0.026 A 
ATOM     10  C   UNL     1       3.264   6.374  -3.173  0.00  0.00    +0.047 A 
ATOM     11  N   UNL     1       2.507   5.388  -3.764  0.00  0.00    -0.358 N 
ATOM     12  H   UNL     1       2.328   5.317  -4.715  0.00  0.00    +0.166 HD
ENDBRANCH   1   4
BRANCH   1  13
ATOM     13  C   UNL     1       0.715   4.343   0.029  0.00  0.00    -0.015 A 
ATOM     14  C   UNL     1       0.038   5.479   0.259  0.00  0.00    +0.087 A 
ATOM     15  N   UNL     1      -1.277   5.195   0.511  0.00  0.00    -0.360 N 
ATOM     16  H   UNL     1      -1.961   5.854   0.706  0.00  0.00    +0.165 HD
ATOM     17  C   UNL     1      -1.483   3.835   0.449  0.00  0.00    +0.047 A 
ATOM     18  C   UNL     1      -0.244   3.241   0.144  0.00  0.00    +0.003 A 
ATOM     19  C   UNL     1      -0.150   1.855   0.017  0.00  0.00    +0.010 A 
ATOM     20  C   UNL     1      -1.262   1.080   0.189  0.00  0.00    +0.001 A 
ATOM     21  C   UNL     1      -2.487   1.661   0.484  0.00  0.00    +0.002 A 
ATOM     22  C   UNL     1      -2.602   3.028   0.620  0.00  0.00    +0.026 A 
ENDBRANCH   1  13
BRANCH   1  23
ATOM     23  C   UNL     1       3.000   4.885   0.826  0.00  0.00    +0.050 C 
BRANCH  23  24
ATOM     24  C   UNL     1       2.805   4.125   2.112  0.00  0.00    -0.025 A 
ATOM     25  C   UNL     1       1.854   4.540   3.023  0.00  0.00    +0.005 A 
ATOM     26  C   UNL     1       1.672   3.841   4.202  0.00  0.00    +0.000 A 
ATOM     27  C   UNL     1       2.447   2.729   4.478  0.00  0.00    +0.002 A 
ATOM     28  C   UNL     1       3.404   2.312   3.574  0.00  0.00    +0.023 A 
ATOM     29  C   UNL     1       3.586   3.009   2.386  0.00  0.00    +0.037 A 
BRANCH  29  30
ATOM     30  N   UNL     1       4.554   2.590   1.469  0.00  0.00    -0.282 N 
ATOM     31  C   UNL     1       5.701   2.033   1.907  0.00  0.00    +0.242 C 
ATOM     32  O   UNL     1       5.859   1.821   3.093  0.00  0.00    -0.270 OA
ATOM     33  H   UNL     1       4.400   2.699   0.518  0.00  0.00    +0.155 HD
BRANCH  31  34
ATOM     34  C   UNL     1       6.764   1.681   0.946  0.00  0.00    +0.078 C 
ATOM     35  C   UNL     1       7.858   1.024   1.365  0.00  0.00    +0.043 C 
ATOM     36  C   UNL     1       9.003   0.783   0.415  0.00  0.00    +0.051 C 
BRANCH  35  37
ATOM     37  C   UNL     1       7.939   0.539   2.755  0.00  0.00    +0.383 C 
ATOM     38  O   UNL     1       8.537   1.187   3.591  0.00  0.00    -0.241 OA
ATOM     39  O   UNL     1       7.350  -0.623   3.099  0.00  0.00    -0.241 OA
ENDBRANCH  35  37
ENDBRANCH  31  34
ENDBRANCH  29  30
ENDBRANCH  23  24
ENDBRANCH   1  23
TORSDOF 7
