REMARK  Name = ZINC22364338
REMARK  13 active torsions:
REMARK  status: ('A' for Active; 'I' for Inactive)
REMARK    1  A    between atoms: C_1  and  C_2
REMARK    2  A    between atoms: C_2  and  C_4
REMARK    3  A    between atoms: C_2  and  N_15
REMARK    4  A    between atoms: C_7  and  N_10
REMARK    5  A    between atoms: C_16  and  C_18
REMARK    6  A    between atoms: C_18  and  N_19
REMARK    7  A    between atoms: N_19  and  C_20
REMARK    8  A    between atoms: N_19  and  S_26
REMARK    9  A    between atoms: S_26  and  C_29
REMARK   10  A    between atoms: C_32  and  O_37
REMARK   11  A    between atoms: C_33  and  O_35
REMARK   12  A    between atoms: O_35  and  C_36
REMARK   13  A    between atoms: O_37  and  C_38
REMARK                            x       y       z     vdW  Elec       q    Type
REMARK                         _______ _______ _______ _____ _____    ______ ____
ROOT
ATOM      1  N   UNL     1       2.598   0.624   0.027  0.00  0.00    -0.194 N 
ENDROOT
BRANCH   1   2
ATOM      2  C   UNL     1       2.928   0.041   1.253  0.00  0.00    +0.052 A 
ATOM      3  C   UNL     1       4.179  -0.533   1.437  0.00  0.00    +0.025 A 
ATOM      4  C   UNL     1       4.503  -1.105   2.652  0.00  0.00    +0.002 A 
ATOM      5  C   UNL     1       3.580  -1.115   3.681  0.00  0.00    +0.000 A 
ATOM      6  C   UNL     1       2.331  -0.549   3.500  0.00  0.00    +0.002 A 
ATOM      7  C   UNL     1       2.002   0.029   2.289  0.00  0.00    +0.025 A 
ENDBRANCH   1   2
BRANCH   1   8
ATOM      8  S   UNL     1       2.670  -0.274  -1.363  0.00  0.00    +0.075 S 
ATOM      9  O   UNL     1       2.681  -1.638  -0.965  0.00  0.00    -0.150 OA
ATOM     10  O   UNL     1       1.686   0.257  -2.240  0.00  0.00    -0.150 OA
BRANCH   8  11
ATOM     11  C   UNL     1       4.234   0.046  -2.108  0.00  0.00    +0.112 A 
ATOM     12  C   UNL     1       4.393   1.142  -2.936  0.00  0.00    +0.032 A 
ATOM     13  C   UNL     1       5.620   1.400  -3.519  0.00  0.00    +0.051 A 
ATOM     14  C   UNL     1       6.691   0.553  -3.283  0.00  0.00    +0.162 A 
ATOM     15  C   UNL     1       6.529  -0.554  -2.455  0.00  0.00    +0.163 A 
ATOM     16  C   UNL     1       5.299  -0.804  -1.869  0.00  0.00    +0.078 A 
BRANCH  15  17
ATOM     17  O   UNL     1       7.577  -1.388  -2.221  0.00  0.00    -0.491 OA
ATOM     18  C   UNL     1       7.339  -2.504  -1.360  0.00  0.00    +0.277 C 
ENDBRANCH  15  17
BRANCH  14  19
ATOM     19  O   UNL     1       7.896   0.802  -3.861  0.00  0.00    -0.491 OA
ATOM     20  C   UNL     1       7.988   1.955  -4.699  0.00  0.00    +0.277 C 
ENDBRANCH  14  19
ENDBRANCH   8  11
ENDBRANCH   1   8
BRANCH   1  21
ATOM     21  C   UNL     1       2.189   2.029  -0.029  0.00  0.00    +0.227 C 
BRANCH  21  23
ATOM     22  N   UNL     1       0.109   3.340   0.250  0.00  0.00    -0.307 N 
ATOM     23  C   UNL     1       0.712   2.134   0.254  0.00  0.00    +0.233 C 
ATOM     24  O   UNL     1       0.066   1.133   0.480  0.00  0.00    -0.274 OA
ATOM     25  H   UNL     1       0.696   4.247   0.045  0.00  0.00    +0.149 HD
BRANCH  22  27
ATOM     26  C   UNL     1      -1.561   3.492   2.030  0.00  0.00    +0.033 C 
ATOM     27  C   UNL     1      -1.327   3.441   0.519  0.00  0.00    +0.100 C 
BRANCH  27  28
ATOM     28  C   UNL     1      -1.870   4.695  -0.116  0.00  0.00    -0.027 A 
ATOM     29  C   UNL     1      -1.134   5.865  -0.071  0.00  0.00    +0.007 A 
ATOM     30  C   UNL     1      -1.626   7.015  -0.657  0.00  0.00    +0.023 A 
ATOM     31  C   UNL     1      -2.866   6.998  -1.282  0.00  0.00    +0.030 A 
ATOM     32  C   UNL     1      -3.605   5.822  -1.321  0.00  0.00    +0.023 A 
ATOM     33  C   UNL     1      -3.105   4.675  -0.738  0.00  0.00    +0.007 A 
BRANCH  31  34
ATOM     34  N   UNL     1      -3.370   8.161  -1.870  0.00  0.00    -0.330 N 
ATOM     35  C   UNL     1      -3.512   7.995  -3.340  0.00  0.00    +0.105 C 
ATOM     36  C   UNL     1      -4.527   9.101  -3.724  0.00  0.00    +0.020 C 
ATOM     37  C   UNL     1      -5.510   9.098  -2.531  0.00  0.00    +0.020 C 
ATOM     38  C   UNL     1      -4.726   8.466  -1.366  0.00  0.00    +0.105 C 
ENDBRANCH  31  34
ENDBRANCH  27  28
ENDBRANCH  22  27
ENDBRANCH  21  23
ENDBRANCH   1  21
TORSDOF 10
