REMARK  Name = ZINC36541439
REMARK  15 active torsions:
REMARK  status: ('A' for Active; 'I' for Inactive)
REMARK    1  A    between atoms: C_1  and  C_2
REMARK    2  A    between atoms: C_2  and  C_3
REMARK    3  A    between atoms: C_2  and  C_4
REMARK    4  A    between atoms: C_2  and  N_5
REMARK    5  A    between atoms: C_6  and  C_8
REMARK    6  A    between atoms: C_8  and  C_10
REMARK    7  A    between atoms: C_8  and  N_19
REMARK    8  A    between atoms: C_13  and  N_16
REMARK    9  A    between atoms: N_16  and  C_17
REMARK   10  A    between atoms: N_16  and  C_18
REMARK   11  A    between atoms: N_19  and  C_20
REMARK   12  A    between atoms: C_27  and  C_29
REMARK   13  A    between atoms: C_29  and  C_31
REMARK   14  A    between atoms: C_29  and  O_37
REMARK   15  A    between atoms: O_37  and  C_38
REMARK                            x       y       z     vdW  Elec       q    Type
REMARK                         _______ _______ _______ _____ _____    ______ ____
ROOT
ATOM      1  N   UNL     1       4.136  -0.503  -2.853  0.00  0.00    -0.252 N 
ATOM      2  C   UNL     1       4.647  -0.211  -4.065  0.00  0.00    +0.254 C 
ATOM      3  O   UNL     1       3.955  -0.316  -5.056  0.00  0.00    -0.272 OA
ENDROOT
BRANCH   1   4
ATOM      4  C   UNL     1       4.892  -0.266  -1.699  0.00  0.00    +0.056 A 
ATOM      5  C   UNL     1       5.764  -1.237  -1.227  0.00  0.00    +0.025 A 
ATOM      6  C   UNL     1       6.509  -0.999  -0.088  0.00  0.00    +0.002 A 
ATOM      7  C   UNL     1       6.386   0.204   0.583  0.00  0.00    +0.002 A 
ATOM      8  C   UNL     1       5.518   1.173   0.116  0.00  0.00    +0.022 A 
ATOM      9  C   UNL     1       4.774   0.945  -1.027  0.00  0.00    +0.062 A 
ATOM     10 CL   UNL     1       3.690   2.166  -1.617  0.00  0.00    -0.082 Cl
ENDBRANCH   1   4
BRANCH   1  11
ATOM     11  C   UNL     1       2.789  -1.070  -2.743  0.00  0.00    +0.197 C 
BRANCH  11  12
ATOM     12  C   UNL     1       2.744  -2.399  -3.451  0.00  0.00    -0.018 A 
ATOM     13  C   UNL     1       3.738  -3.334  -3.227  0.00  0.00    +0.008 A 
ATOM     14  C   UNL     1       3.700  -4.554  -3.875  0.00  0.00    +0.023 A 
ATOM     15  C   UNL     1       2.661  -4.840  -4.752  0.00  0.00    +0.029 A 
ATOM     16  C   UNL     1       1.665  -3.899  -4.974  0.00  0.00    +0.023 A 
ATOM     17  C   UNL     1       1.706  -2.684  -4.319  0.00  0.00    +0.008 A 
BRANCH  15  18
ATOM     18  N   UNL     1       2.620  -6.072  -5.409  0.00  0.00    -0.336 N 
ATOM     19  C   UNL     1       3.736  -7.012  -5.274  0.00  0.00    +0.129 C 
ATOM     20  C   UNL     1       1.460  -6.425  -6.232  0.00  0.00    +0.129 C 
ENDBRANCH  15  18
ENDBRANCH  11  12
BRANCH  11  22
ATOM     21  N   UNL     1       1.220  -0.922  -0.837  0.00  0.00    -0.309 N 
ATOM     22  C   UNL     1       2.443  -1.263  -1.289  0.00  0.00    +0.239 C 
ATOM     23  O   UNL     1       3.265  -1.726  -0.526  0.00  0.00    -0.273 OA
ATOM     24  H   UNL     1       0.563  -0.553  -1.447  0.00  0.00    +0.149 HD
BRANCH  21  26
ATOM     25  C   UNL     1       1.840  -0.288   1.443  0.00  0.00    +0.031 C 
ATOM     26  C   UNL     1       0.883  -1.110   0.577  0.00  0.00    +0.026 C 
ATOM     27  C   UNL     1       1.012  -2.591   0.939  0.00  0.00    +0.031 C 
ATOM     28  C   UNL     1      -0.554  -0.648   0.825  0.00  0.00    +0.031 C 
ENDBRANCH  21  26
ENDBRANCH  11  22
ENDBRANCH   1  11
BRANCH   2  29
ATOM     29  C   UNL     1       6.077   0.246  -4.190  0.00  0.00    +0.234 C 
BRANCH  29  30
ATOM     30  C   UNL     1       6.157   1.727  -3.924  0.00  0.00    -0.010 A 
ATOM     31  C   UNL     1       5.660   2.624  -4.852  0.00  0.00    +0.006 A 
ATOM     32  C   UNL     1       5.733   3.982  -4.607  0.00  0.00    +0.000 A 
ATOM     33  C   UNL     1       6.301   4.444  -3.435  0.00  0.00    +0.000 A 
ATOM     34  C   UNL     1       6.797   3.548  -2.507  0.00  0.00    +0.000 A 
ATOM     35  C   UNL     1       6.720   2.189  -2.749  0.00  0.00    +0.006 A 
ENDBRANCH  29  30
BRANCH  29  36
ATOM     36  O   UNL     1       6.552  -0.027  -5.510  0.00  0.00    -0.366 OA
ATOM     37  C   UNL     1       7.154  -1.314  -5.657  0.00  0.00    +0.195 C 
ENDBRANCH  29  36
ENDBRANCH   2  29
TORSDOF 9
