REMARK  Name = ZINC63934694
REMARK  11 active torsions:
REMARK  status: ('A' for Active; 'I' for Inactive)
REMARK    1  A    between atoms: C_1  and  C_2
REMARK    2  A    between atoms: C_6  and  N_9
REMARK    3  A    between atoms: C_7  and  C_8
REMARK    4  A    between atoms: C_10  and  C_16
REMARK    5  A    between atoms: C_16  and  C_17
REMARK    6  A    between atoms: C_17  and  C_18
REMARK    7  A    between atoms: C_18  and  C_19
REMARK    8  A    between atoms: C_19  and  C_20
REMARK    9  A    between atoms: N_25  and  C_26
REMARK   10  A    between atoms: C_30  and  C_33
REMARK   11  A    between atoms: C_31  and  C_32
REMARK                            x       y       z     vdW  Elec       q    Type
REMARK                         _______ _______ _______ _____ _____    ______ ____
ROOT
ATOM      1  C   UNL     1      -3.160  -2.621   4.431  0.00  0.00    +0.004 C 
ENDROOT
BRANCH   1   2
ATOM      2  C   UNL     1      -1.970  -2.098   3.624  0.00  0.00    +0.048 C 
BRANCH   2   4
ATOM      3  N   UNL     1       0.052  -2.797   2.391  0.00  0.00    -0.257 N 
ATOM      4  C   UNL     1      -1.103  -3.275   3.172  0.00  0.00    +0.216 C 
ATOM      5  N   UNL     1      -0.493  -3.945   4.330  0.00  0.00    -0.196 NA
ATOM      6  N   UNL     1       0.733  -3.861   4.221  0.00  0.00    -0.221 N 
ATOM      7  C   UNL     1       1.130  -3.202   3.098  0.00  0.00    +0.158 C 
ATOM      8  S   UNL     1       2.759  -2.923   2.650  0.00  0.00    -0.017 S 
ATOM      9  H   UNL     1       1.353  -4.231   4.868  0.00  0.00    +0.176 HD
BRANCH   3  15
ATOM     10  C   UNL     1      -0.018   1.503   0.010  0.00  0.00    +0.044 C 
ATOM     11  C   UNL     1       0.002  -0.004   0.002  0.00  0.00    -0.046 A 
ATOM     12  C   UNL     1       0.006  -0.688  -1.200  0.00  0.00    +0.004 A 
ATOM     13  C   UNL     1       0.025  -2.071  -1.212  0.00  0.00    +0.002 A 
ATOM     14  C   UNL     1       0.040  -2.773  -0.023  0.00  0.00    +0.024 A 
ATOM     15  C   UNL     1       0.037  -2.089   1.186  0.00  0.00    +0.041 A 
ATOM     16  C   UNL     1       0.023  -0.700   1.194  0.00  0.00    -0.026 A 
ATOM     17  C   UNL     1       0.025   0.046   2.504  0.00  0.00    +0.046 C 
ENDBRANCH   3  15
ENDBRANCH   2   4
ENDBRANCH   1   2
BRANCH   1  18
ATOM     18  C   UNL     1      -4.027  -1.444   4.883  0.00  0.00    +0.008 C 
BRANCH  18  19
ATOM     19  C   UNL     1      -5.216  -1.967   5.690  0.00  0.00    +0.077 C 
BRANCH  19  20
ATOM     20  C   UNL     1      -6.070  -0.807   6.135  0.00  0.00    +0.139 A 
ATOM     21  N   UNL     1      -5.940  -0.133   7.242  0.00  0.00    -0.133 NA
ATOM     22  N   UNL     1      -6.832   0.790   7.306  0.00  0.00    -0.121 NA
ATOM     23  C   UNL     1      -7.589   0.755   6.234  0.00  0.00    +0.207 A 
ATOM     24  S   UNL     1      -8.943   1.822   5.872  0.00  0.00    -0.009 SA
ATOM     25  N   UNL     1      -7.123  -0.264   5.448  0.00  0.00    -0.273 N 
BRANCH  25  26
ATOM     26  C   UNL     1      -7.621  -0.668   4.201  0.00  0.00    +0.053 A 
ATOM     27  C   UNL     1      -8.622  -1.627   4.129  0.00  0.00    +0.026 A 
ATOM     28  C   UNL     1      -9.111  -2.022   2.900  0.00  0.00    +0.002 A 
ATOM     29  C   UNL     1      -8.603  -1.464   1.740  0.00  0.00    +0.004 A 
ATOM     30  C   UNL     1      -7.606  -0.510   1.809  0.00  0.00    -0.046 A 
ATOM     31  C   UNL     1      -7.117  -0.106   3.036  0.00  0.00    -0.024 A 
ATOM     32  C   UNL     1      -6.034   0.939   3.110  0.00  0.00    +0.046 C 
ATOM     33  C   UNL     1      -7.055   0.095   0.543  0.00  0.00    +0.044 C 
ENDBRANCH  25  26
ENDBRANCH  19  20
ENDBRANCH  18  19
ENDBRANCH   1  18
TORSDOF 7
