REMARK  Name = ZINC39452708
REMARK  4 active torsions:
REMARK  status: ('A' for Active; 'I' for Inactive)
REMARK    1  A    between atoms: C_1  and  S_2
REMARK    2  A    between atoms: S_2  and  C_3
REMARK    3  A    between atoms: C_22  and  C_25
REMARK    4  A    between atoms: C_30  and  O_31
REMARK                            x       y       z     vdW  Elec       q    Type
REMARK                         _______ _______ _______ _____ _____    ______ ____
ROOT
ATOM      1  C   UNL     1       0.656  -0.585  -1.254  0.00  0.00    +0.017 A 
ATOM      2  C   UNL     1       1.094   0.453  -2.053  0.00  0.00    +0.015 A 
ATOM      3  C   UNL     1       1.771   0.212  -3.241  0.00  0.00    +0.003 A 
ATOM      4  C   UNL     1       2.035  -1.052  -3.676  0.00  0.00    +0.028 A 
ATOM      5  C   UNL     1       1.620  -2.157  -2.914  0.00  0.00    +0.073 A 
ATOM      6  C   UNL     1       0.909  -1.915  -1.656  0.00  0.00    +0.015 A 
ATOM      7  C   UNL     1       0.496  -3.010  -0.889  0.00  0.00    +0.026 A 
ATOM      8  C   UNL     1       0.791  -4.282  -1.363  0.00  0.00    +0.069 A 
ATOM      9  C   UNL     1       1.490  -4.445  -2.588  0.00  0.00    +0.100 A 
ATOM     10  N   UNL     1       1.865  -3.406  -3.312  0.00  0.00    -0.245 NA
ATOM     11  C   UNL     1       1.780  -5.817  -3.040  0.00  0.00    +0.083 A 
ATOM     12  C   UNL     1       1.369  -6.893  -2.280  0.00  0.00    +0.127 A 
ATOM     13  N   UNL     1       0.684  -6.704  -1.083  0.00  0.00    -0.213 N 
ATOM     14  C   UNL     1       0.389  -5.481  -0.612  0.00  0.00    +0.276 A 
ATOM     15  O   UNL     1      -0.213  -5.364   0.440  0.00  0.00    -0.266 OA
ATOM     16 CL   UNL     1       0.203  -8.075  -0.182  0.00  0.00    +0.022 Cl
ATOM     17  C   UNL     1       1.640  -8.209  -2.719  0.00  0.00    +0.185 C 
ATOM     18  O   UNL     1       1.320  -9.153  -2.024  0.00  0.00    -0.290 OA
ATOM     19  C   UNL     1       2.321  -8.453  -4.040  0.00  0.00    +0.108 C 
ATOM     20  C   UNL     1       3.243  -7.271  -4.362  0.00  0.00    +0.112 C 
ATOM     21  N   UNL     1       2.466  -6.029  -4.221  0.00  0.00    -0.333 N 
ATOM     22  H   UNL     1       2.435  -5.377  -4.938  0.00  0.00    +0.147 HD
ENDROOT
BRANCH  20  23
ATOM     23  C   UNL     1       4.404  -7.256  -3.401  0.00  0.00    +0.014 A 
ATOM     24  C   UNL     1       4.420  -6.362  -2.349  0.00  0.00    +0.009 A 
ATOM     25  C   UNL     1       5.485  -6.347  -1.468  0.00  0.00    +0.001 A 
ATOM     26  C   UNL     1       6.538  -7.228  -1.638  0.00  0.00    +0.004 A 
ATOM     27  C   UNL     1       6.527  -8.124  -2.688  0.00  0.00    +0.046 A 
ATOM     28  C   UNL     1       5.456  -8.144  -3.571  0.00  0.00    +0.122 A 
BRANCH  28  29
ATOM     29  O   UNL     1       5.440  -9.029  -4.602  0.00  0.00    -0.506 OA
ATOM     30  H   UNL     1       5.851  -8.697  -5.412  0.00  0.00    +0.292 HD
ENDBRANCH  28  29
ENDBRANCH  20  23
BRANCH   1  32
ATOM     31  C   UNL     1      -0.276   1.556   0.323  0.00  0.00    +0.090 C 
ATOM     32  S   UNL     1      -0.200  -0.255   0.250  0.00  0.00    -0.128 S 
ENDBRANCH   1  32
TORSDOF 3
