REMARK  Name = ZINC23261465
REMARK  8 active torsions:
REMARK  status: ('A' for Active; 'I' for Inactive)
REMARK    1  A    between atoms: C_1  and  C_2
REMARK    2  A    between atoms: C_2  and  C_4
REMARK    3  A    between atoms: C_2  and  N_14
REMARK    4  A    between atoms: C_7  and  S_10
REMARK    5  A    between atoms: S_10  and  N_13
REMARK    6  A    between atoms: N_14  and  C_15
REMARK    7  A    between atoms: N_14  and  S_16
REMARK    8  A    between atoms: S_16  and  C_19
REMARK                            x       y       z     vdW  Elec       q    Type
REMARK                         _______ _______ _______ _____ _____    ______ ____
ROOT
ATOM      1  C   UNL     1      -2.024   2.687   5.690  0.00  0.00    +0.031 C 
ATOM      2  C   UNL     1      -3.156   3.069   4.734  0.00  0.00    +0.106 C 
ENDROOT
BRANCH   2   3
ATOM      3  C   UNL     1      -2.755   2.734   3.321  0.00  0.00    -0.029 A 
ATOM      4  C   UNL     1      -3.441   1.759   2.621  0.00  0.00    +0.007 A 
ATOM      5  C   UNL     1      -3.073   1.452   1.324  0.00  0.00    +0.029 A 
ATOM      6  C   UNL     1      -2.020   2.119   0.728  0.00  0.00    +0.105 A 
ATOM      7  C   UNL     1      -1.331   3.090   1.430  0.00  0.00    +0.029 A 
ATOM      8  C   UNL     1      -1.702   3.402   2.724  0.00  0.00    +0.007 A 
BRANCH   6   9
ATOM      9  S   UNL     1      -1.551   1.726  -0.925  0.00  0.00    +0.056 S 
ATOM     10  O   UNL     1      -1.998   0.400  -1.170  0.00  0.00    -0.153 OA
ATOM     11  O   UNL     1      -0.189   2.109  -1.062  0.00  0.00    -0.153 OA
BRANCH   9  12
ATOM     12  N   UNL     1      -2.423   2.713  -1.929  0.00  0.00    -0.204 NA
ATOM     13  H   UNL     1      -2.158   2.499  -2.974  0.00  0.00    +0.144 HD
ATOM     14  H   UNL     1      -2.193   3.764  -1.700  0.00  0.00    +0.144 HD
ENDBRANCH   9  12
ENDBRANCH   6   9
ENDBRANCH   2   3
BRANCH   2  15
ATOM     15  N   UNL     1      -3.419   4.507   4.840  0.00  0.00    -0.173 NA
ATOM     16  C   UNL     1      -2.325   5.466   4.666  0.00  0.00    +0.132 C 
BRANCH  15  17
ATOM     17  S   UNL     1      -4.952   5.047   5.154  0.00  0.00    +0.061 S 
ATOM     18  O   UNL     1      -5.024   6.376   4.658  0.00  0.00    -0.153 OA
ATOM     19  O   UNL     1      -5.840   4.024   4.725  0.00  0.00    -0.153 OA
BRANCH  17  20
ATOM     20  C   UNL     1      -5.117   5.154   6.905  0.00  0.00    +0.108 A 
ATOM     21  C   UNL     1      -5.580   4.067   7.624  0.00  0.00    +0.048 A 
ATOM     22  C   UNL     1      -5.704   4.149   8.999  0.00  0.00    +0.044 A 
ATOM     23  C   UNL     1      -5.377   5.322   9.655  0.00  0.00    +0.040 A 
ATOM     24  C   UNL     1      -4.919   6.412   8.935  0.00  0.00    +0.044 A 
ATOM     25  C   UNL     1      -4.790   6.327   7.560  0.00  0.00    +0.048 A 
ATOM     26 CL   UNL     1      -4.508   7.884   9.756  0.00  0.00    -0.083 Cl
ATOM     27 CL   UNL     1      -6.278   2.782   9.902  0.00  0.00    -0.083 Cl
ENDBRANCH  17  20
ENDBRANCH  15  17
ENDBRANCH   2  15
TORSDOF 6
