REMARK  Name = ZINC51094937
REMARK  7 active torsions:
REMARK  status: ('A' for Active; 'I' for Inactive)
REMARK    1  A    between atoms: C_1  and  C_2
REMARK    2  A    between atoms: C_2  and  C_3
REMARK    3  A    between atoms: C_2  and  N_4
REMARK    4  A    between atoms: C_7  and  C_10
REMARK    5  A    between atoms: C_10  and  N_11
REMARK    6  A    between atoms: C_12  and  C_14
REMARK    7  A    between atoms: N_20  and  N_21
REMARK                            x       y       z     vdW  Elec       q    Type
REMARK                         _______ _______ _______ _____ _____    ______ ____
ROOT
ATOM      1  N   UNL     1      -4.125  -4.045  -1.684  0.00  0.00    -0.311 N 
ATOM      2  C   UNL     1      -4.367  -5.225  -2.289  0.00  0.00    +0.246 C 
ATOM      3  O   UNL     1      -3.472  -6.038  -2.417  0.00  0.00    -0.270 OA
ATOM      4  H   UNL     1      -4.839  -3.397  -1.582  0.00  0.00    +0.149 HD
ENDROOT
BRANCH   2   5
ATOM      5  C   UNL     1      -5.718  -5.530  -2.797  0.00  0.00    +0.056 A 
ATOM      6  C   UNL     1      -5.983  -6.757  -3.424  0.00  0.00    +0.038 A 
ATOM      7  C   UNL     1      -7.251  -6.998  -3.880  0.00  0.00    +0.083 A 
ATOM      8  C   UNL     1      -8.235  -6.024  -3.710  0.00  0.00    +0.151 A 
ATOM      9  N   UNL     1      -7.958  -4.872  -3.114  0.00  0.00    -0.237 NA
ATOM     10  C   UNL     1      -6.753  -4.604  -2.657  0.00  0.00    +0.126 A 
ATOM     11  N   UNL     1      -9.520  -6.263  -4.170  0.00  0.00    -0.266 N 
ATOM     12 CL   UNL     1      -7.631  -8.500  -4.663  0.00  0.00    -0.080 Cl
ATOM     13  H   UNL     1      -9.730  -7.103  -4.607  0.00  0.00    +0.167 HD
BRANCH  11  14
ATOM     14  N   UNL     1     -10.491  -5.316  -4.008  0.00  0.00    -0.255 NA
ATOM     15  H   UNL     1     -10.211  -4.437  -4.418  0.00  0.00    +0.140 HD
ATOM     16  H   UNL     1     -11.370  -5.630  -4.391  0.00  0.00    +0.140 HD
ENDBRANCH  11  14
ENDBRANCH   2   5
BRANCH   1  17
ATOM     17  C   UNL     1      -2.784  -3.742  -1.179  0.00  0.00    +0.106 C 
BRANCH  17  21
ATOM     18  N   UNL     1      -1.376  -0.512   0.012  0.00  0.00    +0.381 N 
ATOM     19  C   UNL     1      -2.080  -0.104  -1.222  0.00  0.00    -0.078 C 
ATOM     20  C   UNL     1      -3.020  -1.260  -1.611  0.00  0.00    -0.015 C 
ATOM     21  C   UNL     1      -2.780  -2.351  -0.542  0.00  0.00    -0.012 C 
ATOM     22  C   UNL     1      -1.374  -1.998   0.004  0.00  0.00    -0.074 C 
ATOM     23  H   UNL     1      -1.868  -0.170   0.824  0.00  0.00    -0.081 HD
BRANCH  18  25
ATOM     24  C   UNL     1      -0.019   1.526   0.010  0.00  0.00    -0.014 C 
ATOM     25  C   UNL     1       0.002  -0.004   0.002  0.00  0.00    -0.075 C 
ATOM     26  C   UNL     1       0.742  -0.511   1.242  0.00  0.00    -0.014 C 
ENDBRANCH  18  25
ENDBRANCH  17  21
ENDBRANCH   1  17
TORSDOF 5
