REMARK  Name = ZINC19834905
REMARK  10 active torsions:
REMARK  status: ('A' for Active; 'I' for Inactive)
REMARK    1  A    between atoms: C_4  and  C_7
REMARK    2  A    between atoms: C_7  and  C_8
REMARK    3  A    between atoms: C_7  and  N_14
REMARK    4  A    between atoms: N_17  and  C_20
REMARK    5  A    between atoms: C_20  and  C_21
REMARK    6  A    between atoms: C_21  and  C_23
REMARK    7  A    between atoms: C_21  and  O_36
REMARK    8  A    between atoms: C_23  and  O_24
REMARK    9  A    between atoms: O_24  and  C_25
REMARK   10  A    between atoms: C_28  and  C_31
REMARK                            x       y       z     vdW  Elec       q    Type
REMARK                         _______ _______ _______ _____ _____    ______ ____
ROOT
ATOM      1  N   UNL     1      -1.123  -0.749   0.719  0.00  0.00    +0.389 N 
ATOM      2  C   UNL     1      -0.924  -0.115   2.030  0.00  0.00    -0.062 C 
ATOM      3  C   UNL     1      -2.053  -0.537   2.974  0.00  0.00    +0.066 C 
ATOM      4  N   UNL     1      -2.064  -2.001   3.096  0.00  0.00    -0.303 NA
ATOM      5  C   UNL     1      -2.264  -2.635   1.785  0.00  0.00    +0.066 C 
ATOM      6  C   UNL     1      -1.135  -2.213   0.841  0.00  0.00    -0.062 C 
ATOM      7  H   UNL     1      -2.104  -0.432   0.334  0.00  0.00    -0.080 HD
ENDROOT
BRANCH   1   8
ATOM      8  C   UNL     1      -0.101  -0.309  -0.240  0.00  0.00    -0.007 C 
BRANCH   8  12
ATOM      9  C   UNL     1      -0.152   3.954  -0.519  0.00  0.00    +0.000 A 
ATOM     10  C   UNL     1       1.053   3.276  -0.517  0.00  0.00    +0.000 A 
ATOM     11  C   UNL     1       1.069   1.896  -0.427  0.00  0.00    +0.002 A 
ATOM     12  C   UNL     1      -0.119   1.195  -0.338  0.00  0.00    -0.057 A 
ATOM     13  C   UNL     1      -1.324   1.873  -0.346  0.00  0.00    +0.002 A 
ATOM     14  C   UNL     1      -1.340   3.252  -0.431  0.00  0.00    +0.000 A 
ENDBRANCH   8  12
BRANCH   8  15
ATOM     15  C   UNL     1      -0.391  -0.904  -1.593  0.00  0.00    -0.057 A 
ATOM     16  C   UNL     1      -1.694  -0.989  -2.046  0.00  0.00    +0.002 A 
ATOM     17  C   UNL     1      -1.960  -1.531  -3.289  0.00  0.00    +0.000 A 
ATOM     18  C   UNL     1      -0.923  -1.997  -4.076  0.00  0.00    +0.000 A 
ATOM     19  C   UNL     1       0.379  -1.917  -3.621  0.00  0.00    +0.000 A 
ATOM     20  C   UNL     1       0.646  -1.371  -2.380  0.00  0.00    +0.002 A 
ENDBRANCH   8  15
ENDBRANCH   1   8
BRANCH   4  21
ATOM     21  C   UNL     1      -3.087  -2.442   4.054  0.00  0.00    +0.119 C 
BRANCH  21  22
ATOM     22  C   UNL     1      -4.409  -1.732   3.752  0.00  0.00    +0.166 C 
BRANCH  22  23
ATOM     23  O   UNL     1      -4.901  -2.164   2.482  0.00  0.00    -0.387 OA
ATOM     24  H   UNL     1      -5.847  -1.760   2.092  0.00  0.00    +0.210 HD
ENDBRANCH  22  23
BRANCH  22  25
ATOM     25  C   UNL     1      -5.431  -2.073   4.838  0.00  0.00    +0.261 C 
BRANCH  25  26
ATOM     26  O   UNL     1      -6.626  -1.320   4.620  0.00  0.00    -0.489 OA
BRANCH  26  27
ATOM     27  C   UNL     1      -7.642  -1.507   5.504  0.00  0.00    +0.121 A 
ATOM     28  C   UNL     1      -7.491  -2.401   6.554  0.00  0.00    +0.046 A 
ATOM     29  C   UNL     1      -8.518  -2.588   7.455  0.00  0.00    +0.013 A 
ATOM     30  C   UNL     1      -9.713  -1.887   7.304  0.00  0.00    +0.003 A 
ATOM     31  C   UNL     1      -9.863  -0.994   6.245  0.00  0.00    +0.013 A 
ATOM     32  C   UNL     1      -8.830  -0.807   5.350  0.00  0.00    +0.046 A 
BRANCH  30  33
ATOM     33  C   UNL     1     -10.822  -2.091   8.268  0.00  0.00    +0.102 A 
ATOM     34  C   UNL     1     -10.745  -2.958   9.329  0.00  0.00    +0.097 A 
ATOM     35  S   UNL     1     -12.307  -2.744  10.047  0.00  0.00    +0.029 S 
ATOM     36  N   UNL     1     -12.905  -1.679   9.048  0.00  0.00    -0.110 NA
ATOM     37  N   UNL     1     -11.982  -1.459   8.182  0.00  0.00    -0.141 NA
ENDBRANCH  30  33
ENDBRANCH  26  27
ENDBRANCH  25  26
ENDBRANCH  22  25
ENDBRANCH  21  22
ENDBRANCH   4  21
TORSDOF 10
