REMARK  Name = ZINC58903663
REMARK  5 active torsions:
REMARK  status: ('A' for Active; 'I' for Inactive)
REMARK    1  A    between atoms: C_1  and  C_2
REMARK    2  A    between atoms: N_5  and  C_7
REMARK    3  A    between atoms: C_14  and  N_26
REMARK    4  A    between atoms: C_15  and  C_23
REMARK    5  A    between atoms: C_16  and  C_18
REMARK                            x       y       z     vdW  Elec       q    Type
REMARK                         _______ _______ _______ _____ _____    ______ ____
ROOT
ATOM      1  C   UNL     1       0.516   1.530  -0.093  0.00  0.00    +0.068 C 
ATOM      2  C   UNL     1       0.296   0.039  -0.055  0.00  0.00    +0.068 A 
ATOM      3  C   UNL     1       0.169  -0.793  -1.159  0.00  0.00    +0.050 A 
ATOM      4  C   UNL     1      -0.018  -2.070  -0.708  0.00  0.00    +0.230 A 
ATOM      5  N   UNL     1      -0.007  -2.030   0.642  0.00  0.00    -0.200 N 
ATOM      6  N   UNL     1       0.196  -0.695   1.028  0.00  0.00    -0.168 NA
ATOM      7  O   UNL     1      -0.180  -3.126  -1.543  0.00  0.00    -0.423 OA
ATOM      8  C   UNL     1      -0.427  -2.863  -2.841  0.00  0.00    +0.195 C 
ATOM      9  C   UNL     1      -0.266  -1.644  -3.407  0.00  0.00    +0.083 C 
ATOM     10  C   UNL     1       0.216  -0.448  -2.625  0.00  0.00    +0.103 C 
ENDROOT
BRANCH   5  11
ATOM     11  C   UNL     1      -0.166  -3.124   1.503  0.00  0.00    +0.069 A 
ATOM     12  C   UNL     1      -1.013  -4.167   1.154  0.00  0.00    +0.028 A 
ATOM     13  C   UNL     1      -1.167  -5.244   2.005  0.00  0.00    +0.002 A 
ATOM     14  C   UNL     1      -0.478  -5.285   3.203  0.00  0.00    +0.000 A 
ATOM     15  C   UNL     1       0.367  -4.248   3.553  0.00  0.00    +0.002 A 
ATOM     16  C   UNL     1       0.529  -3.171   2.705  0.00  0.00    +0.028 A 
ENDBRANCH   5  11
BRANCH  10  17
ATOM     17  C   UNL     1       1.631  -0.117  -3.025  0.00  0.00    +0.002 A 
ATOM     18  C   UNL     1       2.126   1.035  -3.538  0.00  0.00    +0.012 A 
ATOM     19  C   UNL     1       3.475   1.113  -3.832  0.00  0.00    +0.008 A 
ATOM     20  C   UNL     1       4.262   0.035  -3.599  0.00  0.00    +0.045 A 
ATOM     21  S   UNL     1       3.092  -1.140  -2.937  0.00  0.00    -0.101 S 
ENDBRANCH  10  17
BRANCH   9  22
ATOM     22  C   UNL     1      -0.559  -1.488  -4.772  0.00  0.00    +0.243 C 
ATOM     23  O   UNL     1      -1.613  -0.981  -5.114  0.00  0.00    -0.271 OA
ATOM     24  N   UNL     1       0.326  -1.897  -5.702  0.00  0.00    -0.325 N 
ATOM     25  H   UNL     1       1.165  -2.301  -5.430  0.00  0.00    +0.145 HD
ATOM     26  H   UNL     1       0.124  -1.789  -6.645  0.00  0.00    +0.145 HD
ENDBRANCH   9  22
BRANCH   8  27
ATOM     27  N   UNL     1      -0.867  -3.890  -3.635  0.00  0.00    -0.329 N 
ATOM     28  H   UNL     1      -0.908  -4.792  -3.283  0.00  0.00    +0.145 HD
ATOM     29  H   UNL     1      -1.136  -3.714  -4.551  0.00  0.00    +0.145 HD
ENDBRANCH   8  27
TORSDOF 4
