REMARK  Name = ZINC19534557
REMARK  12 active torsions:
REMARK  status: ('A' for Active; 'I' for Inactive)
REMARK    1  A    between atoms: C_1  and  C_2
REMARK    2  A    between atoms: C_2  and  N_3
REMARK    3  A    between atoms: N_3  and  C_4
REMARK    4  A    between atoms: N_3  and  C_18
REMARK    5  A    between atoms: C_4  and  C_5
REMARK    6  A    between atoms: N_7  and  C_8
REMARK    7  A    between atoms: C_13  and  C_14
REMARK    8  A    between atoms: C_18  and  C_19
REMARK    9  A    between atoms: N_21  and  C_22
REMARK   10  A    between atoms: C_23  and  C_32
REMARK   11  A    between atoms: C_24  and  C_31
REMARK   12  A    between atoms: C_27  and  N_28
REMARK                            x       y       z     vdW  Elec       q    Type
REMARK                         _______ _______ _______ _____ _____    ______ ____
ROOT
ATOM      1  N   UNL     1       2.842   1.840  -1.278  0.00  0.00    +0.391 N 
ATOM      2  H   UNL     1       3.176   1.707  -2.318  0.00  0.00    -0.080 HD
ENDROOT
BRANCH   1   4
ATOM      3  C   UNL     1       1.411   0.893   0.468  0.00  0.00    -0.017 C 
ATOM      4  C   UNL     1       2.039   0.667  -0.909  0.00  0.00    -0.081 C 
ENDBRANCH   1   4
BRANCH   1   5
ATOM      5  C   UNL     1       2.039   3.069  -1.216  0.00  0.00    +0.020 C 
BRANCH   5   6
ATOM      6  C   UNL     1       0.954   3.013  -2.259  0.00  0.00    +0.201 C 
ATOM      7  O   UNL     1       0.926   2.101  -3.058  0.00  0.00    -0.278 OA
ATOM      8  N   UNL     1       0.017   3.981  -2.309  0.00  0.00    -0.287 N 
ATOM      9  H   UNL     1       0.095   4.857  -1.649  0.00  0.00    +0.155 HD
BRANCH   8  10
ATOM     10  C   UNL     1      -1.057   3.870  -3.200  0.00  0.00    +0.045 A 
ATOM     11  C   UNL     1      -1.452   2.621  -3.662  0.00  0.00    +0.024 A 
ATOM     12  C   UNL     1      -2.514   2.515  -4.538  0.00  0.00    +0.002 A 
ATOM     13  C   UNL     1      -3.178   3.652  -4.963  0.00  0.00    +0.001 A 
ATOM     14  C   UNL     1      -2.783   4.897  -4.509  0.00  0.00    +0.014 A 
ATOM     15  C   UNL     1      -1.725   5.009  -3.629  0.00  0.00    +0.076 A 
BRANCH  15  16
ATOM     16  C   UNL     1      -1.295   6.367  -3.136  0.00  0.00    +0.419 C 
ATOM     17  F   UNL     1      -2.112   7.350  -3.704  0.00  0.00    -0.166 F 
ATOM     18  F   UNL     1      -1.408   6.414  -1.742  0.00  0.00    -0.166 F 
ATOM     19  F   UNL     1       0.035   6.597  -3.503  0.00  0.00    -0.166 F 
ENDBRANCH  15  16
ENDBRANCH   8  10
ENDBRANCH   5   6
ENDBRANCH   1   5
BRANCH   1  20
ATOM     20  C   UNL     1       4.037   1.948  -0.431  0.00  0.00    +0.020 C 
BRANCH  20  21
ATOM     21  C   UNL     1       4.956   0.786  -0.707  0.00  0.00    +0.201 C 
ATOM     22  O   UNL     1       4.702   0.013  -1.607  0.00  0.00    -0.278 OA
ATOM     23  N   UNL     1       6.059   0.606   0.045  0.00  0.00    -0.285 N 
ATOM     24  H   UNL     1       6.267   1.281   0.888  0.00  0.00    +0.155 HD
BRANCH  23  25
ATOM     25  C   UNL     1       6.941  -0.441  -0.246  0.00  0.00    +0.067 A 
ATOM     26  C   UNL     1       6.484  -1.753  -0.261  0.00  0.00    -0.024 A 
ATOM     27  C   UNL     1       7.356  -2.784  -0.549  0.00  0.00    -0.046 A 
ATOM     28  C   UNL     1       8.684  -2.511  -0.821  0.00  0.00    +0.006 A 
ATOM     29  C   UNL     1       9.143  -1.207  -0.807  0.00  0.00    +0.035 A 
ATOM     30  C   UNL     1       8.274  -0.171  -0.526  0.00  0.00    +0.148 A 
ATOM     31  C   UNL     1       6.861  -4.207  -0.565  0.00  0.00    +0.044 C 
ATOM     32  C   UNL     1       5.036  -2.050   0.035  0.00  0.00    +0.046 C 
BRANCH  30  33
ATOM     33  N   UNL     1       8.764   1.226  -0.517  0.00  0.00    +0.058 N 
ATOM     34  O   UNL     1       9.910   1.471  -0.849  0.00  0.00    -0.126 OA
ATOM     35  O   UNL     1       8.022   2.129  -0.176  0.00  0.00    -0.126 OA
ENDBRANCH  30  33
ENDBRANCH  23  25
ENDBRANCH  20  21
ENDBRANCH   1  20
TORSDOF 9
