REMARK  Name = ZINC04830504
REMARK  7 active torsions:
REMARK  status: ('A' for Active; 'I' for Inactive)
REMARK    1  A    between atoms: C_1  and  C_2
REMARK    2  A    between atoms: C_7  and  C_8
REMARK    3  A    between atoms: N_9  and  C1*_14
REMARK    4  A    between atoms: C2*_16  and  O2*_26
REMARK    5  A    between atoms: C3*_18  and  O3*_25
REMARK    6  A    between atoms: C4*_20  and  C5*_23
REMARK    7  A    between atoms: C5*_23  and  O5*_24
REMARK                            x       y       z     vdW  Elec       q    Type
REMARK                         _______ _______ _______ _____ _____    ______ ____
ROOT
ATOM      1  C   UNL     1      -4.852   2.179  -0.674  0.00  0.00    +0.044 C 
ATOM      2  C   UNL     1      -3.388   2.493  -0.500  0.00  0.00    -0.045 A 
ATOM      3  C   UNL     1      -2.489   1.470  -0.262  0.00  0.00    +0.031 A 
ATOM      4  C   UNL     1      -1.142   1.758  -0.109  0.00  0.00    +0.065 A 
ATOM      5  C   UNL     1      -0.700   3.081  -0.185  0.00  0.00    +0.070 A 
ATOM      6  C   UNL     1      -1.609   4.100  -0.425  0.00  0.00    +0.031 A 
ATOM      7  C   UNL     1      -2.949   3.803  -0.582  0.00  0.00    -0.045 A 
ATOM      8  C   UNL     1      -3.938   4.910  -0.843  0.00  0.00    +0.044 C 
ATOM      9  N   UNL     1       0.678   3.057   0.012  0.00  0.00    -0.290 N 
ATOM     10  C   UNL     1       1.057   1.779   0.205  0.00  0.00    +0.161 A 
ATOM     11  S   UNL     1       2.663   1.259   0.488  0.00  0.00    -0.013 S 
ATOM     12  N   UNL     1      -0.020   0.973   0.141  0.00  0.00    -0.334 N 
ATOM     13  H   UNL     1      -0.014   0.009   0.247  0.00  0.00    +0.168 HD
ENDROOT
BRANCH   9  14
ATOM     14  C1* UNL     1       1.565   4.223   0.009  0.00  0.00    +0.253 C 
ATOM     15  C2* UNL     1       2.540   4.154  -1.187  0.00  0.00    +0.195 C 
ATOM     16  C3* UNL     1       1.847   4.992  -2.284  0.00  0.00    +0.178 C 
ATOM     17  C4* UNL     1       0.536   5.468  -1.621  0.00  0.00    +0.177 C 
ATOM     18  O4* UNL     1       0.805   5.432  -0.203  0.00  0.00    -0.346 OA
BRANCH  16  19
ATOM     19  O3* UNL     1       2.661   6.109  -2.650  0.00  0.00    -0.386 OA
ATOM     20  H3* UNL     1       2.274   6.669  -3.336  0.00  0.00    +0.210 HD
ENDBRANCH  16  19
BRANCH  15  21
ATOM     21  O2* UNL     1       2.707   2.802  -1.620  0.00  0.00    -0.385 OA
ATOM     22  H2* UNL     1       3.310   2.701  -2.369  0.00  0.00    +0.210 HD
ENDBRANCH  15  21
BRANCH  17  23
ATOM     23  C5* UNL     1       0.201   6.893  -2.066  0.00  0.00    +0.190 C 
BRANCH  23  24
ATOM     24  O5* UNL     1      -1.071   7.271  -1.536  0.00  0.00    -0.392 OA
ATOM     25  H5* UNL     1      -1.349   8.165  -1.778  0.00  0.00    +0.210 HD
ENDBRANCH  23  24
ENDBRANCH  17  23
ENDBRANCH   9  14
TORSDOF 5
