REMARK  Name = ZINC64683367
REMARK  9 active torsions:
REMARK  status: ('A' for Active; 'I' for Inactive)
REMARK    1  A    between atoms: C_1  and  C_2
REMARK    2  A    between atoms: C_2  and  C_4
REMARK    3  A    between atoms: C_2  and  N_14
REMARK    4  A    between atoms: C_15  and  C_17
REMARK    5  A    between atoms: C_17  and  N_18
REMARK    6  A    between atoms: N_21  and  CA_22
REMARK    7  A    between atoms: CA_22  and  CB_24
REMARK    8  A    between atoms: CA_22  and  C_34
REMARK    9  A    between atoms: CB_24  and  CG_25
REMARK                            x       y       z     vdW  Elec       q    Type
REMARK                         _______ _______ _______ _____ _____    ______ ____
ROOT
ATOM      1  N   UNK A   0       4.223  -1.127   2.126  0.00  0.00    -0.291 N 
ATOM      2  C   UNK A   0       5.078  -1.542   3.081  0.00  0.00    +0.301 C 
ATOM      3  O   UNK A   0       4.655  -1.893   4.166  0.00  0.00    -0.253 OA
ATOM      4  N   TRP A   1       6.403  -1.569   2.834  0.00  0.00    -0.286 N 
ATOM      5  H   UNK A   0       4.560  -0.847   1.261  0.00  0.00    +0.151 HD
ATOM      6  H   TRP A   1       6.740  -1.288   1.969  0.00  0.00    +0.151 HD
ENDROOT
BRANCH   1   7
ATOM      7  C   UNK A   0       2.783  -1.099   2.395  0.00  0.00    +0.201 C 
BRANCH   7   9
ATOM      8  N   UNK A   0       0.711  -0.489   1.189  0.00  0.00    -0.307 N 
ATOM      9  C   UNK A   0       2.054  -0.600   1.174  0.00  0.00    +0.231 C 
ATOM     10  O   UNK A   0       2.676  -0.297   0.177  0.00  0.00    -0.274 OA
ATOM     11  H   UNK A   0       0.213  -0.731   1.986  0.00  0.00    +0.149 HD
BRANCH   8  13
ATOM     12  C   UNK A   0      -0.019   1.526   0.010  0.00  0.00    +0.033 C 
ATOM     13  C   UNK A   0       0.002  -0.004   0.002  0.00  0.00    +0.100 C 
BRANCH  13  14
ATOM     14  C   UNK A   0      -1.412  -0.526   0.013  0.00  0.00    -0.027 A 
ATOM     15  C   UNK A   0      -2.119  -0.567   1.213  0.00  0.00    +0.006 A 
ATOM     16  C   UNK A   0      -3.397  -1.032   1.257  0.00  0.00    +0.009 A 
ATOM     17  C   UNK A   0      -4.016  -1.479   0.077  0.00  0.00    -0.018 A 
ATOM     18  C   UNK A   0      -5.334  -1.966   0.084  0.00  0.00    +0.008 A 
ATOM     19  C   UNK A   0      -5.901  -2.389  -1.079  0.00  0.00    +0.001 A 
ATOM     20  C   UNK A   0      -5.194  -2.348  -2.279  0.00  0.00    +0.001 A 
ATOM     21  C   UNK A   0      -3.916  -1.883  -2.324  0.00  0.00    +0.008 A 
ATOM     22  C   UNK A   0      -3.297  -1.437  -1.143  0.00  0.00    -0.018 A 
ATOM     23  C   UNK A   0      -1.980  -0.944  -1.151  0.00  0.00    +0.014 A 
ENDBRANCH  13  14
ENDBRANCH   8  13
ENDBRANCH   7   9
ENDBRANCH   1   7
BRANCH   4  24
ATOM     24  CA  TRP A   1       7.333  -2.020   3.873  0.00  0.00    +0.191 C 
BRANCH  24  25
ATOM     25  C   TRP A   1       7.671  -0.865   4.780  0.00  0.00    +0.376 C 
ATOM     26  O   TRP A   1       7.943  -1.070   5.951  0.00  0.00    -0.244 OA
ATOM     27  OXT TRP A   1       7.673   0.273   4.344  0.00  0.00    -0.244 OA
ENDBRANCH  24  25
BRANCH  24  28
ATOM     28  CB  TRP A   1       8.612  -2.546   3.218  0.00  0.00    +0.067 C 
BRANCH  28  29
ATOM     29  CG  TRP A   1       8.292  -3.775   2.407  0.00  0.00    -0.039 C 
ATOM     30  CD2 TRP A   1       8.028  -3.829   1.082  0.00  0.00    -0.001 A 
ATOM     31  CE3 TRP A   1       7.961  -2.799   0.038  0.00  0.00    +0.010 A 
ATOM     32  CZ3 TRP A   1       7.666  -3.167  -1.229  0.00  0.00    +0.001 A 
ATOM     33  CH2 TRP A   1       7.423  -4.505  -1.570  0.00  0.00    +0.002 A 
ATOM     34  CZ2 TRP A   1       7.467  -5.507  -0.667  0.00  0.00    +0.026 A 
ATOM     35  CE2 TRP A   1       7.768  -5.234   0.695  0.00  0.00    +0.043 A 
ATOM     36  NE1 TRP A   1       7.867  -6.019   1.741  0.00  0.00    -0.380 N 
ATOM     37  CD1 TRP A   1       8.208  -5.199   2.910  0.00  0.00    +0.144 C 
ATOM     38  HE1 TRP A   1       7.741  -6.980   1.742  0.00  0.00    +0.160 HD
ENDBRANCH  28  29
ENDBRANCH  24  28
ENDBRANCH   4  24
TORSDOF 8
