REMARK  Name = ZINC06408646
REMARK  9 active torsions:
REMARK  status: ('A' for Active; 'I' for Inactive)
REMARK    1  A    between atoms: C_1  and  C_2
REMARK    2  A    between atoms: C_9  and  C_14
REMARK    3  A    between atoms: C_14  and  C_16
REMARK    4  A    between atoms: C_14  and  N_70
REMARK    5  A    between atoms: N_20  and  C_21
REMARK    6  A    between atoms: C_27  and  C_28
REMARK    7  A    between atoms: C_27  and  N_70
REMARK    8  A    between atoms: C_34  and  C_35
REMARK    9  A    between atoms: C_34  and  N_70
REMARK                            x       y       z     vdW  Elec       q    Type
REMARK                         _______ _______ _______ _____ _____    ______ ____
ROOT
ATOM      1  C   UNL     1       4.406   0.430  -2.211  0.00  0.00    +0.040 C 
ENDROOT
BRANCH   1  10
ATOM      2  C   UNL     1       7.681  -0.332  -8.868  0.00  0.00    +0.044 C 
ATOM      3  C   UNL     1       6.527  -0.591  -7.934  0.00  0.00    -0.050 A 
ATOM      4  C   UNL     1       5.436  -1.328  -8.375  0.00  0.00    +0.005 A 
ATOM      5  C   UNL     1       4.371  -1.577  -7.537  0.00  0.00    +0.026 A 
ATOM      6  C   UNL     1       4.386  -1.084  -6.236  0.00  0.00    +0.049 A 
ATOM      7  C   UNL     1       5.493  -0.337  -5.793  0.00  0.00    -0.001 A 
ATOM      8  C   UNL     1       6.564  -0.097  -6.661  0.00  0.00    +0.013 A 
ATOM      9  C   UNL     1       5.496   0.182  -4.424  0.00  0.00    +0.017 A 
ATOM     10  C   UNL     1       4.432  -0.085  -3.627  0.00  0.00    +0.011 A 
ATOM     11  C   UNL     1       3.347  -0.840  -4.121  0.00  0.00    +0.251 A 
ATOM     12  O   UNL     1       2.398  -1.065  -3.389  0.00  0.00    -0.268 OA
ATOM     13  N   UNL     1       3.332  -1.317  -5.378  0.00  0.00    -0.322 N 
ATOM     14  H   UNL     1       2.570  -1.832  -5.685  0.00  0.00    +0.169 HD
ENDBRANCH   1  10
BRANCH   1  15
ATOM     15  C   UNL     1       3.329   1.476  -2.077  0.00  0.00    +0.143 A 
ATOM     16  N   UNL     1       2.069   1.349  -2.415  0.00  0.00    -0.115 NA
ATOM     17  N   UNL     1       1.471   2.458  -2.145  0.00  0.00    -0.023 NA
ATOM     18  N   UNL     1       2.319   3.291  -1.650  0.00  0.00    -0.044 NA
ATOM     19  N   UNL     1       3.476   2.723  -1.593  0.00  0.00    -0.227 N 
BRANCH  19  20
ATOM     20  C   UNL     1       4.716   3.322  -1.093  0.00  0.00    +0.111 C 
ATOM     21  C   UNL     1       4.540   3.707   0.377  0.00  0.00    +0.027 C 
ATOM     22  C   UNL     1       5.835   4.333   0.899  0.00  0.00    +0.002 C 
ATOM     23  C   UNL     1       6.163   5.583   0.081  0.00  0.00    +0.000 C 
ATOM     24  C   UNL     1       6.338   5.199  -1.390  0.00  0.00    +0.002 C 
ATOM     25  C   UNL     1       5.043   4.573  -1.912  0.00  0.00    +0.027 C 
ENDBRANCH  19  20
ENDBRANCH   1  15
BRANCH   1  26
ATOM     26  N   UNL     1       4.106  -0.695  -1.301  0.00  0.00    +0.395 N 
ATOM     27  H   UNL     1       3.302  -1.216  -1.670  0.00  0.00    -0.079 HD
BRANCH  26  28
ATOM     28  C   UNL     1       3.768  -0.180   0.043  0.00  0.00    -0.041 C 
BRANCH  28  29
ATOM     29  C   UNL     1       2.281   0.054   0.107  0.00  0.00    -0.064 A 
ATOM     30  C   UNL     1       1.408  -1.009  -0.030  0.00  0.00    +0.002 A 
ATOM     31  C   UNL     1       0.043  -0.794   0.029  0.00  0.00    +0.000 A 
ATOM     32  C   UNL     1      -0.447   0.483   0.225  0.00  0.00    +0.000 A 
ATOM     33  C   UNL     1       0.426   1.546   0.362  0.00  0.00    +0.000 A 
ATOM     34  C   UNL     1       1.790   1.331   0.303  0.00  0.00    +0.002 A 
ENDBRANCH  28  29
ENDBRANCH  26  28
BRANCH  26  35
ATOM     35  C   UNL     1       5.270  -1.601  -1.218  0.00  0.00    -0.034 C 
BRANCH  35  36
ATOM     36  C   UNL     1       5.245  -2.527  -2.406  0.00  0.00    -0.027 A 
ATOM     37  C   UNL     1       5.934  -2.441  -3.571  0.00  0.00    +0.009 A 
ATOM     38  C   UNL     1       5.751  -3.417  -4.532  0.00  0.00    +0.008 A 
ATOM     39  C   UNL     1       4.889  -4.433  -4.281  0.00  0.00    +0.045 A 
ATOM     40  S   UNL     1       4.307  -4.028  -2.643  0.00  0.00    -0.103 S 
ENDBRANCH  35  36
ENDBRANCH  26  35
ENDBRANCH   1  26
TORSDOF 8
