REMARK  Name = ZINC02156860
REMARK  8 active torsions:
REMARK  status: ('A' for Active; 'I' for Inactive)
REMARK    1  A    between atoms: C_1  and  N_2
REMARK    2  A    between atoms: N_2  and  C_3
REMARK    3  A    between atoms: C_3  and  N_5
REMARK    4  A    between atoms: N_5  and  N_6
REMARK    5  A    between atoms: C_7  and  C_9
REMARK    6  A    between atoms: C_12  and  S_14
REMARK    7  A    between atoms: S_14  and  C_15
REMARK    8  A    between atoms: C_16  and  O_21
REMARK                            x       y       z     vdW  Elec       q    Type
REMARK                         _______ _______ _______ _____ _____    ______ ____
ROOT
ATOM      1  C   UNL     1       4.399   2.141  -0.028  0.00  0.00    +0.080 A 
ATOM      2  C   UNL     1       3.742   3.376  -0.015  0.00  0.00    -0.021 A 
ATOM      3  C   UNL     1       2.356   3.370  -0.002  0.00  0.00    +0.005 A 
ATOM      4  C   UNL     1       1.708   2.135  -0.003  0.00  0.00    +0.051 A 
ATOM      5  S   UNL     1       3.056   0.973  -0.014  0.00  0.00    -0.077 S 
ATOM      6  C   UNL     1       1.522   4.650   0.013  0.00  0.00    +0.146 C 
ATOM      7  C   UNL     1       2.401   5.823  -0.419  0.00  0.00    +0.036 C 
ATOM      8  C   UNL     1       3.679   5.824   0.425  0.00  0.00    +0.007 C 
ATOM      9  C   UNL     1       4.566   4.661  -0.017  0.00  0.00    +0.037 C 
ENDROOT
BRANCH   1  11
ATOM     10  N   UNL     1       6.242   0.613  -0.052  0.00  0.00    -0.231 N 
ATOM     11  C   UNL     1       5.792   1.883  -0.041  0.00  0.00    +0.267 C 
ATOM     12  O   UNL     1       6.582   2.810  -0.043  0.00  0.00    -0.268 OA
ATOM     13  H   UNL     1       5.612  -0.125  -0.050  0.00  0.00    +0.173 HD
BRANCH  10  14
ATOM     14  N   UNL     1       7.619   0.358  -0.065  0.00  0.00    -0.246 N 
ATOM     15  H   UNL     1       8.249   1.096  -0.066  0.00  0.00    +0.172 HD
BRANCH  14  16
ATOM     16  C   UNL     1       8.070  -0.912  -0.076  0.00  0.00    +0.147 C 
ATOM     17  S   UNL     1       9.753  -1.224  -0.092  0.00  0.00    -0.017 S 
BRANCH  16  19
ATOM     18  C   UNL     1       7.684  -3.318  -0.086  0.00  0.00    +0.127 C 
ATOM     19  N   UNL     1       7.194  -1.937  -0.074  0.00  0.00    -0.329 N 
ATOM     20  H   UNL     1       6.241  -1.761  -0.065  0.00  0.00    +0.147 HD
ENDBRANCH  16  19
ENDBRANCH  14  16
ENDBRANCH  10  14
ENDBRANCH   1  11
BRANCH   4  21
ATOM     21  S   UNL     1      -0.022   1.806   0.012  0.00  0.00    -0.121 S 
ATOM     22  C   UNL     1       0.002  -0.004   0.002  0.00  0.00    +0.090 C 
ENDBRANCH   4  21
BRANCH   6  23
ATOM     23  O   UNL     1       0.425   4.516  -0.894  0.00  0.00    -0.387 OA
ATOM     24  H   UNL     1      -0.148   5.294  -0.935  0.00  0.00    +0.210 HD
ENDBRANCH   6  23
TORSDOF 6
