REMARK  Name = ZINC59170419
REMARK  9 active torsions:
REMARK  status: ('A' for Active; 'I' for Inactive)
REMARK    1  A    between atoms: C_1  and  C_2
REMARK    2  A    between atoms: C_5  and  N_8
REMARK    3  A    between atoms: C_9  and  C_11
REMARK    4  A    between atoms: C_16  and  O_33
REMARK    5  A    between atoms: N_21  and  N_22
REMARK    6  A    between atoms: N_22  and  S_23
REMARK    7  A    between atoms: S_23  and  C_26
REMARK    8  A    between atoms: C_29  and  C_32
REMARK    9  A    between atoms: O_33  and  C_34
REMARK                            x       y       z     vdW  Elec       q    Type
REMARK                         _______ _______ _______ _____ _____    ______ ____
ROOT
ATOM      1  C   UNL     1       0.721  -6.426   0.945  0.00  0.00    +0.099 A 
ATOM      2  C   UNL     1       0.679  -7.070   2.161  0.00  0.00    +0.030 A 
ATOM      3  C   UNL     1       0.238  -8.468   2.175  0.00  0.00    +0.018 A 
ATOM      4  C   UNL     1      -0.086  -9.101   3.380  0.00  0.00    +0.015 A 
ATOM      5  C   UNL     1      -0.499 -10.404   3.373  0.00  0.00    +0.046 A 
ATOM      6  C   UNL     1      -0.599 -11.106   2.176  0.00  0.00    +0.124 A 
ATOM      7  C   UNL     1      -0.280 -10.493   0.972  0.00  0.00    +0.092 A 
ATOM      8  C   UNL     1       0.140  -9.175   0.962  0.00  0.00    +0.141 A 
ATOM      9  O   UNL     1       0.461  -8.561  -0.205  0.00  0.00    -0.437 OA
ATOM     10  C   UNL     1       0.309  -7.203  -0.247  0.00  0.00    +0.225 A 
ATOM     11  N   UNL     1      -0.177  -6.610  -1.301  0.00  0.00    -0.260 N 
ATOM     12  H   UNL     1      -0.402  -5.667  -1.266  0.00  0.00    +0.189 HD
ENDROOT
BRANCH   1  14
ATOM     13  N   UNL     1       1.348  -4.290   1.948  0.00  0.00    -0.281 N 
ATOM     14  C   UNL     1       1.150  -5.024   0.835  0.00  0.00    +0.253 C 
ATOM     15  O   UNL     1       1.328  -4.526  -0.261  0.00  0.00    -0.270 OA
ATOM     16  H   UNL     1       1.307  -4.712   2.821  0.00  0.00    +0.155 HD
BRANCH  13  21
ATOM     17  C   UNL     1       2.415   1.265   1.532  0.00  0.00    +0.044 C 
ATOM     18  C   UNL     1       2.131  -0.211   1.643  0.00  0.00    -0.050 A 
ATOM     19  C   UNL     1       1.526  -0.714   2.780  0.00  0.00    +0.005 A 
ATOM     20  C   UNL     1       1.265  -2.066   2.884  0.00  0.00    +0.023 A 
ATOM     21  C   UNL     1       1.611  -2.921   1.845  0.00  0.00    +0.034 A 
ATOM     22  C   UNL     1       2.218  -2.412   0.705  0.00  0.00    +0.023 A 
ATOM     23  C   UNL     1       2.472  -1.058   0.604  0.00  0.00    +0.005 A 
ENDBRANCH  13  21
ENDBRANCH   1  14
BRANCH  11  24
ATOM     24  N   UNL     1      -0.375  -7.335  -2.483  0.00  0.00    -0.157 N 
ATOM     25  H   UNL     1      -0.228  -8.293  -2.495  0.00  0.00    +0.194 HD
BRANCH  24  26
ATOM     26  S   UNL     1      -0.860  -6.554  -3.861  0.00  0.00    +0.085 S 
ATOM     27  O   UNL     1      -0.675  -7.469  -4.933  0.00  0.00    -0.149 OA
ATOM     28  O   UNL     1      -2.119  -5.964  -3.572  0.00  0.00    -0.149 OA
BRANCH  26  29
ATOM     29  C   UNL     1       0.268  -5.227  -4.132  0.00  0.00    +0.110 A 
ATOM     30  C   UNL     1       0.033  -3.993  -3.557  0.00  0.00    +0.029 A 
ATOM     31  C   UNL     1       0.918  -2.952  -3.769  0.00  0.00    +0.005 A 
ATOM     32  C   UNL     1       2.037  -3.146  -4.557  0.00  0.00    -0.050 A 
ATOM     33  C   UNL     1       2.272  -4.381  -5.132  0.00  0.00    +0.005 A 
ATOM     34  C   UNL     1       1.389  -5.423  -4.916  0.00  0.00    +0.029 A 
ATOM     35  C   UNL     1       3.001  -2.011  -4.790  0.00  0.00    +0.044 C 
ENDBRANCH  26  29
ENDBRANCH  24  26
ENDBRANCH  11  24
BRANCH   6  36
ATOM     36  O   UNL     1      -1.011 -12.399   2.185  0.00  0.00    -0.495 OA
ATOM     37  C   UNL     1      -1.323 -12.972   3.457  0.00  0.00    +0.277 C 
ENDBRANCH   6  36
TORSDOF 6
