REMARK  Name = ZINC26368894
REMARK  8 active torsions:
REMARK  status: ('A' for Active; 'I' for Inactive)
REMARK    1  A    between atoms: C_4  and  N_7
REMARK    2  A    between atoms: C_8  and  C_27
REMARK    3  A    between atoms: C_11  and  S_12
REMARK    4  A    between atoms: S_12  and  C_13
REMARK    5  A    between atoms: C_13  and  C_14
REMARK    6  A    between atoms: C_14  and  C_15
REMARK    7  A    between atoms: N_17  and  C_18
REMARK    8  A    between atoms: C_21  and  N_24
REMARK                            x       y       z     vdW  Elec       q    Type
REMARK                         _______ _______ _______ _____ _____    ______ ____
ROOT
ATOM      1  N   UNL     1       3.220  -1.006   0.391  0.00  0.00    -0.270 N 
ATOM      2  C   UNL     1       3.546  -2.046  -0.452  0.00  0.00    +0.169 A 
ATOM      3  N   UNL     1       4.705  -2.517  -0.052  0.00  0.00    -0.128 NA
ATOM      4  N   UNL     1       5.121  -1.855   0.968  0.00  0.00    -0.122 NA
ATOM      5  C   UNL     1       4.257  -0.914   1.280  0.00  0.00    +0.196 A 
ENDROOT
BRANCH   2   6
ATOM      6  C   UNL     1       2.743  -2.538  -1.591  0.00  0.00    +0.020 A 
ATOM      7  C   UNL     1       1.739  -1.738  -2.138  0.00  0.00    +0.014 A 
ATOM      8  C   UNL     1       0.993  -2.202  -3.200  0.00  0.00    +0.039 A 
ATOM      9  C   UNL     1       1.238  -3.461  -3.725  0.00  0.00    +0.123 A 
ATOM     10  C   UNL     1       2.234  -4.260  -3.186  0.00  0.00    +0.039 A 
ATOM     11  C   UNL     1       2.991  -3.803  -2.127  0.00  0.00    +0.014 A 
ATOM     12  F   UNL     1       0.504  -3.912  -4.766  0.00  0.00    -0.205 F 
ENDBRANCH   2   6
BRANCH   1  16
ATOM     13  C   UNL     1      -0.199   1.375   0.252  0.00  0.00    +0.000 A 
ATOM     14  C   UNL     1       1.036   1.923  -0.041  0.00  0.00    +0.002 A 
ATOM     15  C   UNL     1       2.171   1.137   0.004  0.00  0.00    +0.026 A 
ATOM     16  C   UNL     1       2.071  -0.205   0.345  0.00  0.00    +0.051 A 
ATOM     17  C   UNL     1       0.829  -0.753   0.639  0.00  0.00    +0.026 A 
ATOM     18  C   UNL     1      -0.302   0.038   0.592  0.00  0.00    +0.002 A 
ENDBRANCH   1  16
BRANCH   5  19
ATOM     19  S   UNL     1       4.405   0.245   2.598  0.00  0.00    -0.085 S 
BRANCH  19  20
ATOM     20  C   UNL     1       5.989  -0.174   3.376  0.00  0.00    +0.086 C 
BRANCH  20  21
ATOM     21  C   UNL     1       6.245   0.769   4.553  0.00  0.00    +0.107 C 
BRANCH  21  22
ATOM     22  C   UNL     1       7.562   0.422   5.198  0.00  0.00    +0.218 C 
ATOM     23  O   UNL     1       8.230  -0.491   4.760  0.00  0.00    -0.275 OA
ATOM     24  N   UNL     1       7.997   1.125   6.263  0.00  0.00    -0.285 N 
ATOM     25  H   UNL     1       7.432   1.808   6.656  0.00  0.00    +0.155 HD
BRANCH  24  26
ATOM     26  C   UNL     1       9.263   0.869   6.800  0.00  0.00    +0.034 A 
ATOM     27  C   UNL     1       9.479   1.000   8.165  0.00  0.00    +0.025 A 
ATOM     28  C   UNL     1      10.730   0.746   8.693  0.00  0.00    +0.034 A 
ATOM     29  C   UNL     1      11.767   0.362   7.862  0.00  0.00    +0.126 A 
ATOM     30  C   UNL     1      11.556   0.231   6.502  0.00  0.00    +0.034 A 
ATOM     31  C   UNL     1      10.305   0.477   5.970  0.00  0.00    +0.025 A 
BRANCH  29  32
ATOM     32  N   UNL     1      13.107   0.091   8.431  0.00  0.00    +0.056 N 
ATOM     33  O   UNL     1      13.294   0.206   9.620  0.00  0.00    -0.126 OA
ATOM     34  O   UNL     1      14.014  -0.244   7.706  0.00  0.00    -0.126 OA
ENDBRANCH  29  32
ENDBRANCH  24  26
ENDBRANCH  21  22
ENDBRANCH  20  21
ENDBRANCH  19  20
ENDBRANCH   5  19
TORSDOF 8
