REMARK  Name = ZINC28441402
REMARK  8 active torsions:
REMARK  status: ('A' for Active; 'I' for Inactive)
REMARK    1  A    between atoms: C_1  and  C_2
REMARK    2  A    between atoms: C_2  and  C_3
REMARK    3  A    between atoms: C_3  and  S_4
REMARK    4  A    between atoms: S_4  and  N_7
REMARK    5  A    between atoms: C_11  and  C_13
REMARK    6  A    between atoms: N_15  and  C_16
REMARK    7  A    between atoms: C_16  and  C_18
REMARK    8  A    between atoms: C_16  and  C_19
REMARK                            x       y       z     vdW  Elec       q    Type
REMARK                         _______ _______ _______ _____ _____    ______ ____
ROOT
ATOM      1  C   UNL     1      -0.064  -1.825   4.335  0.00  0.00    +0.232 C 
ATOM      2  O   UNL     1      -0.116  -0.854   3.611  0.00  0.00    -0.274 OA
ATOM      3  N   UNL     1      -0.727  -1.827   5.509  0.00  0.00    -0.304 N 
ATOM      4  H   UNL     1      -0.686  -2.604   6.088  0.00  0.00    +0.149 HD
ENDROOT
BRANCH   1   9
ATOM      5  N   UNL     1       0.818  -3.103   2.457  0.00  0.00    -0.169 NA
ATOM      6  C   UNL     1       2.235  -3.046   2.053  0.00  0.00    +0.110 C 
ATOM      7  C   UNL     1       2.953  -2.336   3.228  0.00  0.00    +0.019 C 
ATOM      8  C   UNL     1       2.186  -2.905   4.451  0.00  0.00    +0.031 C 
ATOM      9  C   UNL     1       0.741  -3.030   3.923  0.00  0.00    +0.165 C 
BRANCH   5  10
ATOM     10  S   UNL     1      -0.475  -3.222   1.428  0.00  0.00    +0.032 S 
ATOM     11  O   UNL     1      -0.066  -2.536   0.252  0.00  0.00    -0.158 OA
ATOM     12  O   UNL     1      -1.585  -2.762   2.186  0.00  0.00    -0.158 OA
BRANCH  10  13
ATOM     13  C   UNL     1      -0.640  -4.996   1.090  0.00  0.00    +0.185 C 
BRANCH  13  15
ATOM     14  C   UNL     1      -1.969  -6.726  -0.129  0.00  0.00    +0.005 C 
ATOM     15  C   UNL     1      -1.830  -5.229   0.156  0.00  0.00    +0.021 C 
ENDBRANCH  13  15
ENDBRANCH  10  13
ENDBRANCH   5  10
ENDBRANCH   1   9
BRANCH   3  16
ATOM     16  C   UNL     1      -1.510  -0.656   5.910  0.00  0.00    +0.136 C 
ATOM     17  C   UNL     1      -2.906  -0.739   5.288  0.00  0.00    +0.036 C 
BRANCH  16  18
ATOM     18  C   UNL     1      -1.630  -0.621   7.411  0.00  0.00    +0.126 A 
ATOM     19  C   UNL     1      -1.557   0.487   8.161  0.00  0.00    +0.055 A 
ATOM     20  C   UNL     1      -1.725   0.051   9.553  0.00  0.00    +0.020 A 
ATOM     21  C   UNL     1      -1.747   0.705  10.784  0.00  0.00    +0.011 A 
ATOM     22  C   UNL     1      -1.929  -0.016  11.931  0.00  0.00    +0.001 A 
ATOM     23  C   UNL     1      -2.092  -1.393  11.878  0.00  0.00    +0.004 A 
ATOM     24  C   UNL     1      -2.073  -2.057  10.670  0.00  0.00    +0.047 A 
ATOM     25  C   UNL     1      -1.890  -1.343   9.492  0.00  0.00    +0.135 A 
ATOM     26  O   UNL     1      -1.831  -1.697   8.192  0.00  0.00    -0.458 OA
ENDBRANCH  16  18
ENDBRANCH   3  16
TORSDOF 6
