REMARK  Name = ZINC06409349
REMARK  10 active torsions:
REMARK  status: ('A' for Active; 'I' for Inactive)
REMARK    1  A    between atoms: C_1  and  C_2
REMARK    2  A    between atoms: C_9  and  C_14
REMARK    3  A    between atoms: C_14  and  C_16
REMARK    4  A    between atoms: C_14  and  N_68
REMARK    5  A    between atoms: N_20  and  C_21
REMARK    6  A    between atoms: C_21  and  C_22
REMARK    7  A    between atoms: C_28  and  C_29
REMARK    8  A    between atoms: C_28  and  N_68
REMARK    9  A    between atoms: C_34  and  C_35
REMARK   10  A    between atoms: C_34  and  N_68
REMARK                            x       y       z     vdW  Elec       q    Type
REMARK                         _______ _______ _______ _____ _____    ______ ____
ROOT
ATOM      1  C   UNL     1      -4.049   3.155   2.315  0.00  0.00    +0.039 C 
ENDROOT
BRANCH   1  10
ATOM      2  C   UNL     1      -9.941   3.144  -2.256  0.00  0.00    +0.044 C 
ATOM      3  C   UNL     1      -9.296   2.785  -0.942  0.00  0.00    -0.050 A 
ATOM      4  C   UNL     1     -10.030   2.106   0.021  0.00  0.00    +0.005 A 
ATOM      5  C   UNL     1      -9.461   1.769   1.230  0.00  0.00    +0.026 A 
ATOM      6  C   UNL     1      -8.138   2.111   1.490  0.00  0.00    +0.049 A 
ATOM      7  C   UNL     1      -7.397   2.799   0.510  0.00  0.00    -0.001 A 
ATOM      8  C   UNL     1      -7.996   3.131  -0.710  0.00  0.00    +0.013 A 
ATOM      9  C   UNL     1      -6.007   3.159   0.795  0.00  0.00    +0.017 A 
ATOM     10  C   UNL     1      -5.478   2.805   1.993  0.00  0.00    +0.011 A 
ATOM     11  C   UNL     1      -6.264   2.115   2.940  0.00  0.00    +0.251 A 
ATOM     12  O   UNL     1      -5.771   1.811   4.013  0.00  0.00    -0.268 OA
ATOM     13  N   UNL     1      -7.543   1.784   2.690  0.00  0.00    -0.322 N 
ATOM     14  H   UNL     1      -8.055   1.310   3.364  0.00  0.00    +0.169 HD
ENDBRANCH   1  10
BRANCH   1  15
ATOM     15  C   UNL     1      -3.276   1.895   2.608  0.00  0.00    +0.143 A 
ATOM     16  N   UNL     1      -3.398   1.131   3.666  0.00  0.00    -0.115 NA
ATOM     17  N   UNL     1      -2.567   0.153   3.549  0.00  0.00    -0.023 NA
ATOM     18  N   UNL     1      -1.922   0.271   2.441  0.00  0.00    -0.044 NA
ATOM     19  N   UNL     1      -2.327   1.336   1.835  0.00  0.00    -0.226 N 
BRANCH  19  20
ATOM     20  C   UNL     1      -1.847   1.839   0.546  0.00  0.00    +0.182 C 
BRANCH  20  21
ATOM     21  C   UNL     1      -0.596   2.652   0.757  0.00  0.00    -0.026 A 
ATOM     22  C   UNL     1       0.642   2.038   0.716  0.00  0.00    +0.005 A 
ATOM     23  C   UNL     1       1.790   2.785   0.905  0.00  0.00    +0.000 A 
ATOM     24  C   UNL     1       1.700   4.144   1.140  0.00  0.00    +0.000 A 
ATOM     25  C   UNL     1       0.462   4.757   1.186  0.00  0.00    +0.000 A 
ATOM     26  C   UNL     1      -0.686   4.011   0.997  0.00  0.00    +0.005 A 
ENDBRANCH  20  21
ENDBRANCH  19  20
ENDBRANCH   1  15
BRANCH   1  27
ATOM     27  N   UNL     1      -4.023   4.021   3.513  0.00  0.00    +0.394 N 
ATOM     28  H   UNL     1      -4.369   3.486   4.319  0.00  0.00    -0.080 HD
BRANCH  27  29
ATOM     29  C   UNL     1      -2.640   4.463   3.788  0.00  0.00    -0.034 C 
BRANCH  29  30
ATOM     30  C   UNL     1      -1.910   3.349   4.495  0.00  0.00    -0.027 A 
ATOM     31  C   UNL     1      -0.894   2.574   4.044  0.00  0.00    +0.009 A 
ATOM     32  C   UNL     1      -0.370   1.604   4.879  0.00  0.00    +0.008 A 
ATOM     33  C   UNL     1      -0.895   1.451   6.119  0.00  0.00    +0.045 A 
ATOM     34  S   UNL     1      -2.165   2.705   6.140  0.00  0.00    -0.103 S 
ENDBRANCH  29  30
ENDBRANCH  27  29
BRANCH  27  35
ATOM     35  C   UNL     1      -4.897   5.195   3.307  0.00  0.00    -0.045 C 
BRANCH  35  36
ATOM     36  C   UNL     1      -6.283   4.875   3.870  0.00  0.00    +0.102 C 
ATOM     37  C   UNL     1      -7.203   6.111   3.769  0.00  0.00    +0.032 C 
ATOM     38  C   UNL     1      -8.045   6.059   5.064  0.00  0.00    +0.030 C 
ATOM     39  C   UNL     1      -7.534   4.798   5.794  0.00  0.00    +0.160 C 
ATOM     40  O   UNL     1      -6.198   4.592   5.284  0.00  0.00    -0.378 OA
ENDBRANCH  35  36
ENDBRANCH  27  35
ENDBRANCH   1  27
TORSDOF 9
