REMARK  Name = ZINC37037400
REMARK  9 active torsions:
REMARK  status: ('A' for Active; 'I' for Inactive)
REMARK    1  A    between atoms: C_1  and  C_2
REMARK    2  A    between atoms: C_2  and  C_3
REMARK    3  A    between atoms: C_2  and  C_4
REMARK    4  A    between atoms: C_4  and  C_5
REMARK    5  A    between atoms: C_5  and  N_6
REMARK    6  A    between atoms: C_10  and  C_12
REMARK    7  A    between atoms: C_12  and  S_13
REMARK    8  A    between atoms: S_13  and  C_14
REMARK    9  A    between atoms: C_19  and  N_20
REMARK                            x       y       z     vdW  Elec       q    Type
REMARK                         _______ _______ _______ _____ _____    ______ ____
ROOT
ATOM      1  N   UNL     1      -3.510  -0.638  -1.275  0.00  0.00    -0.299 N 
ATOM      2  C   UNL     1      -4.323  -0.403  -2.324  0.00  0.00    +0.306 C 
ATOM      3  O   UNL     1      -3.916   0.230  -3.279  0.00  0.00    -0.252 OA
ATOM      4  N   UNL     1      -5.587  -0.870  -2.315  0.00  0.00    -0.240 N 
ATOM      5  C   UNL     1      -6.400  -0.634  -3.364  0.00  0.00    +0.231 C 
ATOM      6  O   UNL     1      -5.994  -0.003  -4.316  0.00  0.00    -0.274 OA
ATOM      7  H   UNL     1      -3.834  -1.143  -0.513  0.00  0.00    +0.150 HD
ATOM      8  H   UNL     1      -5.912  -1.375  -1.553  0.00  0.00    +0.159 HD
ENDROOT
BRANCH   1   9
ATOM      9  C   UNL     1      -2.135  -0.131  -1.286  0.00  0.00    +0.106 C 
BRANCH   9  10
ATOM     10  C   UNL     1      -1.433  -0.534   0.013  0.00  0.00    +0.022 C 
BRANCH  10  12
ATOM     11  C   UNL     1      -0.019   1.526   0.010  0.00  0.00    +0.007 C 
ATOM     12  C   UNL     1       0.002  -0.004   0.002  0.00  0.00    -0.016 C 
ATOM     13  C   UNL     1       0.742  -0.511   1.242  0.00  0.00    +0.007 C 
ENDBRANCH  10  12
ENDBRANCH   9  10
ENDBRANCH   1   9
BRANCH   5  14
ATOM     14  C   UNL     1      -7.814  -1.156  -3.353  0.00  0.00    +0.170 C 
BRANCH  14  15
ATOM     15  S   UNL     1      -8.646  -0.679  -4.892  0.00  0.00    -0.114 S 
BRANCH  15  16
ATOM     16  C   UNL     1     -10.266  -1.353  -4.728  0.00  0.00    +0.029 A 
ATOM     17  C   UNL     1     -10.614  -2.055  -3.583  0.00  0.00    +0.018 A 
ATOM     18  C   UNL     1     -11.885  -2.583  -3.456  0.00  0.00    +0.021 A 
ATOM     19  C   UNL     1     -12.813  -2.415  -4.469  0.00  0.00    +0.043 A 
ATOM     20  C   UNL     1     -12.474  -1.716  -5.614  0.00  0.00    +0.043 A 
ATOM     21  C   UNL     1     -11.203  -1.179  -5.747  0.00  0.00    +0.040 A 
ATOM     22 CL   UNL     1     -14.407  -3.083  -4.303  0.00  0.00    -0.083 Cl
BRANCH  21  23
ATOM     23  N   UNL     1     -10.859  -0.467  -6.903  0.00  0.00    -0.357 N 
ATOM     24  H   UNL     1      -9.968  -0.095  -6.996  0.00  0.00    +0.142 HD
ATOM     25  H   UNL     1     -11.511  -0.346  -7.610  0.00  0.00    +0.142 HD
ENDBRANCH  21  23
ENDBRANCH  15  16
ENDBRANCH  14  15
ENDBRANCH   5  14
TORSDOF 7
