REMARK  Name = ZINC00888059
REMARK  11 active torsions:
REMARK  status: ('A' for Active; 'I' for Inactive)
REMARK    1  A    between atoms: C_1  and  C_2
REMARK    2  A    between atoms: C_5  and  C_7
REMARK    3  A    between atoms: C_7  and  C_9
REMARK    4  A    between atoms: C_7  and  N_20
REMARK    5  A    between atoms: N_11  and  C_12
REMARK    6  A    between atoms: C_12  and  C_13
REMARK    7  A    between atoms: N_20  and  C_21
REMARK    8  A    between atoms: C_21  and  C_22
REMARK    9  A    between atoms: C_29  and  C_31
REMARK   10  A    between atoms: C_31  and  N_32
REMARK   11  A    between atoms: C_34  and  C_37
REMARK                            x       y       z     vdW  Elec       q    Type
REMARK                         _______ _______ _______ _____ _____    ______ ____
ROOT
ATOM      1  N   UNL     1       2.973  -2.760  -0.848  0.00  0.00    -0.277 N 
ATOM      2  C   UNL     1       3.643  -3.275  -1.898  0.00  0.00    +0.240 C 
ATOM      3  O   UNL     1       3.257  -4.299  -2.420  0.00  0.00    -0.273 OA
ENDROOT
BRANCH   1   4
ATOM      4  C   UNL     1       1.702  -3.356  -0.426  0.00  0.00    +0.228 C 
BRANCH   4   9
ATOM      5  C   UNL     1      -0.512   1.066   0.567  0.00  0.00    +0.086 C 
ATOM      6  C   UNL     1      -0.310  -0.357   0.112  0.00  0.00    +0.102 A 
ATOM      7  C   UNL     1      -1.252  -1.153  -0.424  0.00  0.00    +0.045 A 
ATOM      8  C   UNL     1      -0.631  -2.392  -0.703  0.00  0.00    +0.047 A 
ATOM      9  C   UNL     1       0.653  -2.279  -0.321  0.00  0.00    +0.135 A 
ATOM     10  O   UNL     1       0.844  -1.042   0.167  0.00  0.00    -0.462 OA
ENDBRANCH   4   9
BRANCH   4  11
ATOM     11  C   UNL     1       1.879  -4.019   0.915  0.00  0.00    +0.241 C 
ATOM     12  O   UNL     1       2.993  -4.238   1.342  0.00  0.00    -0.273 OA
ATOM     13  N   UNL     1       0.798  -4.369   1.641  0.00  0.00    -0.309 N 
ATOM     14  H   UNL     1      -0.093  -4.194   1.300  0.00  0.00    +0.149 HD
BRANCH  13  15
ATOM     15  C   UNL     1       0.970  -5.014   2.946  0.00  0.00    +0.139 C 
BRANCH  15  16
ATOM     16  C   UNL     1      -0.383  -5.300   3.546  0.00  0.00    -0.030 A 
ATOM     17  C   UNL     1      -0.997  -4.355   4.346  0.00  0.00    +0.008 A 
ATOM     18  C   UNL     1      -2.237  -4.616   4.897  0.00  0.00    +0.038 A 
ATOM     19  C   UNL     1      -2.865  -5.824   4.647  0.00  0.00    +0.123 A 
ATOM     20  C   UNL     1      -2.248  -6.770   3.846  0.00  0.00    +0.038 A 
ATOM     21  C   UNL     1      -1.010  -6.505   3.292  0.00  0.00    +0.008 A 
ATOM     22  F   UNL     1      -4.077  -6.081   5.186  0.00  0.00    -0.205 F 
ENDBRANCH  15  16
ENDBRANCH  13  15
ENDBRANCH   4  11
ENDBRANCH   1   4
BRANCH   1  23
ATOM     23  C   UNL     1       3.515  -1.606  -0.127  0.00  0.00    +0.147 C 
BRANCH  23  24
ATOM     24  C   UNL     1       4.091  -2.060   1.189  0.00  0.00    +0.005 A 
ATOM     25  C   UNL     1       3.373  -1.885   2.356  0.00  0.00    +0.008 A 
ATOM     26  C   UNL     1       3.901  -2.302   3.563  0.00  0.00    +0.000 A 
ATOM     27  C   UNL     1       5.150  -2.895   3.605  0.00  0.00    +0.003 A 
ATOM     28  C   UNL     1       5.870  -3.071   2.439  0.00  0.00    +0.038 A 
ATOM     29  C   UNL     1       5.339  -2.659   1.228  0.00  0.00    +0.128 A 
ATOM     30  F   UNL     1       6.041  -2.836   0.087  0.00  0.00    -0.205 F 
ENDBRANCH  23  24
ENDBRANCH   1  23
BRANCH   2  31
ATOM     31  C   UNL     1       4.871  -2.577  -2.423  0.00  0.00    +0.264 C 
BRANCH  31  32
ATOM     32  N   UNL     1       5.339  -3.257  -3.633  0.00  0.00    -0.154 N 
ATOM     33  N   UNL     1       6.181  -4.233  -3.661  0.00  0.00    -0.130 NA
ATOM     34  C   UNL     1       6.355  -4.580  -4.920  0.00  0.00    +0.205 A 
ATOM     35  N   UNL     1       5.579  -3.768  -5.653  0.00  0.00    -0.108 NA
ATOM     36  N   UNL     1       4.971  -2.978  -4.834  0.00  0.00    -0.045 NA
BRANCH  34  37
ATOM     37  C   UNL     1       7.238  -5.659  -5.429  0.00  0.00    +0.023 A 
ATOM     38  C   UNL     1       7.986  -6.428  -4.540  0.00  0.00    +0.013 A 
ATOM     39  C   UNL     1       8.805  -7.430  -5.017  0.00  0.00    +0.021 A 
ATOM     40  C   UNL     1       8.886  -7.671  -6.378  0.00  0.00    +0.041 A 
ATOM     41  C   UNL     1       8.145  -6.910  -7.266  0.00  0.00    +0.021 A 
ATOM     42  C   UNL     1       7.318  -5.910  -6.797  0.00  0.00    +0.013 A 
ATOM     43 CL   UNL     1       9.920  -8.933  -6.973  0.00  0.00    -0.084 Cl
ENDBRANCH  34  37
ENDBRANCH  31  32
ENDBRANCH   2  31
TORSDOF 10
