REMARK  Name = ZINC63393972
REMARK  9 active torsions:
REMARK  status: ('A' for Active; 'I' for Inactive)
REMARK    1  A    between atoms: C_1  and  O_2
REMARK    2  A    between atoms: O_2  and  C_3
REMARK    3  A    between atoms: C_6  and  C_9
REMARK    4  A    between atoms: N_11  and  C_12
REMARK    5  A    between atoms: C_12  and  C_21
REMARK    6  A    between atoms: C_13  and  C_14
REMARK    7  A    between atoms: N_23  and  C_24
REMARK    8  A    between atoms: C_24  and  C_25
REMARK    9  A    between atoms: C_25  and  C_26
REMARK                            x       y       z     vdW  Elec       q    Type
REMARK                         _______ _______ _______ _____ _____    ______ ____
ROOT
ATOM      1  C   UNL     1      -6.189  -4.586   0.013  0.00  0.00    +0.097 C 
ATOM      2  C   UNL     1      -7.319  -3.850   0.122  0.00  0.00    +0.036 C 
ENDROOT
BRANCH   2   3
ATOM      3  C   UNL     1      -8.594  -4.504   0.452  0.00  0.00    -0.023 A 
ATOM      4  C   UNL     1      -8.610  -5.647   1.258  0.00  0.00    +0.009 A 
ATOM      5  C   UNL     1      -9.809  -6.254   1.563  0.00  0.00    +0.016 A 
ATOM      6  C   UNL     1     -10.996  -5.736   1.073  0.00  0.00    +0.018 A 
ATOM      7  C   UNL     1     -10.989  -4.604   0.275  0.00  0.00    +0.016 A 
ATOM      8  C   UNL     1      -9.798  -3.983  -0.034  0.00  0.00    +0.009 A 
ATOM      9 BR   UNL     1     -12.636  -6.577   1.497  0.00  0.00    -0.050 Br
ENDBRANCH   2   3
BRANCH   1  12
ATOM     10  C   UNL     1      -3.844  -4.686  -0.370  0.00  0.00    +0.248 C 
ATOM     11  O   UNL     1      -3.898  -5.900  -0.319  0.00  0.00    -0.270 OA
ATOM     12  N   UNL     1      -4.955  -3.952  -0.162  0.00  0.00    -0.277 N 
ATOM     13  H   UNL     1      -4.899  -2.984  -0.133  0.00  0.00    +0.155 HD
BRANCH  10  17
ATOM     14  C   UNL     1      -0.154  -2.760  -1.208  0.00  0.00    +0.120 A 
ATOM     15  C   UNL     1      -0.214  -4.147  -1.149  0.00  0.00    +0.046 A 
ATOM     16  C   UNL     1      -1.408  -4.776  -0.878  0.00  0.00    +0.016 A 
ATOM     17  C   UNL     1      -2.562  -4.017  -0.661  0.00  0.00    +0.037 A 
ATOM     18  C   UNL     1      -2.497  -2.622  -0.721  0.00  0.00    +0.016 A 
ATOM     19  C   UNL     1      -1.298  -2.001  -0.988  0.00  0.00    +0.046 A 
BRANCH  14  21
ATOM     20  C   UNL     1       2.162  -2.983  -1.691  0.00  0.00    +0.277 C 
ATOM     21  O   UNL     1       1.026  -2.144  -1.475  0.00  0.00    -0.495 OA
ENDBRANCH  14  21
ENDBRANCH  10  17
ENDBRANCH   1  12
BRANCH   1  22
ATOM     22  C   UNL     1      -6.259  -6.053   0.078  0.00  0.00    +0.258 C 
ATOM     23  O   UNL     1      -5.794  -6.642   1.036  0.00  0.00    -0.269 OA
ATOM     24  N   UNL     1      -6.838  -6.746  -0.923  0.00  0.00    -0.310 N 
ATOM     25  H   UNL     1      -7.143  -6.284  -1.719  0.00  0.00    +0.149 HD
BRANCH  24  26
ATOM     26  C   UNL     1      -7.006  -8.197  -0.808  0.00  0.00    +0.109 C 
BRANCH  26  27
ATOM     27  C   UNL     1      -7.570  -8.750  -2.119  0.00  0.00    +0.052 C 
BRANCH  27  28
ATOM     28  C   UNL     1      -7.856 -10.221  -1.961  0.00  0.00    -0.040 C 
ATOM     29  C   UNL     1      -9.040 -10.789  -1.638  0.00  0.00    -0.001 A 
ATOM     30  C   UNL     1     -10.364 -10.229  -1.346  0.00  0.00    +0.010 A 
ATOM     31  C   UNL     1     -11.380 -11.070  -1.046  0.00  0.00    +0.001 A 
ATOM     32  C   UNL     1     -11.200 -12.460  -1.008  0.00  0.00    +0.002 A 
ATOM     33  C   UNL     1     -10.013 -13.049  -1.265  0.00  0.00    +0.026 A 
ATOM     34  C   UNL     1      -8.875 -12.260  -1.591  0.00  0.00    +0.043 A 
ATOM     35  N   UNL     1      -7.638 -12.588  -1.875  0.00  0.00    -0.380 N 
ATOM     36  C   UNL     1      -6.878 -11.361  -2.140  0.00  0.00    +0.144 C 
ATOM     37  H   UNL     1      -7.285 -13.491  -1.908  0.00  0.00    +0.160 HD
ENDBRANCH  27  28
ENDBRANCH  26  27
ENDBRANCH  24  26
ENDBRANCH   1  22
TORSDOF 8
