REMARK  Name = ZINC12549687
REMARK  5 active torsions:
REMARK  status: ('A' for Active; 'I' for Inactive)
REMARK    1  A    between atoms: C_4  and  C_7
REMARK    2  A    between atoms: C_11  and  C_12
REMARK    3  A    between atoms: N_14  and  C_15
REMARK    4  A    between atoms: C_19  and  S_21
REMARK    5  A    between atoms: S_21  and  N_24
REMARK                            x       y       z     vdW  Elec       q    Type
REMARK                         _______ _______ _______ _____ _____    ______ ____
ROOT
ATOM      1  C   UNL     1       2.846  -3.910   3.660  0.00  0.00    +0.036 A 
ATOM      2  C   UNL     1       1.531  -3.508   3.854  0.00  0.00    +0.023 A 
ATOM      3  C   UNL     1       0.755  -4.129   4.813  0.00  0.00    +0.004 A 
ATOM      4  C   UNL     1       1.286  -5.150   5.580  0.00  0.00    +0.029 A 
ATOM      5  C   UNL     1       2.595  -5.553   5.389  0.00  0.00    +0.114 A 
ATOM      6  C   UNL     1       3.375  -4.940   4.428  0.00  0.00    +0.052 A 
ENDROOT
BRANCH   1   9
ATOM      7  C   UNL     1       4.959  -3.137   2.890  0.00  0.00    +0.255 C 
ATOM      8  O   UNL     1       5.454  -3.463   3.953  0.00  0.00    -0.269 OA
ATOM      9  N   UNL     1       3.635  -3.283   2.690  0.00  0.00    -0.281 N 
ATOM     10  H   UNL     1       3.228  -2.954   1.873  0.00  0.00    +0.155 HD
BRANCH   7  15
ATOM     11  C   UNL     1       7.182  -2.355   1.830  0.00  0.00    +0.001 A 
ATOM     12  C   UNL     1       7.692  -1.824   0.656  0.00  0.00    +0.017 A 
ATOM     13  C   UNL     1       6.850  -1.571  -0.370  0.00  0.00    +0.046 A 
ATOM     14  S   UNL     1       5.340  -2.035   0.198  0.00  0.00    -0.091 S 
ATOM     15  C   UNL     1       5.803  -2.587   1.829  0.00  0.00    +0.082 A 
BRANCH  11  19
ATOM     16  C   UNL     1       9.636  -3.233   5.187  0.00  0.00    +0.000 A 
ATOM     17  C   UNL     1       9.999  -3.686   3.931  0.00  0.00    +0.001 A 
ATOM     18  C   UNL     1       9.206  -3.404   2.838  0.00  0.00    +0.008 A 
ATOM     19  C   UNL     1       8.037  -2.661   3.000  0.00  0.00    -0.017 A 
ATOM     20  C   UNL     1       7.676  -2.208   4.269  0.00  0.00    +0.008 A 
ATOM     21  C   UNL     1       8.477  -2.496   5.355  0.00  0.00    +0.001 A 
ENDBRANCH  11  19
ENDBRANCH   7  15
ENDBRANCH   1   9
BRANCH   5  22
ATOM     22  S   UNL     1       3.268  -6.853   6.369  0.00  0.00    +0.100 S 
ATOM     23  O   UNL     1       4.677  -6.673   6.372  0.00  0.00    -0.146 OA
ATOM     24  O   UNL     1       2.503  -6.897   7.566  0.00  0.00    -0.146 OA
BRANCH  22  25
ATOM     25  N   UNL     1       2.973  -8.272   5.568  0.00  0.00    -0.118 NA
ATOM     26  C   UNL     1       3.367  -9.395   6.075  0.00  0.00    +0.117 C 
ATOM     27  N   UNL     1       4.029  -9.536   7.266  0.00  0.00    -0.331 N 
ATOM     28  C   UNL     1       3.881 -10.920   7.742  0.00  0.00    +0.103 C 
ATOM     29  C   UNL     1       3.763 -11.762   6.452  0.00  0.00    +0.026 C 
ATOM     30  C   UNL     1       3.162 -10.756   5.447  0.00  0.00    +0.074 C 
ATOM     31  H   UNL     1       4.518  -8.834   7.723  0.00  0.00    +0.147 HD
ENDBRANCH  22  25
ENDBRANCH   5  22
TORSDOF 5
