REMARK  Name = ZINC05274635
REMARK  7 active torsions:
REMARK  status: ('A' for Active; 'I' for Inactive)
REMARK    1  A    between atoms: C_1  and  O_2
REMARK    2  A    between atoms: O_2  and  C_3
REMARK    3  A    between atoms: C_3  and  C_5
REMARK    4  A    between atoms: N_9  and  C_19
REMARK    5  A    between atoms: N_11  and  C_12
REMARK    6  A    between atoms: C_19  and  C_20
REMARK    7  A    between atoms: C_20  and  C_21
REMARK                            x       y       z     vdW  Elec       q    Type
REMARK                         _______ _______ _______ _____ _____    ______ ____
ROOT
ATOM      1  C   UNL     1      -1.787  -0.593  -0.506  0.00  0.00    +0.111 C 
ATOM      2  C   UNL     1      -1.682  -1.877  -0.073  0.00  0.00    +0.084 C 
ATOM      3  C   UNL     1      -2.525  -2.616   0.909  0.00  0.00    +0.259 C 
ATOM      4  O   UNL     1      -3.470  -2.090   1.462  0.00  0.00    -0.269 OA
ATOM      5  N   UNL     1      -2.195  -3.875   1.142  0.00  0.00    -0.246 N 
ATOM      6  C   UNL     1      -1.114  -4.450   0.509  0.00  0.00    +0.168 C 
ATOM      7  N   UNL     1      -0.654  -5.672   0.632  0.00  0.00    -0.225 NA
ATOM      8  S   UNL     1      -0.491  -3.132  -0.521  0.00  0.00    -0.049 S 
ENDROOT
BRANCH   7   9
ATOM      9  C   UNL     1      -1.511  -6.700   0.917  0.00  0.00    +0.067 A 
ATOM     10  C   UNL     1      -1.344  -7.451   2.083  0.00  0.00    +0.028 A 
ATOM     11  C   UNL     1      -2.214  -8.483   2.365  0.00  0.00    +0.002 A 
ATOM     12  C   UNL     1      -3.245  -8.782   1.491  0.00  0.00    +0.000 A 
ATOM     13  C   UNL     1      -3.413  -8.046   0.332  0.00  0.00    +0.002 A 
ATOM     14  C   UNL     1      -2.554  -7.008   0.039  0.00  0.00    +0.028 A 
ENDBRANCH   7   9
BRANCH   1  15
ATOM     15  C   UNL     1      -0.832  -0.071  -1.482  0.00  0.00    +0.333 C 
ATOM     16  O   UNL     1       0.056  -0.785  -1.906  0.00  0.00    -0.246 OA
BRANCH  15  18
ATOM     17  C   UNL     1       0.031   1.648  -2.866  0.00  0.00    +0.280 C 
ATOM     18  O   UNL     1      -0.936   1.204  -1.912  0.00  0.00    -0.465 OA
ENDBRANCH  15  18
ENDBRANCH   1  15
BRANCH   5  19
ATOM     19  C   UNL     1      -2.982  -4.666   2.092  0.00  0.00    +0.120 C 
BRANCH  19  20
ATOM     20  C   UNL     1      -2.577  -4.298   3.521  0.00  0.00    +0.056 C 
BRANCH  20  21
ATOM     21  C   UNL     1      -3.244  -5.239   4.490  0.00  0.00    -0.021 A 
ATOM     22  C   UNL     1      -4.488  -5.129   4.983  0.00  0.00    +0.087 A 
ATOM     23  N   UNL     1      -4.747  -6.169   5.833  0.00  0.00    -0.360 N 
ATOM     24  H   UNL     1      -5.581  -6.304   6.311  0.00  0.00    +0.165 HD
ATOM     25  C   UNL     1      -3.648  -6.995   5.911  0.00  0.00    +0.047 A 
ATOM     26  C   UNL     1      -2.661  -6.452   5.069  0.00  0.00    +0.003 A 
ATOM     27  C   UNL     1      -1.421  -7.083   4.952  0.00  0.00    +0.010 A 
ATOM     28  C   UNL     1      -1.177  -8.234   5.648  0.00  0.00    +0.001 A 
ATOM     29  C   UNL     1      -2.150  -8.776   6.476  0.00  0.00    +0.002 A 
ATOM     30  C   UNL     1      -3.378  -8.166   6.611  0.00  0.00    +0.026 A 
ENDBRANCH  20  21
ENDBRANCH  19  20
ENDBRANCH   5  19
TORSDOF 6
