REMARK  Name = ZINC38563950
REMARK  6 active torsions:
REMARK  status: ('A' for Active; 'I' for Inactive)
REMARK    1  A    between atoms: C_4  and  C_7
REMARK    2  A    between atoms: C_7  and  C_8
REMARK    3  A    between atoms: C_8  and  C_9
REMARK    4  A    between atoms: C_9  and  N_10
REMARK    5  A    between atoms: C_11  and  C_13
REMARK    6  A    between atoms: C_25  and  C_27
REMARK                            x       y       z     vdW  Elec       q    Type
REMARK                         _______ _______ _______ _____ _____    ______ ____
ROOT
ATOM      1  C   UNL     1       7.627  -2.796   4.399  0.00  0.00    +0.126 C 
ATOM      2  C   UNL     1       8.785  -3.540   4.633  0.00  0.00    +0.039 C 
ATOM      3  C   UNL     1       8.970  -3.983   5.935  0.00  0.00    -0.008 C 
ATOM      4  C   UNL     1      10.049  -4.431   6.650  0.00  0.00    +0.004 A 
ATOM      5  C   UNL     1      11.338  -4.857   6.254  0.00  0.00    +0.010 A 
ATOM      6  C   UNL     1      12.206  -5.199   7.249  0.00  0.00    +0.001 A 
ATOM      7  C   UNL     1      11.881  -5.146   8.604  0.00  0.00    +0.002 A 
ATOM      8  C   UNL     1      10.658  -4.769   9.069  0.00  0.00    +0.026 A 
ATOM      9  C   UNL     1       9.683  -4.415   8.095  0.00  0.00    +0.044 A 
ATOM     10  N   UNL     1       8.426  -4.078   8.250  0.00  0.00    -0.372 N 
ATOM     11  C   UNL     1       7.828  -3.972   6.938  0.00  0.00    +0.160 C 
ATOM     12  C   UNL     1       6.938  -2.818   6.643  0.00  0.00    +0.077 C 
ATOM     13  N   UNL     1       6.857  -2.368   5.410  0.00  0.00    -0.244 NA
ATOM     14  H   UNL     1       7.976  -3.927   9.096  0.00  0.00    +0.161 HD
ENDROOT
BRANCH  12  15
ATOM     15  C   UNL     1       6.162  -2.184   7.717  0.00  0.00    +0.017 A 
ATOM     16  C   UNL     1       6.436  -0.864   8.099  0.00  0.00    +0.011 A 
ATOM     17  C   UNL     1       5.704  -0.277   9.107  0.00  0.00    +0.001 A 
ATOM     18  C   UNL     1       4.699  -0.987   9.744  0.00  0.00    +0.001 A 
ATOM     19  C   UNL     1       4.420  -2.291   9.374  0.00  0.00    +0.020 A 
ATOM     20  C   UNL     1       5.140  -2.893   8.362  0.00  0.00    +0.050 A 
ATOM     21 CL   UNL     1       4.784  -4.527   7.894  0.00  0.00    -0.083 Cl
ENDBRANCH  12  15
BRANCH   1  23
ATOM     22  N   UNL     1       6.132  -1.745   2.766  0.00  0.00    -0.310 N 
ATOM     23  C   UNL     1       7.245  -2.467   3.007  0.00  0.00    +0.262 C 
ATOM     24  O   UNL     1       7.934  -2.849   2.082  0.00  0.00    -0.269 OA
ATOM     25  H   UNL     1       5.582  -1.440   3.505  0.00  0.00    +0.149 HD
BRANCH  22  26
ATOM     26  C   UNL     1       5.754  -1.420   1.389  0.00  0.00    +0.105 C 
BRANCH  26  27
ATOM     27  C   UNL     1       4.463  -0.599   1.395  0.00  0.00    +0.023 C 
BRANCH  27  28
ATOM     28  C   UNL     1       4.068  -0.260  -0.044  0.00  0.00    +0.036 C 
BRANCH  28  32
ATOM     29  C   UNL     1       0.464   2.033  -0.030  0.00  0.00    +0.000 A 
ATOM     30  C   UNL     1       1.688   2.670   0.030  0.00  0.00    +0.000 A 
ATOM     31  C   UNL     1       2.855   1.929   0.026  0.00  0.00    +0.003 A 
ATOM     32  C   UNL     1       2.796   0.549  -0.038  0.00  0.00    -0.047 A 
ATOM     33  C   UNL     1       1.571  -0.089  -0.098  0.00  0.00    +0.003 A 
ATOM     34  C   UNL     1       0.405   0.653  -0.095  0.00  0.00    +0.000 A 
ENDBRANCH  28  32
ENDBRANCH  27  28
ENDBRANCH  26  27
ENDBRANCH  22  26
ENDBRANCH   1  23
TORSDOF 6
