REMARK  Name = ZINC36591472
REMARK  17 active torsions:
REMARK  status: ('A' for Active; 'I' for Inactive)
REMARK    1  A    between atoms: C_1  and  C_2
REMARK    2  A    between atoms: C_2  and  C_3
REMARK    3  A    between atoms: C_2  and  C_4
REMARK    4  A    between atoms: C_2  and  C_5
REMARK    5  A    between atoms: C_5  and  C_6
REMARK    6  A    between atoms: C_6  and  C_7
REMARK    7  A    between atoms: C_6  and  C_8
REMARK    8  A    between atoms: C_6  and  N_9
REMARK    9  A    between atoms: C_10  and  C_12
REMARK   10  A    between atoms: C_12  and  C_14
REMARK   11  A    between atoms: C_12  and  N_24
REMARK   12  A    between atoms: C_16  and  N_21
REMARK   13  A    between atoms: N_24  and  C_34
REMARK   14  A    between atoms: C_25  and  C_27
REMARK   15  A    between atoms: C_34  and  C_35
REMARK   16  A    between atoms: C_34  and  C_36
REMARK   17  A    between atoms: C_34  and  C_37
REMARK                            x       y       z     vdW  Elec       q    Type
REMARK                         _______ _______ _______ _____ _____    ______ ____
ROOT
ATOM      1  C   UNL     1       5.260   0.600  -4.194  0.00  0.00    +0.194 C 
ENDROOT
BRANCH   1   2
ATOM      2  C   UNL     1       4.619   1.851  -4.739  0.00  0.00    +0.002 A 
ATOM      3  C   UNL     1       3.745   2.578  -3.952  0.00  0.00    +0.040 A 
ATOM      4  C   UNL     1       3.157   3.725  -4.452  0.00  0.00    +0.127 A 
ATOM      5  C   UNL     1       3.442   4.145  -5.738  0.00  0.00    +0.034 A 
ATOM      6  C   UNL     1       4.316   3.418  -6.525  0.00  0.00    +0.022 A 
ATOM      7  C   UNL     1       4.909   2.273  -6.023  0.00  0.00    +0.047 A 
ATOM      8 CL   UNL     1       6.012   1.364  -7.008  0.00  0.00    -0.083 Cl
BRANCH   4   9
ATOM      9  N   UNL     1       2.222   4.503  -3.609  0.00  0.00    +0.056 N 
ATOM     10  O   UNL     1       1.972   4.136  -2.485  0.00  0.00    -0.126 OA
ATOM     11  O   UNL     1       1.707   5.506  -4.046  0.00  0.00    -0.126 OA
ENDBRANCH   4   9
ENDBRANCH   1   2
BRANCH   1  13
ATOM     12  N   UNL     1       3.200  -0.405  -3.263  0.00  0.00    -0.308 N 
ATOM     13  C   UNL     1       4.440   0.075  -3.043  0.00  0.00    +0.239 C 
ATOM     14  O   UNL     1       4.896   0.085  -1.920  0.00  0.00    -0.273 OA
ATOM     15  H   UNL     1       2.863  -0.479  -4.169  0.00  0.00    +0.149 HD
BRANCH  12  16
ATOM     16  C   UNL     1       2.362  -0.814  -2.133  0.00  0.00    +0.030 C 
ATOM     17  C   UNL     1       2.410   0.263  -1.047  0.00  0.00    +0.031 C 
ATOM     18  C   UNL     1       2.882  -2.136  -1.565  0.00  0.00    +0.031 C 
BRANCH  16  19
ATOM     19  C   UNL     1       0.919  -0.995  -2.608  0.00  0.00    +0.031 C 
BRANCH  19  21
ATOM     20  C   UNL     1       1.076  -0.073  -4.925  0.00  0.00    +0.010 C 
ATOM     21  C   UNL     1       0.530   0.173  -3.516  0.00  0.00    -0.036 C 
ATOM     22  C   UNL     1       1.121   1.470  -2.960  0.00  0.00    +0.010 C 
ATOM     23  C   UNL     1      -0.994   0.290  -3.573  0.00  0.00    +0.010 C 
ENDBRANCH  19  21
ENDBRANCH  16  19
ENDBRANCH  12  16
ENDBRANCH   1  13
BRANCH   1  24
ATOM     24  N   UNL     1       6.614   0.908  -3.728  0.00  0.00    -0.279 N 
ATOM     25  C   UNL     1       6.812   1.908  -2.846  0.00  0.00    +0.237 C 
ATOM     26  O   UNL     1       5.881   2.604  -2.499  0.00  0.00    -0.274 OA
BRANCH  25  27
ATOM     27  C   UNL     1       8.190   2.162  -2.292  0.00  0.00    +0.159 C 
ATOM     28  C   UNL     1       8.371   1.419  -0.950  0.00  0.00    +0.041 C 
ATOM     29  C   UNL     1       7.976   2.511   0.071  0.00  0.00    +0.098 C 
ATOM     30  C   UNL     1       8.236   3.811  -0.657  0.00  0.00    +0.214 C 
ATOM     31  O   UNL     1       8.322   4.899  -0.127  0.00  0.00    -0.276 OA
ATOM     32  N   UNL     1       8.357   3.586  -1.979  0.00  0.00    -0.304 N 
ATOM     33  H   UNL     1       8.533   4.275  -2.639  0.00  0.00    +0.149 HD
ENDBRANCH  25  27
BRANCH  24  34
ATOM     34  C   UNL     1       7.753   0.130  -4.221  0.00  0.00    +0.030 C 
ATOM     35  C   UNL     1       7.245  -1.035  -5.072  0.00  0.00    +0.031 C 
ATOM     36  C   UNL     1       8.655   1.027  -5.071  0.00  0.00    +0.031 C 
ATOM     37  C   UNL     1       8.550  -0.416  -3.034  0.00  0.00    +0.031 C 
ENDBRANCH  24  34
ENDBRANCH   1  24
TORSDOF 9
