REMARK  Name = ZINC63874478
REMARK  12 active torsions:
REMARK  status: ('A' for Active; 'I' for Inactive)
REMARK    1  A    between atoms: C_1  and  C_2
REMARK    2  A    between atoms: C_2  and  O_3
REMARK    3  A    between atoms: O_3  and  C_4
REMARK    4  A    between atoms: C_4  and  C_6
REMARK    5  A    between atoms: C_8  and  C_33
REMARK    6  A    between atoms: C_10  and  N_11
REMARK    7  A    between atoms: C_12  and  C_14
REMARK    8  A    between atoms: C_14  and  N_15
REMARK    9  A    between atoms: C_18  and  C_23
REMARK   10  A    between atoms: C_23  and  C_24
REMARK   11  A    between atoms: C_33  and  C_34
REMARK   12  A    between atoms: C_33  and  C_35
REMARK                            x       y       z     vdW  Elec       q    Type
REMARK                         _______ _______ _______ _____ _____    ______ ____
ROOT
ATOM      1  N   UNL     1       1.242  -8.449   1.864  0.00  0.00    -0.216 N 
ATOM      2  C   UNL     1       2.392  -9.100   1.601  0.00  0.00    +0.244 C 
ATOM      3  O   UNL     1       3.287  -8.738   0.867  0.00  0.00    -0.273 OA
ATOM      4  C   UNL     1       2.335 -10.378   2.413  0.00  0.00    +0.165 C 
ATOM      5  N   UNL     1       1.038 -10.291   3.105  0.00  0.00    -0.287 N 
ATOM      6  C   UNL     1       0.476  -9.129   2.725  0.00  0.00    +0.310 C 
ATOM      7  O   UNL     1      -0.607  -8.742   3.118  0.00  0.00    -0.252 OA
ATOM      8  H   UNL     1       0.662 -10.943   3.718  0.00  0.00    +0.151 HD
ENDROOT
BRANCH   1   9
ATOM      9  C   UNL     1       0.877  -7.154   1.284  0.00  0.00    +0.214 C 
BRANCH   9  11
ATOM     10  N   UNL     1       1.163  -4.759   1.836  0.00  0.00    -0.278 N 
ATOM     11  C   UNL     1       1.383  -6.046   2.172  0.00  0.00    +0.236 C 
ATOM     12  O   UNL     1       1.989  -6.312   3.189  0.00  0.00    -0.274 OA
ATOM     13  H   UNL     1       0.679  -4.547   1.022  0.00  0.00    +0.155 HD
BRANCH  10  18
ATOM     14  C   UNL     1       1.496  -2.371   2.467  0.00  0.00    +0.088 A 
ATOM     15  C   UNL     1       2.076  -1.523   3.484  0.00  0.00    +0.028 A 
ATOM     16  C   UNL     1       2.687  -2.160   4.500  0.00  0.00    -0.005 A 
ATOM     17  S   UNL     1       2.483  -3.879   4.089  0.00  0.00    -0.077 S 
ATOM     18  C   UNL     1       1.629  -3.740   2.652  0.00  0.00    +0.086 A 
BRANCH  16  19
ATOM     19  C   UNL     1       3.378  -1.560   5.698  0.00  0.00    +0.020 C 
ATOM     20  C   UNL     1       2.691  -2.043   6.977  0.00  0.00    +0.013 C 
ATOM     21  C   UNL     1       4.844  -1.996   5.711  0.00  0.00    +0.013 C 
ENDBRANCH  16  19
BRANCH  14  22
ATOM     22  C   UNL     1       0.801  -1.814   1.305  0.00  0.00    +0.342 C 
ATOM     23  O   UNL     1       0.321  -2.557   0.470  0.00  0.00    -0.245 OA
BRANCH  22  24
ATOM     24  O   UNL     1       0.693  -0.477   1.160  0.00  0.00    -0.461 OA
BRANCH  24  26
ATOM     25  C   UNL     1      -0.019   1.526   0.010  0.00  0.00    +0.048 C 
ATOM     26  C   UNL     1       0.002  -0.004   0.002  0.00  0.00    +0.229 C 
ENDBRANCH  24  26
ENDBRANCH  22  24
ENDBRANCH  14  22
ENDBRANCH  10  18
ENDBRANCH   9  11
ENDBRANCH   1   9
BRANCH   4  27
ATOM     27  C   UNL     1       2.379 -11.601   1.496  0.00  0.00    +0.065 C 
BRANCH  27  28
ATOM     28  C   UNL     1       2.445 -12.854   2.331  0.00  0.00    -0.039 C 
ATOM     29  C   UNL     1       1.407 -13.633   2.712  0.00  0.00    -0.001 A 
ATOM     30  C   UNL     1      -0.039 -13.550   2.473  0.00  0.00    +0.010 A 
ATOM     31  C   UNL     1      -0.847 -14.500   2.997  0.00  0.00    +0.001 A 
ATOM     32  C   UNL     1      -0.338 -15.559   3.761  0.00  0.00    +0.002 A 
ATOM     33  C   UNL     1       0.978 -15.703   4.024  0.00  0.00    +0.026 A 
ATOM     34  C   UNL     1       1.918 -14.761   3.522  0.00  0.00    +0.043 A 
ATOM     35  N   UNL     1       3.221 -14.683   3.638  0.00  0.00    -0.380 N 
ATOM     36  C   UNL     1       3.686 -13.498   2.908  0.00  0.00    +0.144 C 
ATOM     37  H   UNL     1       3.785 -15.307   4.122  0.00  0.00    +0.160 HD
ENDBRANCH  27  28
ENDBRANCH   4  27
TORSDOF 9
