REMARK  Name = ZINC65550234
REMARK  8 active torsions:
REMARK  status: ('A' for Active; 'I' for Inactive)
REMARK    1  A    between atoms: C_3  and  O_24
REMARK    2  A    between atoms: C_6  and  C_7
REMARK    3  A    between atoms: C_7  and  C_8
REMARK    4  A    between atoms: C_8  and  C_9
REMARK    5  A    between atoms: N_12  and  C_15
REMARK    6  A    between atoms: C_15  and  C_16
REMARK    7  A    between atoms: C_16  and  C_17
REMARK    8  A    between atoms: C_17  and  C_18
REMARK                            x       y       z     vdW  Elec       q    Type
REMARK                         _______ _______ _______ _____ _____    ______ ____
ROOT
ATOM      1  C   UNL     1      -3.061  -1.808  -1.420  0.00  0.00    -0.014 C 
ATOM      2  C   UNL     1      -2.825  -3.201  -0.829  0.00  0.00    -0.015 C 
ATOM      3  C   UNL     1      -4.126  -4.005  -0.896  0.00  0.00    -0.079 C 
ATOM      4  N   UNL     1      -4.555  -4.131  -2.294  0.00  0.00    +0.380 N 
ATOM      5  C   UNL     1      -4.852  -2.804  -2.846  0.00  0.00    -0.079 C 
ATOM      6  C   UNL     1      -3.580  -1.954  -2.853  0.00  0.00    -0.015 C 
ATOM      7  H   UNL     1      -3.819  -4.562  -2.833  0.00  0.00    -0.082 HD
ENDROOT
BRANCH   1   8
ATOM      8  C   UNL     1      -1.746  -1.027  -1.429  0.00  0.00    +0.008 C 
BRANCH   8   9
ATOM      9  C   UNL     1      -1.293  -0.774   0.011  0.00  0.00    +0.035 C 
BRANCH   9  15
ATOM     10  C   UNL     1      -0.017   1.378   0.010  0.00  0.00    +0.007 A 
ATOM     11  C   UNL     1       1.169   2.087   0.002  0.00  0.00    +0.045 A 
ATOM     12  C   UNL     1       2.380   1.409  -0.013  0.00  0.00    +0.117 A 
ATOM     13  C   UNL     1       2.396   0.022  -0.021  0.00  0.00    +0.045 A 
ATOM     14  C   UNL     1       1.207  -0.681  -0.013  0.00  0.00    +0.007 A 
ATOM     15  C   UNL     1       0.002  -0.004   0.002  0.00  0.00    -0.047 A 
BRANCH  12  16
ATOM     16  O   UNL     1       3.548   2.104  -0.021  0.00  0.00    -0.507 OA
ATOM     17  H   UNL     1       3.895   2.300   0.860  0.00  0.00    +0.292 HD
ENDBRANCH  12  16
ENDBRANCH   9  15
ENDBRANCH   8   9
ENDBRANCH   1   8
BRANCH   4  18
ATOM     18  C   UNL     1      -5.760  -4.969  -2.361  0.00  0.00    -0.078 C 
BRANCH  18  19
ATOM     19  C   UNL     1      -6.137  -5.205  -3.825  0.00  0.00    -0.009 C 
BRANCH  19  20
ATOM     20  C   UNL     1      -7.392  -6.077  -3.894  0.00  0.00    +0.094 C 
BRANCH  20  21
ATOM     21  C   UNL     1      -7.764  -6.309  -5.336  0.00  0.00    +0.220 C 
ATOM     22  O   UNL     1      -7.091  -5.825  -6.221  0.00  0.00    -0.275 OA
ATOM     23  N   UNL     1      -8.844  -7.055  -5.642  0.00  0.00    -0.240 N 
ATOM     24  C   UNL     1      -9.176  -7.263  -6.931  0.00  0.00    +0.303 C 
ATOM     25  O   UNL     1      -8.502  -6.777  -7.818  0.00  0.00    -0.253 OA
ATOM     26  N   UNL     1     -10.256  -8.008  -7.237  0.00  0.00    -0.313 N 
ATOM     27  H   UNL     1      -9.382  -7.442  -4.934  0.00  0.00    +0.159 HD
ATOM     28  H   UNL     1     -10.794  -8.396  -6.530  0.00  0.00    +0.146 HD
ATOM     29  H   UNL     1     -10.495  -8.158  -8.166  0.00  0.00    +0.146 HD
ENDBRANCH  20  21
ENDBRANCH  19  20
ENDBRANCH  18  19
ENDBRANCH   4  18
TORSDOF 8
