REMARK  Name = ZINC20155039
REMARK  12 active torsions:
REMARK  status: ('A' for Active; 'I' for Inactive)
REMARK    1  A    between atoms: C_1  and  O_2
REMARK    2  A    between atoms: O_2  and  C_3
REMARK    3  A    between atoms: C_5  and  N_11
REMARK    4  A    between atoms: C_7  and  O_9
REMARK    5  A    between atoms: O_9  and  C_10
REMARK    6  A    between atoms: C_12  and  C_14
REMARK    7  A    between atoms: C_16  and  N_35
REMARK    8  A    between atoms: C_19  and  N_20
REMARK    9  A    between atoms: C_21  and  C_23
REMARK   10  A    between atoms: C_23  and  N_24
REMARK   11  A    between atoms: N_24  and  C_25
REMARK   12  A    between atoms: C_25  and  C_26
REMARK                            x       y       z     vdW  Elec       q    Type
REMARK                         _______ _______ _______ _____ _____    ______ ____
ROOT
ATOM      1  C   UNL     1      11.828  -2.561   0.165  0.00  0.00    +0.060 A 
ATOM      2  C   UNL     1      12.637  -3.021  -0.877  0.00  0.00    +0.047 A 
ATOM      3  C   UNL     1      12.103  -3.201  -2.134  0.00  0.00    +0.127 A 
ATOM      4  C   UNL     1      10.764  -2.931  -2.371  0.00  0.00    +0.034 A 
ATOM      5  C   UNL     1       9.952  -2.481  -1.351  0.00  0.00    +0.026 A 
ATOM      6  C   UNL     1      10.472  -2.294  -0.077  0.00  0.00    +0.046 A 
ENDROOT
BRANCH   1   8
ATOM      7  N   UNL     1      13.717  -2.521   1.717  0.00  0.00    -0.281 N 
ATOM      8  C   UNL     1      12.395  -2.360   1.512  0.00  0.00    +0.250 C 
ATOM      9  O   UNL     1      11.669  -2.050   2.437  0.00  0.00    -0.270 OA
ATOM     10  H   UNL     1      14.359  -2.892   0.904  0.00  0.00    +0.155 HD
BRANCH   7  13
ATOM     11  C   UNL     1      15.994  -2.540   4.609  0.00  0.00    +0.125 A 
ATOM     12  C   UNL     1      15.443  -2.843   3.374  0.00  0.00    +0.069 A 
ATOM     13  C   UNL     1      14.273  -2.217   2.963  0.00  0.00    +0.041 A 
ATOM     14  C   UNL     1      13.660  -1.284   3.789  0.00  0.00    +0.069 A 
ATOM     15  C   UNL     1      14.209  -0.987   5.027  0.00  0.00    +0.125 A 
ATOM     16  C   UNL     1      15.377  -1.613   5.436  0.00  0.00    +0.091 A 
BRANCH  11  18
ATOM     17  C   UNL     1      17.650  -2.793   6.296  0.00  0.00    +0.277 C 
ATOM     18  O   UNL     1      17.138  -3.153   5.011  0.00  0.00    -0.495 OA
ENDBRANCH  11  18
BRANCH  15  19
ATOM     19  O   UNL     1      13.604  -0.079   5.837  0.00  0.00    -0.495 OA
ATOM     20  C   UNL     1      14.228   0.182   7.096  0.00  0.00    +0.277 C 
ENDBRANCH  15  19
ENDBRANCH   7  13
ENDBRANCH   1   8
BRANCH   6  21
ATOM     21  N   UNL     1       9.654  -1.839   0.954  0.00  0.00    -0.286 N 
ATOM     22  C   UNL     1       8.555  -1.112   0.671  0.00  0.00    +0.200 C 
ATOM     23  O   UNL     1       8.334  -0.765  -0.470  0.00  0.00    -0.278 OA
ATOM     24  H   UNL     1       9.904  -2.074   1.999  0.00  0.00    +0.155 HD
BRANCH  22  25
ATOM     25  C   UNL     1       7.601  -0.729   1.773  0.00  0.00    +0.016 C 
BRANCH  25  26
ATOM     26  N   UNL     1       6.493   0.055   1.211  0.00  0.00    +0.387 N 
ATOM     27  H   UNL     1       6.891   0.965   0.738  0.00  0.00    -0.085 HD
ATOM     28  H   UNL     1       5.962  -0.547   0.459  0.00  0.00    -0.085 HD
BRANCH  26  29
ATOM     29  C   UNL     1       5.541   0.447   2.259  0.00  0.00    -0.046 C 
BRANCH  29  30
ATOM     30  C   UNL     1       4.421   1.248   1.645  0.00  0.00    -0.061 A 
ATOM     31  C   UNL     1       3.289   0.607   1.179  0.00  0.00    +0.005 A 
ATOM     32  C   UNL     1       2.260   1.337   0.615  0.00  0.00    +0.050 A 
ATOM     33  C   UNL     1       2.360   2.716   0.517  0.00  0.00    +0.166 A 
ATOM     34  C   UNL     1       3.501   3.362   0.988  0.00  0.00    +0.166 A 
ATOM     35  C   UNL     1       4.528   2.623   1.551  0.00  0.00    +0.051 A 
ATOM     36  O   UNL     1       3.359   4.704   0.779  0.00  0.00    -0.453 OA
ATOM     37  C   UNL     1       1.952   4.911   0.550  0.00  0.00    +0.466 C 
ATOM     38  O   UNL     1       1.504   3.652   0.013  0.00  0.00    -0.453 OA
ENDBRANCH  29  30
ENDBRANCH  26  29
ENDBRANCH  25  26
ENDBRANCH  22  25
ENDBRANCH   6  21
BRANCH   3  39
ATOM     39  N   UNL     1      12.963  -3.684  -3.238  0.00  0.00    +0.056 N 
ATOM     40  O   UNL     1      12.494  -3.843  -4.350  0.00  0.00    -0.126 OA
ATOM     41  O   UNL     1      14.140  -3.922  -3.033  0.00  0.00    -0.126 OA
ENDBRANCH   3  39
TORSDOF 10
