REMARK  Name = ZINC14661347
REMARK  17 active torsions:
REMARK  status: ('A' for Active; 'I' for Inactive)
REMARK    1  A    between atoms: C_1  and  C_2
REMARK    2  A    between atoms: C_2  and  C_3
REMARK    3  A    between atoms: C_2  and  C_4
REMARK    4  A    between atoms: C_2  and  C_5
REMARK    5  A    between atoms: C_8  and  O_15
REMARK    6  A    between atoms: C_9  and  C_11
REMARK    7  A    between atoms: C_11  and  C_12
REMARK    8  A    between atoms: C_11  and  C_13
REMARK    9  A    between atoms: C_11  and  C_14
REMARK   10  A    between atoms: O_15  and  C_16
REMARK   11  A    between atoms: C_16  and  C_17
REMARK   12  A    between atoms: N_19  and  C_20
REMARK   13  A    between atoms: C_25  and  C_26
REMARK   14  A    between atoms: N_28  and  C_29
REMARK   15  A    between atoms: C_29  and  C_30
REMARK   16  A    between atoms: C_29  and  C_31
REMARK   17  A    between atoms: C_29  and  C_32
REMARK                            x       y       z     vdW  Elec       q    Type
REMARK                         _______ _______ _______ _____ _____    ______ ____
ROOT
ATOM      1  C   UNL     1      -0.018   1.503   0.007  0.00  0.00    +0.255 C 
ATOM      2  O   UNL     1       1.023   2.124  -0.009  0.00  0.00    -0.272 OA
ATOM      3  N   UNL     1      -1.195   2.161   0.020  0.00  0.00    -0.282 N 
ATOM      4  H   UNL     1      -2.027   1.667  -0.050  0.00  0.00    +0.155 HD
ENDROOT
BRANCH   3   5
ATOM      5  C   UNL     1      -1.215   3.549   0.133  0.00  0.00    +0.046 A 
ATOM      6  C   UNL     1      -0.158   4.216   0.737  0.00  0.00    +0.024 A 
ATOM      7  C   UNL     1      -0.178   5.591   0.843  0.00  0.00    +0.002 A 
ATOM      8  C   UNL     1      -1.255   6.317   0.359  0.00  0.00    +0.001 A 
ATOM      9  C   UNL     1      -2.316   5.671  -0.239  0.00  0.00    +0.015 A 
ATOM     10  C   UNL     1      -2.307   4.280  -0.359  0.00  0.00    +0.058 A 
BRANCH  10  11
ATOM     11  C   UNL     1      -3.440   3.583  -0.997  0.00  0.00    +0.246 C 
ATOM     12  O   UNL     1      -3.472   2.368  -1.018  0.00  0.00    -0.270 OA
ATOM     13  N   UNL     1      -4.439   4.293  -1.557  0.00  0.00    -0.307 N 
ATOM     14  H   UNL     1      -4.413   5.263  -1.540  0.00  0.00    +0.150 HD
BRANCH  13  15
ATOM     15  C   UNL     1      -5.564   3.601  -2.191  0.00  0.00    +0.026 C 
ATOM     16  C   UNL     1      -6.270   2.722  -1.157  0.00  0.00    +0.031 C 
ATOM     17  C   UNL     1      -6.551   4.631  -2.744  0.00  0.00    +0.031 C 
ATOM     18  C   UNL     1      -5.045   2.727  -3.335  0.00  0.00    +0.031 C 
ENDBRANCH  13  15
ENDBRANCH  10  11
ENDBRANCH   3   5
BRANCH   1  19
ATOM     19  C   UNL     1       0.002  -0.004   0.008  0.00  0.00    +0.324 C 
BRANCH  19  20
ATOM     20  O   UNL     1       1.356  -0.462  -0.013  0.00  0.00    -0.482 OA
BRANCH  20  24
ATOM     21  C   UNL     1       1.952  -4.544  -0.021  0.00  0.00    -0.041 A 
ATOM     22  C   UNL     1       0.667  -4.034  -0.001  0.00  0.00    +0.008 A 
ATOM     23  C   UNL     1       0.465  -2.668   0.002  0.00  0.00    +0.046 A 
ATOM     24  C   UNL     1       1.552  -1.806  -0.016  0.00  0.00    +0.125 A 
ATOM     25  C   UNL     1       2.841  -2.320  -0.041  0.00  0.00    -0.000 A 
ATOM     26  C   UNL     1       3.038  -3.688  -0.039  0.00  0.00    +0.012 A 
BRANCH  21  28
ATOM     27  C   UNL     1       0.817  -6.748  -0.003  0.00  0.00    +0.015 C 
ATOM     28  C   UNL     1       2.170  -6.035  -0.024  0.00  0.00    -0.013 C 
ATOM     29  C   UNL     1       2.938  -6.436  -1.286  0.00  0.00    +0.015 C 
ATOM     30  C   UNL     1       2.978  -6.435   1.212  0.00  0.00    +0.015 C 
ENDBRANCH  21  28
BRANCH  25  31
ATOM     31  C   UNL     1       4.024  -1.388  -0.067  0.00  0.00    -0.009 C 
ATOM     32  C   UNL     1       5.317  -2.205  -0.092  0.00  0.00    +0.015 C 
ATOM     33  C   UNL     1       3.953  -0.507  -1.316  0.00  0.00    +0.015 C 
ATOM     34  C   UNL     1       4.004  -0.504   1.182  0.00  0.00    +0.015 C 
ENDBRANCH  25  31
ENDBRANCH  20  24
ENDBRANCH  19  20
ENDBRANCH   1  19
TORSDOF 8
