REMARK  Name = ZINC40983898
REMARK  15 active torsions:
REMARK  status: ('A' for Active; 'I' for Inactive)
REMARK    1  A    between atoms: C_1  and  C_2
REMARK    2  A    between atoms: C_3  and  C_17
REMARK    3  A    between atoms: C_5  and  C_7
REMARK    4  A    between atoms: C_10  and  O_13
REMARK    5  A    between atoms: O_13  and  C_14
REMARK    6  A    between atoms: C_14  and  C_15
REMARK    7  A    between atoms: C_14  and  C_16
REMARK    8  A    between atoms: C_17  and  N_18
REMARK    9  A    between atoms: C_21  and  C_24
REMARK   10  A    between atoms: C_29  and  N_32
REMARK   11  A    between atoms: C_33  and  O_35
REMARK   12  A    between atoms: O_35  and  C_36
REMARK   13  A    between atoms: C_36  and  C_37
REMARK   14  A    between atoms: C_36  and  C_38
REMARK   15  A    between atoms: C_36  and  C_39
REMARK                            x       y       z     vdW  Elec       q    Type
REMARK                         _______ _______ _______ _____ _____    ______ ____
ROOT
ATOM      1  N   UNL     1      -2.605  -0.343  -0.986  0.00  0.00    +0.383 N 
ATOM      2  C   UNL     1      -2.512  -1.480  -1.909  0.00  0.00    -0.078 C 
ATOM      3  C   UNL     1      -3.011  -1.060  -3.294  0.00  0.00    -0.006 C 
ATOM      4  C   UNL     1      -4.469  -0.604  -3.188  0.00  0.00    +0.072 C 
ATOM      5  C   UNL     1      -4.566   0.533  -2.167  0.00  0.00    -0.006 C 
ATOM      6  C   UNL     1      -4.009   0.054  -0.825  0.00  0.00    -0.078 C 
ATOM      7  H   UNL     1      -2.078   0.433  -1.357  0.00  0.00    -0.081 HD
ENDROOT
BRANCH   4   8
ATOM      8  C   UNL     1      -4.943  -0.115  -4.533  0.00  0.00    +0.219 C 
ATOM      9  O   UNL     1      -4.141   0.283  -5.351  0.00  0.00    -0.275 OA
ATOM     10  N   UNL     1      -6.258  -0.121  -4.827  0.00  0.00    -0.301 N 
ATOM     11  C   UNL     1      -7.232  -0.694  -3.888  0.00  0.00    +0.109 C 
ATOM     12  C   UNL     1      -8.317   0.350  -3.604  0.00  0.00    +0.041 C 
ATOM     13  C   UNL     1      -8.922   0.824  -4.928  0.00  0.00    +0.079 C 
ATOM     14  C   UNL     1      -7.835   1.477  -5.784  0.00  0.00    +0.041 C 
ATOM     15  C   UNL     1      -6.746   0.451  -6.089  0.00  0.00    +0.109 C 
BRANCH  13  16
ATOM     16  N   UNL     1      -9.982   1.798  -4.658  0.00  0.00    -0.278 N 
ATOM     17  C   UNL     1     -10.974   1.980  -5.553  0.00  0.00    +0.401 C 
ATOM     18  O   UNL     1     -10.989   1.335  -6.583  0.00  0.00    -0.226 OA
ATOM     19  H   UNL     1      -9.971   2.313  -3.836  0.00  0.00    +0.152 HD
BRANCH  17  20
ATOM     20  O   UNL     1     -11.948   2.875  -5.305  0.00  0.00    -0.445 OA
BRANCH  20  21
ATOM     21  C   UNL     1     -12.968   3.015  -6.297  0.00  0.00    +0.107 C 
ATOM     22  C   UNL     1     -13.681   1.675  -6.489  0.00  0.00    +0.055 C 
ATOM     23  C   UNL     1     -13.979   4.070  -5.843  0.00  0.00    +0.055 C 
ATOM     24  C   UNL     1     -12.336   3.451  -7.620  0.00  0.00    +0.055 C 
ENDBRANCH  20  21
ENDBRANCH  17  20
ENDBRANCH  13  16
ENDBRANCH   4   8
BRANCH   1  25
ATOM     25  C   UNL     1      -2.053  -0.727   0.320  0.00  0.00    -0.019 C 
BRANCH  25  28
ATOM     26  C   UNL     1       0.272   1.338   0.637  0.00  0.00    +0.088 C 
ATOM     27  C   UNL     1       0.418  -0.127   0.314  0.00  0.00    +0.124 A 
ATOM     28  C   UNL     1      -0.581  -1.017   0.177  0.00  0.00    +0.066 A 
ATOM     29  N   UNL     1      -0.034  -2.209  -0.108  0.00  0.00    -0.216 NA
ATOM     30  C   UNL     1       1.270  -2.072  -0.150  0.00  0.00    +0.228 A 
ATOM     31  O   UNL     1       1.574  -0.787   0.104  0.00  0.00    -0.440 OA
BRANCH  30  32
ATOM     32  C   UNL     1       2.242  -3.149  -0.433  0.00  0.00    +0.037 A 
ATOM     33  C   UNL     1       1.794  -4.446  -0.693  0.00  0.00    +0.017 A 
ATOM     34  C   UNL     1       2.703  -5.447  -0.957  0.00  0.00    +0.046 A 
ATOM     35  C   UNL     1       4.064  -5.168  -0.965  0.00  0.00    +0.121 A 
ATOM     36  C   UNL     1       4.514  -3.879  -0.707  0.00  0.00    +0.046 A 
ATOM     37  C   UNL     1       3.610  -2.871  -0.448  0.00  0.00    +0.017 A 
BRANCH  35  38
ATOM     38  O   UNL     1       4.957  -6.157  -1.225  0.00  0.00    -0.489 OA
BRANCH  38  39
ATOM     39  C   UNL     1       4.432  -7.474  -1.408  0.00  0.00    +0.167 C 
ATOM     40  C   UNL     1       5.422  -8.309  -2.222  0.00  0.00    +0.051 C 
ATOM     41  C   UNL     1       4.211  -8.130  -0.043  0.00  0.00    +0.051 C 
ENDBRANCH  38  39
ENDBRANCH  35  38
ENDBRANCH  30  32
ENDBRANCH  25  28
ENDBRANCH   1  25
TORSDOF 9
