REMARK  Name = ZINC36591719
REMARK  16 active torsions:
REMARK  status: ('A' for Active; 'I' for Inactive)
REMARK    1  A    between atoms: C_1  and  C_2
REMARK    2  A    between atoms: C_2  and  C_3
REMARK    3  A    between atoms: C_3  and  C_4
REMARK    4  A    between atoms: C_5  and  C_6
REMARK    5  A    between atoms: C_6  and  C_8
REMARK    6  A    between atoms: C_6  and  N_22
REMARK    7  A    between atoms: N_10  and  C_11
REMARK    8  A    between atoms: C_11  and  S_12
REMARK    9  A    between atoms: S_12  and  C_15
REMARK   10  A    between atoms: C_18  and  C_21
REMARK   11  A    between atoms: N_22  and  C_34
REMARK   12  A    between atoms: C_23  and  C_25
REMARK   13  A    between atoms: C_29  and  N_31
REMARK   14  A    between atoms: C_34  and  C_35
REMARK   15  A    between atoms: C_34  and  C_36
REMARK   16  A    between atoms: C_34  and  C_37
REMARK                            x       y       z     vdW  Elec       q    Type
REMARK                         _______ _______ _______ _____ _____    ______ ____
ROOT
ATOM      1  C   UNL     1      -1.619  -4.943  -1.020  0.00  0.00    +0.186 C 
ENDROOT
BRANCH   1   2
ATOM      2  C   UNL     1      -1.664  -6.351  -0.486  0.00  0.00    +0.239 C 
ATOM      3  O   UNL     1      -0.638  -6.907  -0.154  0.00  0.00    -0.273 OA
ATOM      4  N   UNL     1      -2.844  -6.994  -0.378  0.00  0.00    -0.294 N 
ATOM      5  H   UNL     1      -3.664  -6.549  -0.643  0.00  0.00    +0.150 HD
BRANCH   4   6
ATOM      6  C   UNL     1      -2.888  -8.363   0.141  0.00  0.00    +0.278 C 
BRANCH   6   7
ATOM      7  S   UNL     1      -3.238  -8.324   1.921  0.00  0.00    +0.013 S 
ATOM      8  O   UNL     1      -3.346  -9.647   2.427  0.00  0.00    -0.168 OA
ATOM      9  O   UNL     1      -2.404  -7.369   2.563  0.00  0.00    -0.168 OA
BRANCH   7  10
ATOM     10  C   UNL     1      -4.865  -7.659   2.048  0.00  0.00    +0.090 A 
ATOM     11  C   UNL     1      -5.046  -6.293   2.158  0.00  0.00    +0.027 A 
ATOM     12  C   UNL     1      -6.323  -5.772   2.258  0.00  0.00    +0.005 A 
ATOM     13  C   UNL     1      -7.417  -6.616   2.248  0.00  0.00    -0.050 A 
ATOM     14  C   UNL     1      -7.235  -7.982   2.137  0.00  0.00    +0.005 A 
ATOM     15  C   UNL     1      -5.959  -8.503   2.033  0.00  0.00    +0.027 A 
ATOM     16  C   UNL     1      -8.809  -6.047   2.357  0.00  0.00    +0.044 C 
ENDBRANCH   7  10
ENDBRANCH   6   7
ENDBRANCH   4   6
ENDBRANCH   1   2
BRANCH   1  17
ATOM     17  N   UNL     1      -0.278  -4.388  -0.820  0.00  0.00    -0.278 N 
ATOM     18  C   UNL     1       0.483  -4.065  -1.885  0.00  0.00    +0.248 C 
ATOM     19  O   UNL     1      -0.027  -3.938  -2.981  0.00  0.00    -0.270 OA
BRANCH  18  20
ATOM     20  C   UNL     1       1.939  -3.865  -1.719  0.00  0.00    +0.039 A 
ATOM     21  C   UNL     1       2.479  -3.666  -0.448  0.00  0.00    +0.013 A 
ATOM     22  C   UNL     1       3.838  -3.481  -0.300  0.00  0.00    +0.003 A 
ATOM     23  C   UNL     1       4.665  -3.492  -1.409  0.00  0.00    +0.033 A 
ATOM     24  C   UNL     1       4.136  -3.689  -2.672  0.00  0.00    +0.127 A 
ATOM     25  C   UNL     1       2.779  -3.882  -2.833  0.00  0.00    +0.045 A 
BRANCH  24  26
ATOM     26  N   UNL     1       5.029  -3.700  -3.853  0.00  0.00    +0.056 N 
ATOM     27  O   UNL     1       6.218  -3.536  -3.713  0.00  0.00    -0.126 OA
ATOM     28  O   UNL     1       4.568  -3.872  -4.958  0.00  0.00    -0.126 OA
ENDBRANCH  24  26
ENDBRANCH  18  20
BRANCH  17  29
ATOM     29  C   UNL     1       0.235  -4.184   0.536  0.00  0.00    +0.030 C 
ATOM     30  C   UNL     1      -0.832  -4.594   1.553  0.00  0.00    +0.031 C 
ATOM     31  C   UNL     1       1.489  -5.036   0.741  0.00  0.00    +0.031 C 
ATOM     32  C   UNL     1       0.585  -2.707   0.732  0.00  0.00    +0.031 C 
ENDBRANCH  17  29
ENDBRANCH   1  17
BRANCH   1  34
ATOM     33  C   UNL     1      -2.294  -2.904   0.140  0.00  0.00    -0.029 C 
ATOM     34  C   UNL     1      -2.628  -4.096  -0.288  0.00  0.00    +0.000 C 
BRANCH  33  35
ATOM     35  C   UNL     1      -3.325  -2.023   0.798  0.00  0.00    +0.027 C 
BRANCH  35  37
ATOM     36  C   UNL     1      -3.870  -0.698   2.845  0.00  0.00    +0.004 C 
ATOM     37  C   UNL     1      -2.823  -1.592   2.177  0.00  0.00    +0.001 C 
ENDBRANCH  35  37
ENDBRANCH  33  35
ENDBRANCH   1  34
TORSDOF 11
