REMARK  Name = ZINC00976842
REMARK  13 active torsions:
REMARK  status: ('A' for Active; 'I' for Inactive)
REMARK    1  A    between atoms: C_1  and  C_2
REMARK    2  A    between atoms: C_2  and  C_3
REMARK    3  A    between atoms: C_3  and  C_5
REMARK    4  A    between atoms: C_3  and  O_6
REMARK    5  A    between atoms: O_6  and  C_7
REMARK    6  A    between atoms: C_7  and  C_9
REMARK    7  A    between atoms: C_10  and  C_39
REMARK    8  A    between atoms: C_14  and  C_16
REMARK    9  A    between atoms: C_26  and  C_29
REMARK   10  A    between atoms: C_32  and  O_37
REMARK   11  A    between atoms: C_33  and  O_35
REMARK   12  A    between atoms: O_35  and  C_36
REMARK   13  A    between atoms: O_37  and  C_38
REMARK                            x       y       z     vdW  Elec       q    Type
REMARK                         _______ _______ _______ _____ _____    ______ ____
ROOT
ATOM      1  C   UNL     1      -3.368   4.073  -2.020  0.00  0.00    +0.065 C 
ATOM      2  C   UNL     1      -3.241   4.936  -0.997  0.00  0.00    +0.016 C 
ATOM      3  N   UNL     1      -2.159   4.869  -0.165  0.00  0.00    -0.321 N 
ATOM      4  C   UNL     1      -1.406   3.728  -0.088  0.00  0.00    +0.016 C 
ATOM      5  C   UNL     1      -1.460   2.805  -1.071  0.00  0.00    +0.024 C 
ATOM      6  C   UNL     1      -2.331   3.019  -2.283  0.00  0.00    +0.092 C 
ATOM      7  C   UNL     1      -0.704   1.621  -0.997  0.00  0.00    +0.162 C 
ATOM      8  O   UNL     1      -0.768   0.815  -1.904  0.00  0.00    -0.292 OA
ATOM      9  C   UNL     1       0.183   1.335   0.184  0.00  0.00    +0.088 C 
ATOM     10  C   UNL     1      -0.388   2.037   1.421  0.00  0.00    +0.032 C 
ATOM     11  C   UNL     1      -0.517   3.531   1.115  0.00  0.00    +0.059 C 
ATOM     12  C   UNL     1      -4.298   5.984  -0.767  0.00  0.00    +0.061 C 
ATOM     13  H   UNL     1      -1.885   5.738   0.452  0.00  0.00    +0.152 HD
ENDROOT
BRANCH   6  14
ATOM     14  C   UNL     1      -1.470   3.452  -3.441  0.00  0.00    -0.034 A 
ATOM     15  C   UNL     1      -0.728   4.615  -3.354  0.00  0.00    +0.004 A 
ATOM     16  C   UNL     1       0.066   5.010  -4.415  0.00  0.00    +0.002 A 
ATOM     17  C   UNL     1       0.109   4.248  -5.567  0.00  0.00    +0.020 A 
ATOM     18  C   UNL     1      -0.638   3.087  -5.657  0.00  0.00    +0.041 A 
ATOM     19  C   UNL     1      -1.428   2.690  -4.593  0.00  0.00    +0.024 A 
ATOM     20 CL   UNL     1      -0.585   2.130  -7.104  0.00  0.00    -0.084 Cl
ENDBRANCH   6  14
BRANCH  10  21
ATOM     21  C   UNL     1       0.540   1.836   2.591  0.00  0.00    -0.040 A 
ATOM     22  C   UNL     1       1.844   2.291   2.523  0.00  0.00    +0.008 A 
ATOM     23  C   UNL     1       2.699   2.108   3.593  0.00  0.00    +0.049 A 
ATOM     24  C   UNL     1       2.251   1.469   4.738  0.00  0.00    +0.161 A 
ATOM     25  C   UNL     1       0.939   1.011   4.806  0.00  0.00    +0.162 A 
ATOM     26  C   UNL     1       0.085   1.202   3.732  0.00  0.00    +0.053 A 
BRANCH  25  27
ATOM     27  O   UNL     1       0.494   0.383   5.927  0.00  0.00    -0.491 OA
ATOM     28  C   UNL     1      -0.865  -0.060   5.927  0.00  0.00    +0.277 C 
ENDBRANCH  25  27
BRANCH  24  29
ATOM     29  O   UNL     1       3.091   1.289   5.792  0.00  0.00    -0.491 OA
ATOM     30  C   UNL     1       4.424   1.784   5.651  0.00  0.00    +0.277 C 
ENDBRANCH  24  29
ENDBRANCH  10  21
BRANCH   1  31
ATOM     31  C   UNL     1      -4.500   4.158  -2.863  0.00  0.00    +0.338 C 
ATOM     32  O   UNL     1      -5.405   4.923  -2.591  0.00  0.00    -0.245 OA
BRANCH  31  33
ATOM     33  O   UNL     1      -4.575   3.391  -3.971  0.00  0.00    -0.458 OA
BRANCH  33  34
ATOM     34  C   UNL     1      -5.747   3.529  -4.777  0.00  0.00    +0.173 C 
ATOM     35  C   UNL     1      -6.813   2.540  -4.301  0.00  0.00    +0.052 C 
BRANCH  34  37
ATOM     36  C   UNL     1      -4.426   4.303  -6.751  0.00  0.00    +0.007 C 
ATOM     37  C   UNL     1      -5.398   3.239  -6.238  0.00  0.00    +0.041 C 
ENDBRANCH  34  37
ENDBRANCH  33  34
ENDBRANCH  31  33
ENDBRANCH   1  31
TORSDOF 8
