REMARK  Name = ZINC10773776
REMARK  7 active torsions:
REMARK  status: ('A' for Active; 'I' for Inactive)
REMARK    1  A    between atoms: C_1  and  C_2
REMARK    2  A    between atoms: C_3  and  C_29
REMARK    3  A    between atoms: C_5  and  N_10
REMARK    4  A    between atoms: C_6  and  C_7
REMARK    5  A    between atoms: C_11  and  C_13
REMARK    6  A    between atoms: N_18  and  S_20
REMARK    7  A    between atoms: S_20  and  C_23
REMARK                            x       y       z     vdW  Elec       q    Type
REMARK                         _______ _______ _______ _____ _____    ______ ____
ROOT
ATOM      1  N   UNL     1       0.064  -3.100   2.116  0.00  0.00    -0.279 N 
ATOM      2  C   UNL     1       0.079  -4.411   1.803  0.00  0.00    +0.222 C 
ATOM      3  O   UNL     1       0.071  -4.758   0.641  0.00  0.00    -0.275 OA
ATOM      4  H   UNL     1       0.070  -2.823   3.045  0.00  0.00    +0.155 HD
ENDROOT
BRANCH   1   9
ATOM      5  C   UNL     1      -0.018   1.503   0.010  0.00  0.00    +0.045 C 
ATOM      6  C   UNL     1       0.002  -0.004   0.002  0.00  0.00    -0.027 A 
ATOM      7  C   UNL     1      -0.005  -0.699  -1.150  0.00  0.00    -0.008 A 
ATOM      8  S   UNL     1       0.028  -2.394  -0.605  0.00  0.00    -0.078 S 
ATOM      9  C   UNL     1       0.041  -2.147   1.108  0.00  0.00    +0.084 A 
ATOM     10  C   UNL     1       0.024  -0.763   1.230  0.00  0.00    +0.068 A 
ATOM     11  C   UNL     1      -0.032  -0.171  -2.561  0.00  0.00    +0.052 C 
BRANCH  10  12
ATOM     12  C   UNL     1       0.028  -0.106   2.540  0.00  0.00    +0.244 C 
ATOM     13  O   UNL     1      -1.025   0.153   3.094  0.00  0.00    -0.270 OA
ATOM     14  N   UNL     1       1.196   0.212   3.132  0.00  0.00    -0.325 N 
ATOM     15  H   UNL     1       2.035   0.006   2.690  0.00  0.00    +0.145 HD
ATOM     16  H   UNL     1       1.198   0.647   3.999  0.00  0.00    +0.145 HD
ENDBRANCH  10  12
ENDBRANCH   1   9
BRANCH   2  17
ATOM     17  C   UNL     1       0.104  -5.446   2.898  0.00  0.00    +0.091 C 
ATOM     18  C   UNL     1      -1.141  -5.293   3.775  0.00  0.00    +0.015 C 
ATOM     19  C   UNL     1      -1.100  -6.322   4.907  0.00  0.00    +0.018 C 
ATOM     20  C   UNL     1      -1.101  -7.732   4.309  0.00  0.00    +0.109 C 
ATOM     21  N   UNL     1       0.009  -7.842   3.353  0.00  0.00    -0.175 NA
ATOM     22  C   UNL     1       0.116  -6.847   2.277  0.00  0.00    +0.122 C 
BRANCH  21  23
ATOM     23  S   UNL     1       1.119  -9.063   3.486  0.00  0.00    +0.067 S 
ATOM     24  O   UNL     1       0.481 -10.117   4.194  0.00  0.00    -0.152 OA
ATOM     25  O   UNL     1       1.681  -9.245   2.193  0.00  0.00    -0.152 OA
BRANCH  23  26
ATOM     26  C   UNL     1       2.419  -8.476   4.521  0.00  0.00    +0.144 A 
ATOM     27  C   UNL     1       2.538  -8.556   5.868  0.00  0.00    +0.038 A 
ATOM     28  C   UNL     1       3.660  -8.023   6.475  0.00  0.00    +0.030 A 
ATOM     29  C   UNL     1       4.603  -7.426   5.704  0.00  0.00    +0.080 A 
ATOM     30  S   UNL     1       3.915  -7.615   4.067  0.00  0.00    -0.057 S 
ATOM     31 CL   UNL     1       6.093  -6.673   6.183  0.00  0.00    -0.076 Cl
ENDBRANCH  23  26
ENDBRANCH  21  23
ENDBRANCH   2  17
TORSDOF 5
