REMARK  Name = ZINC32944388
REMARK  13 active torsions:
REMARK  status: ('A' for Active; 'I' for Inactive)
REMARK    1  A    between atoms: C_1  and  C_2
REMARK    2  A    between atoms: C_2  and  C_3
REMARK    3  A    between atoms: C_2  and  C_4
REMARK    4  A    between atoms: C_4  and  C_5
REMARK    5  A    between atoms: C_5  and  N_6
REMARK    6  A    between atoms: C_7  and  C_9
REMARK    7  A    between atoms: C_16  and  S_28
REMARK    8  A    between atoms: N_17  and  C_20
REMARK    9  A    between atoms: C_23  and  O_26
REMARK   10  A    between atoms: O_26  and  C_27
REMARK   11  A    between atoms: S_28  and  C_29
REMARK   12  A    between atoms: C_29  and  C_30
REMARK   13  A    between atoms: C_30  and  C_32
REMARK                            x       y       z     vdW  Elec       q    Type
REMARK                         _______ _______ _______ _____ _____    ______ ____
ROOT
ATOM      1  C   UNL     1      -2.498   0.941   0.411  0.00  0.00    +0.039 A 
ATOM      2  C   UNL     1      -2.523  -0.362   0.925  0.00  0.00    +0.014 A 
ATOM      3  C   UNL     1      -3.691  -1.068   0.971  0.00  0.00    +0.016 A 
ATOM      4  C   UNL     1      -4.869  -0.496   0.492  0.00  0.00    +0.065 A 
ATOM      5  C   UNL     1      -4.859   0.816  -0.035  0.00  0.00    +0.080 A 
ATOM      6  C   UNL     1      -3.659   1.531  -0.071  0.00  0.00    +0.041 A 
ATOM      7  N   UNL     1      -6.015   1.351  -0.494  0.00  0.00    -0.223 NA
ATOM      8  C   UNL     1      -7.141   0.683  -0.461  0.00  0.00    +0.177 A 
ATOM      9  N   UNL     1      -7.239  -0.589   0.031  0.00  0.00    -0.255 N 
ATOM     10  C   UNL     1      -6.147  -1.224   0.516  0.00  0.00    +0.267 A 
ATOM     11  O   UNL     1      -6.220  -2.356   0.958  0.00  0.00    -0.267 OA
ENDROOT
BRANCH   9  12
ATOM     12  C   UNL     1      -8.480  -1.241   0.033  0.00  0.00    +0.052 A 
ATOM     13  C   UNL     1      -8.866  -2.002  -1.062  0.00  0.00    +0.030 A 
ATOM     14  C   UNL     1     -10.087  -2.648  -1.057  0.00  0.00    +0.047 A 
ATOM     15  C   UNL     1     -10.932  -2.527   0.036  0.00  0.00    +0.120 A 
ATOM     16  C   UNL     1     -10.549  -1.762   1.129  0.00  0.00    +0.047 A 
ATOM     17  C   UNL     1      -9.326  -1.120   1.127  0.00  0.00    +0.030 A 
BRANCH  15  18
ATOM     18  O   UNL     1     -12.136  -3.159   0.038  0.00  0.00    -0.495 OA
ATOM     19  C   UNL     1     -12.465  -3.929  -1.119  0.00  0.00    +0.277 C 
ENDBRANCH  15  18
ENDBRANCH   9  12
BRANCH   1  21
ATOM     20  N   UNL     1      -0.093   1.124   0.842  0.00  0.00    -0.311 N 
ATOM     21  C   UNL     1      -1.222   1.692   0.376  0.00  0.00    +0.244 C 
ATOM     22  O   UNL     1      -1.194   2.821  -0.074  0.00  0.00    -0.270 OA
ATOM     23  H   UNL     1      -0.119   0.104   1.253  0.00  0.00    +0.149 HD
BRANCH  20  24
ATOM     24  C   UNL     1       1.170   1.865   0.801  0.00  0.00    +0.105 C 
BRANCH  24  25
ATOM     25  C   UNL     1       2.290   0.997   1.380  0.00  0.00    +0.022 C 
BRANCH  25  27
ATOM     26  C   UNL     1       3.518   2.985   2.264  0.00  0.00    +0.007 C 
ATOM     27  C   UNL     1       3.609   1.771   1.338  0.00  0.00    -0.016 C 
ATOM     28  C   UNL     1       4.749   0.861   1.800  0.00  0.00    +0.007 C 
ENDBRANCH  25  27
ENDBRANCH  24  25
ENDBRANCH  20  24
ENDBRANCH   1  21
BRANCH   8  29
ATOM     29  S   UNL     1      -8.597   1.459  -1.080  0.00  0.00    -0.079 S 
BRANCH  29  30
ATOM     30  C   UNL     1      -7.913   3.058  -1.580  0.00  0.00    +0.157 C 
BRANCH  30  31
ATOM     31  C   UNL     1      -9.010   3.916  -2.156  0.00  0.00    +0.173 C 
ATOM     32  O   UNL     1     -10.142   3.488  -2.222  0.00  0.00    -0.291 OA
BRANCH  31  33
ATOM     33  C   UNL     1      -8.706   5.273  -2.639  0.00  0.00    +0.018 A 
ATOM     34  C   UNL     1      -7.402   5.772  -2.559  0.00  0.00    +0.011 A 
ATOM     35  C   UNL     1      -7.125   7.042  -3.018  0.00  0.00    +0.001 A 
ATOM     36  C   UNL     1      -8.135   7.827  -3.546  0.00  0.00    +0.000 A 
ATOM     37  C   UNL     1      -9.429   7.342  -3.623  0.00  0.00    +0.001 A 
ATOM     38  C   UNL     1      -9.721   6.072  -3.174  0.00  0.00    +0.011 A 
ENDBRANCH  31  33
ENDBRANCH  30  31
ENDBRANCH  29  30
ENDBRANCH   8  29
TORSDOF 10
