REMARK  Name = ZINC19939879
REMARK  5 active torsions:
REMARK  status: ('A' for Active; 'I' for Inactive)
REMARK    1  A    between atoms: N_9  and  C1*_10
REMARK    2  A    between atoms: C2*_12  and  O2*_22
REMARK    3  A    between atoms: C3*_14  and  O3*_21
REMARK    4  A    between atoms: C4*_16  and  C5*_19
REMARK    5  A    between atoms: C5*_19  and  O5*_20
REMARK                            x       y       z     vdW  Elec       q    Type
REMARK                         _______ _______ _______ _____ _____    ______ ____
ROOT
ATOM      1  C   UNL     1       0.206   4.529  -2.961  0.00  0.00    +0.203 A 
ATOM      2  N   UNL     1      -0.205   5.719  -3.289  0.00  0.00    -0.231 NA
ATOM      3  C   UNL     1       0.465   6.645  -2.561  0.00  0.00    +0.147 A 
ATOM      4  C   UNL     1       0.446   8.048  -2.490  0.00  0.00    +0.150 A 
ATOM      5  N   UNL     1       1.264   8.651  -1.634  0.00  0.00    -0.185 NA
ATOM      6  C   UNL     1       2.082   7.954  -0.862  0.00  0.00    +0.313 A 
ATOM      7  N   UNL     1       2.133   6.637  -0.895  0.00  0.00    -0.182 NA
ATOM      8  C   UNL     1       1.350   5.949  -1.721  0.00  0.00    +0.170 A 
ATOM      9  N   UNL     1       1.163   4.618  -1.993  0.00  0.00    -0.285 N 
ATOM     10  F   UNL     1       2.893   8.616  -0.008  0.00  0.00    -0.161 F 
ATOM     11  N   UNL     1      -0.405   8.786  -3.294  0.00  0.00    -0.341 N 
ATOM     12  H   UNL     1      -0.410   9.884  -3.229  0.00  0.00    +0.144 HD
ATOM     13  H   UNL     1      -1.077   8.274  -3.999  0.00  0.00    +0.144 HD
ENDROOT
BRANCH   9  14
ATOM     14  C1* UNL     1       1.865   3.497  -1.363  0.00  0.00    +0.253 C 
ATOM     15  C2* UNL     1       1.171   3.102  -0.041  0.00  0.00    +0.195 C 
ATOM     16  C3* UNL     1       1.286   1.562  -0.002  0.00  0.00    +0.178 C 
ATOM     17  C4* UNL     1       2.038   1.206  -1.304  0.00  0.00    +0.177 C 
ATOM     18  O4* UNL     1       1.777   2.318  -2.192  0.00  0.00    -0.346 OA
BRANCH  16  19
ATOM     19  O3* UNL     1      -0.011   0.963   0.007  0.00  0.00    -0.386 OA
ATOM     20  H3* UNL     1      -0.111  -0.132   0.034  0.00  0.00    +0.210 HD
ENDBRANCH  16  19
BRANCH  15  21
ATOM     21  O2* UNL     1      -0.201   3.502  -0.053  0.00  0.00    -0.385 OA
ATOM     22  H2* UNL     1      -0.842   3.295   0.816  0.00  0.00    +0.210 HD
ENDBRANCH  15  21
BRANCH  17  23
ATOM     23  C5* UNL     1       1.489  -0.094  -1.897  0.00  0.00    +0.190 C 
BRANCH  23  24
ATOM     24  O5* UNL     1       2.272  -0.467  -3.033  0.00  0.00    -0.392 OA
ATOM     25  H5* UNL     1       2.026  -1.380  -3.594  0.00  0.00    +0.210 HD
ENDBRANCH  23  24
ENDBRANCH  17  23
ENDBRANCH   9  14
TORSDOF 5
