REMARK  Name = ZINC20079817
REMARK  15 active torsions:
REMARK  status: ('A' for Active; 'I' for Inactive)
REMARK    1  A    between atoms: C_1  and  C_2
REMARK    2  A    between atoms: C_2  and  C_3
REMARK    3  A    between atoms: C_3  and  C_4
REMARK    4  A    between atoms: C_3  and  C_5
REMARK    5  A    between atoms: C_3  and  N_6
REMARK    6  A    between atoms: C_7  and  C_11
REMARK    7  A    between atoms: C_11  and  C_13
REMARK    8  A    between atoms: C_11  and  N_27
REMARK    9  A    between atoms: C_17  and  C_26
REMARK   10  A    between atoms: C_18  and  C_25
REMARK   11  A    between atoms: N_27  and  C_28
REMARK   12  A    between atoms: N_27  and  C_36
REMARK   13  A    between atoms: C_28  and  C_29
REMARK   14  A    between atoms: C_29  and  C_30
REMARK   15  A    between atoms: C_36  and  C_37
REMARK                            x       y       z     vdW  Elec       q    Type
REMARK                         _______ _______ _______ _____ _____    ______ ____
ROOT
ATOM      1  C   UNL     1       5.891  -1.205  -0.318  0.00  0.00    +0.163 C 
ENDROOT
BRANCH   1   2
ATOM      2  C   UNL     1       6.797  -0.715   0.782  0.00  0.00    +0.042 A 
ATOM      3  C   UNL     1       7.956  -0.083   0.472  0.00  0.00    +0.021 A 
ATOM      4  C   UNL     1       8.812   0.386   1.564  0.00  0.00    -0.001 A 
ATOM      5  C   UNL     1      10.017   1.048   1.306  0.00  0.00    +0.013 A 
ATOM      6  C   UNL     1      10.794   1.469   2.347  0.00  0.00    -0.047 A 
ATOM      7  C   UNL     1      10.400   1.245   3.659  0.00  0.00    -0.046 A 
ATOM      8  C   UNL     1       9.217   0.594   3.937  0.00  0.00    +0.030 A 
ATOM      9  C   UNL     1       8.409   0.156   2.893  0.00  0.00    +0.049 A 
ATOM     10  N   UNL     1       7.221  -0.497   3.141  0.00  0.00    -0.322 N 
ATOM     11  H   UNL     1       6.900  -0.679   4.178  0.00  0.00    +0.169 HD
ATOM     12  C   UNL     1       6.439  -0.919   2.132  0.00  0.00    +0.254 A 
ATOM     13  O   UNL     1       5.395  -1.493   2.389  0.00  0.00    -0.268 OA
ATOM     14  C   UNL     1      11.274   1.719   4.791  0.00  0.00    +0.044 C 
ATOM     15  C   UNL     1      12.092   2.183   2.068  0.00  0.00    +0.044 C 
ENDBRANCH   1   2
BRANCH   1  17
ATOM     16  N   UNL     1       6.350  -3.630  -0.961  0.00  0.00    -0.222 N 
ATOM     17  C   UNL     1       5.733  -2.700  -0.209  0.00  0.00    +0.174 A 
ATOM     18  N   UNL     1       4.964  -3.346   0.633  0.00  0.00    -0.111 NA
ATOM     19  N   UNL     1       5.105  -4.608   0.413  0.00  0.00    -0.023 NA
ATOM     20  N   UNL     1       5.944  -4.783  -0.547  0.00  0.00    -0.043 NA
BRANCH  16  21
ATOM     21  C   UNL     1       7.306  -3.381  -2.043  0.00  0.00    +0.062 C 
ATOM     22  C   UNL     1       6.604  -2.639  -3.182  0.00  0.00    +0.036 C 
ATOM     23  C   UNL     1       8.462  -2.529  -1.516  0.00  0.00    +0.036 C 
BRANCH  21  25
ATOM     24  C   UNL     1       8.847  -4.454  -3.691  0.00  0.00    +0.006 C 
ATOM     25  C   UNL     1       7.849  -4.714  -2.561  0.00  0.00    +0.026 C 
ENDBRANCH  21  25
ENDBRANCH  16  21
ENDBRANCH   1  17
BRANCH   1  26
ATOM     26  N   UNL     1       4.576  -0.563  -0.192  0.00  0.00    -0.284 NA
BRANCH  26  27
ATOM     27  C   UNL     1       4.712   0.893  -0.054  0.00  0.00    +0.090 C 
BRANCH  27  28
ATOM     28  C   UNL     1       3.389   1.485   0.435  0.00  0.00    +0.050 C 
BRANCH  28  29
ATOM     29  C   UNL     1       3.502   2.987   0.494  0.00  0.00    -0.046 A 
ATOM     30  C   UNL     1       3.934   3.602   1.655  0.00  0.00    +0.003 A 
ATOM     31  C   UNL     1       4.042   4.979   1.708  0.00  0.00    +0.000 A 
ATOM     32  C   UNL     1       3.710   5.742   0.604  0.00  0.00    +0.000 A 
ATOM     33  C   UNL     1       3.273   5.127  -0.554  0.00  0.00    +0.000 A 
ATOM     34  C   UNL     1       3.169   3.749  -0.610  0.00  0.00    +0.003 A 
ENDBRANCH  28  29
ENDBRANCH  27  28
ENDBRANCH  26  27
BRANCH  26  35
ATOM     35  C   UNL     1       3.712  -0.906  -1.329  0.00  0.00    +0.120 C 
BRANCH  35  36
ATOM     36  C   UNL     1       3.093  -2.261  -1.099  0.00  0.00    -0.033 A 
ATOM     37  C   UNL     1       1.968  -2.381  -0.305  0.00  0.00    +0.005 A 
ATOM     38  C   UNL     1       1.400  -3.624  -0.093  0.00  0.00    +0.000 A 
ATOM     39  C   UNL     1       1.958  -4.746  -0.676  0.00  0.00    +0.000 A 
ATOM     40  C   UNL     1       3.083  -4.626  -1.471  0.00  0.00    +0.000 A 
ATOM     41  C   UNL     1       3.651  -3.384  -1.682  0.00  0.00    +0.005 A 
ENDBRANCH  35  36
ENDBRANCH  26  35
ENDBRANCH   1  26
TORSDOF 10
