REMARK  Name = ZINC28832344
REMARK  9 active torsions:
REMARK  status: ('A' for Active; 'I' for Inactive)
REMARK    1  A    between atoms: C_1  and  C_2
REMARK    2  A    between atoms: C_5  and  S_7
REMARK    3  A    between atoms: S_7  and  C_8
REMARK    4  A    between atoms: C_11  and  N_29
REMARK    5  A    between atoms: C_13  and  C_14
REMARK    6  A    between atoms: C_14  and  O_16
REMARK    7  A    between atoms: O_16  and  C_17
REMARK    8  A    between atoms: C_17  and  C_18
REMARK    9  A    between atoms: N_20  and  C_21
REMARK                            x       y       z     vdW  Elec       q    Type
REMARK                         _______ _______ _______ _____ _____    ______ ____
ROOT
ATOM      1  C   UNL     1      -1.407   3.648   5.721  0.00  0.00    +0.029 A 
ATOM      2  C   UNL     1      -2.612   3.742   5.035  0.00  0.00    +0.018 A 
ATOM      3  C   UNL     1      -3.729   4.248   5.666  0.00  0.00    +0.034 A 
ATOM      4  C   UNL     1      -3.659   4.676   6.983  0.00  0.00    +0.127 A 
ATOM      5  C   UNL     1      -2.473   4.595   7.679  0.00  0.00    +0.048 A 
ATOM      6  C   UNL     1      -1.332   4.080   7.055  0.00  0.00    +0.075 A 
ENDROOT
BRANCH   4   7
ATOM      7  N   UNL     1      -4.865   5.221   7.646  0.00  0.00    +0.056 N 
ATOM      8  O   UNL     1      -4.807   5.598   8.802  0.00  0.00    -0.126 OA
ATOM      9  O   UNL     1      -5.916   5.294   7.034  0.00  0.00    -0.126 OA
ENDBRANCH   4   7
BRANCH   6  10
ATOM     10  C   UNL     1      -0.061   3.991   7.793  0.00  0.00    +0.341 C 
ATOM     11  O   UNL     1       0.928   3.542   7.247  0.00  0.00    -0.245 OA
BRANCH  10  12
ATOM     12  O   UNL     1       0.006   4.407   9.073  0.00  0.00    -0.452 OA
BRANCH  12  13
ATOM     13  C   UNL     1       1.291   4.290   9.738  0.00  0.00    +0.328 C 
BRANCH  13  14
ATOM     14  C   UNL     1       1.174   4.800  11.152  0.00  0.00    +0.255 C 
ATOM     15  O   UNL     1       0.112   5.221  11.558  0.00  0.00    -0.272 OA
ATOM     16  N   UNL     1       2.250   4.788  11.964  0.00  0.00    -0.283 N 
ATOM     17  H   UNL     1       3.232   4.486  11.571  0.00  0.00    +0.155 HD
BRANCH  16  18
ATOM     18  C   UNL     1       2.117   5.160  13.307  0.00  0.00    +0.036 A 
ATOM     19  C   UNL     1       3.162   5.806  13.956  0.00  0.00    +0.026 A 
ATOM     20  C   UNL     1       3.028   6.178  15.279  0.00  0.00    +0.043 A 
ATOM     21  C   UNL     1       1.857   5.897  15.963  0.00  0.00    +0.159 A 
ATOM     22  C   UNL     1       0.815   5.248  15.320  0.00  0.00    +0.160 A 
ATOM     23  C   UNL     1       0.944   4.879  13.993  0.00  0.00    +0.064 A 
ATOM     24  F   UNL     1      -0.327   4.975  15.989  0.00  0.00    -0.202 F 
ATOM     25  F   UNL     1       1.731   6.258  17.259  0.00  0.00    -0.202 F 
ENDBRANCH  16  18
ENDBRANCH  13  14
ENDBRANCH  12  13
ENDBRANCH  10  12
ENDBRANCH   6  10
BRANCH   1  26
ATOM     26  S   UNL     1       0.020   2.997   4.919  0.00  0.00    -0.062 S 
BRANCH  26  31
ATOM     27  C   UNL     1       1.961  -1.849   5.428  0.00  0.00    +0.066 C 
ATOM     28  C   UNL     1       0.981  -0.770   5.813  0.00  0.00    +0.047 A 
ATOM     29  C   UNL     1       0.042  -0.995   6.764  0.00  0.00    +0.070 A 
ATOM     30  S   UNL     1      -0.791   0.586   6.788  0.00  0.00    -0.069 S 
ATOM     31  C   UNL     1       0.160   1.361   5.560  0.00  0.00    +0.139 A 
ATOM     32  N   UNL     1       1.014   0.411   5.229  0.00  0.00    -0.238 NA
ENDBRANCH  26  31
ENDBRANCH   1  26
TORSDOF 8
