REMARK  Name = ZINC13034040
REMARK  13 active torsions:
REMARK  status: ('A' for Active; 'I' for Inactive)
REMARK    1  A    between atoms: C_1  and  C_2
REMARK    2  A    between atoms: C_2  and  C_3
REMARK    3  A    between atoms: C_10  and  C_15
REMARK    4  A    between atoms: C_15  and  N_73
REMARK    5  A    between atoms: C_16  and  C_17
REMARK    6  A    between atoms: C_16  and  N_73
REMARK    7  A    between atoms: C_22  and  O_23
REMARK    8  A    between atoms: O_23  and  C_24
REMARK    9  A    between atoms: C_25  and  C_27
REMARK   10  A    between atoms: C_25  and  C_29
REMARK   11  A    between atoms: C_25  and  N_73
REMARK   12  A    between atoms: C_27  and  C_28
REMARK   13  A    between atoms: N_33  and  C_34
REMARK                            x       y       z     vdW  Elec       q    Type
REMARK                         _______ _______ _______ _____ _____    ______ ____
ROOT
ATOM      1  N   UNL     1       2.701   3.148   0.640  0.00  0.00    +0.392 N 
ATOM      2  H   UNL     1       3.334   2.380   0.387  0.00  0.00    -0.080 HD
ENDROOT
BRANCH   1   3
ATOM      3  C   UNL     1       3.346   4.433   0.301  0.00  0.00    -0.036 C 
BRANCH   3  11
ATOM      4  C   UNL     1       9.478   3.621   0.137  0.00  0.00    -0.047 A 
ATOM      5  C   UNL     1       9.719   3.989   1.454  0.00  0.00    +0.005 A 
ATOM      6  C   UNL     1       8.683   4.366   2.280  0.00  0.00    +0.026 A 
ATOM      7  C   UNL     1       7.380   4.381   1.790  0.00  0.00    +0.049 A 
ATOM      8  C   UNL     1       7.140   4.007   0.455  0.00  0.00    -0.001 A 
ATOM      9  C   UNL     1       8.208   3.627  -0.365  0.00  0.00    +0.013 A 
ATOM     10  C   UNL     1       5.766   4.026  -0.051  0.00  0.00    +0.017 A 
ATOM     11  C   UNL     1       4.771   4.404   0.789  0.00  0.00    +0.001 A 
ATOM     12  C   UNL     1       5.067   4.774   2.119  0.00  0.00    +0.251 A 
ATOM     13  O   UNL     1       4.158   5.116   2.856  0.00  0.00    -0.268 OA
ATOM     14  N   UNL     1       6.325   4.755   2.594  0.00  0.00    -0.322 N 
ATOM     15  H   UNL     1       6.492   5.013   3.514  0.00  0.00    +0.169 HD
BRANCH   4  17
ATOM     16  C   UNL     1      11.188   4.443  -1.460  0.00  0.00    +0.009 C 
ATOM     17  C   UNL     1      10.628   3.211  -0.746  0.00  0.00    +0.032 C 
ENDBRANCH   4  17
ENDBRANCH   3  11
ENDBRANCH   1   3
BRANCH   1  18
ATOM     18  C   UNL     1       2.429   3.087   2.091  0.00  0.00    -0.038 C 
BRANCH  18  19
ATOM     19  C   UNL     1       1.979   1.692   2.443  0.00  0.00    -0.022 A 
ATOM     20  C   UNL     1       0.636   1.425   2.630  0.00  0.00    +0.005 A 
ATOM     21  C   UNL     1       0.222   0.145   2.948  0.00  0.00    +0.000 A 
ATOM     22  C   UNL     1       1.151  -0.869   3.090  0.00  0.00    +0.004 A 
ATOM     23  C   UNL     1       2.495  -0.607   2.909  0.00  0.00    +0.046 A 
ATOM     24  C   UNL     1       2.913   0.676   2.585  0.00  0.00    +0.121 A 
BRANCH  24  25
ATOM     25  O   UNL     1       4.235   0.937   2.407  0.00  0.00    -0.495 OA
ATOM     26  C   UNL     1       5.139  -0.157   2.569  0.00  0.00    +0.277 C 
ENDBRANCH  24  25
ENDBRANCH  18  19
ENDBRANCH   1  18
BRANCH   1  27
ATOM     27  C   UNL     1       1.440   3.000  -0.117  0.00  0.00    +0.003 C 
BRANCH  27  28
ATOM     28  C   UNL     1       1.760   2.443  -1.480  0.00  0.00    +0.138 A 
ATOM     29  N   UNL     1       2.719   2.838  -2.282  0.00  0.00    -0.115 NA
ATOM     30  N   UNL     1       2.667   2.119  -3.350  0.00  0.00    -0.023 NA
ATOM     31  N   UNL     1       1.700   1.275  -3.250  0.00  0.00    -0.044 NA
ATOM     32  N   UNL     1       1.117   1.443  -2.111  0.00  0.00    -0.228 N 
BRANCH  32  33
ATOM     33  C   UNL     1      -0.034   0.692  -1.603  0.00  0.00    +0.111 C 
ATOM     34  C   UNL     1       0.298  -0.814  -1.557  0.00  0.00    +0.027 C 
ATOM     35  C   UNL     1      -1.028  -1.507  -1.963  0.00  0.00    +0.002 C 
ATOM     36  C   UNL     1      -1.584  -0.565  -3.060  0.00  0.00    +0.002 C 
ATOM     37  C   UNL     1      -1.230   0.850  -2.558  0.00  0.00    +0.027 C 
ENDBRANCH  32  33
ENDBRANCH  27  28
BRANCH  27  38
ATOM     38  C   UNL     1       0.747   4.356  -0.270  0.00  0.00    -0.011 C 
ATOM     39  C   UNL     1       0.307   4.861   1.105  0.00  0.00    +0.002 C 
ENDBRANCH  27  38
ENDBRANCH   1  27
TORSDOF 10
