REMARK  Name = ZINC24221196
REMARK  9 active torsions:
REMARK  status: ('A' for Active; 'I' for Inactive)
REMARK    1  A    between atoms: C_1  and  C_2
REMARK    2  A    between atoms: C_2  and  C_3
REMARK    3  A    between atoms: C_2  and  C_4
REMARK    4  A    between atoms: C_7  and  C_10
REMARK    5  A    between atoms: C_10  and  C_12
REMARK    6  A    between atoms: C_10  and  N_17
REMARK    7  A    between atoms: C_18  and  C_20
REMARK    8  A    between atoms: C_20  and  N_21
REMARK    9  A    between atoms: C_24  and  N_32
REMARK                            x       y       z     vdW  Elec       q    Type
REMARK                         _______ _______ _______ _____ _____    ______ ____
ROOT
ATOM      1  N   UNL     1      -2.778  -1.704  -1.731  0.00  0.00    -0.303 N 
ATOM      2  C   UNL     1      -1.651  -1.017  -1.458  0.00  0.00    +0.232 C 
ATOM      3  O   UNL     1      -0.959  -0.603  -2.364  0.00  0.00    -0.274 OA
ATOM      4  H   UNL     1      -3.405  -2.080  -0.909  0.00  0.00    +0.150 HD
ENDROOT
BRANCH   1   5
ATOM      5  C   UNL     1      -3.167  -1.950  -3.122  0.00  0.00    +0.140 C 
BRANCH   5   9
ATOM      6  C   UNL     1      -5.626  -5.437  -3.316  0.00  0.00    -0.045 A 
ATOM      7  C   UNL     1      -4.675  -5.207  -4.292  0.00  0.00    +0.004 A 
ATOM      8  C   UNL     1      -3.879  -4.079  -4.229  0.00  0.00    +0.006 A 
ATOM      9  C   UNL     1      -4.035  -3.180  -3.190  0.00  0.00    -0.022 A 
ATOM     10  C   UNL     1      -4.983  -3.412  -2.212  0.00  0.00    +0.006 A 
ATOM     11  C   UNL     1      -5.783  -4.538  -2.278  0.00  0.00    +0.004 A 
BRANCH   6  13
ATOM     12  C   UNL     1      -6.279  -7.513  -2.128  0.00  0.00    +0.012 C 
ATOM     13  C   UNL     1      -6.494  -6.668  -3.384  0.00  0.00    +0.013 C 
ATOM     14  C   UNL     1      -7.963  -6.252  -3.474  0.00  0.00    +0.012 C 
ENDBRANCH   6  13
ENDBRANCH   5   9
BRANCH   5  15
ATOM     15  C   UNL     1      -3.935  -0.763  -3.645  0.00  0.00    +0.014 A 
ATOM     16  C   UNL     1      -3.870  -0.175  -4.864  0.00  0.00    +0.013 A 
ATOM     17  C   UNL     1      -4.681   0.913  -5.128  0.00  0.00    +0.008 A 
ATOM     18  C   UNL     1      -5.509   1.367  -4.155  0.00  0.00    +0.045 A 
ATOM     19  S   UNL     1      -5.161   0.237  -2.817  0.00  0.00    -0.099 S 
ENDBRANCH   5  15
ENDBRANCH   1   5
BRANCH   2  20
ATOM     20  C   UNL     1      -1.250  -0.765  -0.027  0.00  0.00    +0.209 C 
BRANCH  20  21
ATOM     21  N   UNL     1       0.002  -0.004   0.002  0.00  0.00    -0.256 N 
ATOM     22  C   UNL     1       1.238  -0.667   0.022  0.00  0.00    +0.081 A 
ATOM     23  C   UNL     1       1.325  -2.011  -0.301  0.00  0.00    +0.060 A 
ATOM     24  C   UNL     1       2.554  -2.646  -0.274  0.00  0.00    +0.128 A 
ATOM     25  C   UNL     1       3.692  -1.943   0.075  0.00  0.00    +0.036 A 
ATOM     26  C   UNL     1       3.611  -0.601   0.399  0.00  0.00    +0.050 A 
ATOM     27  C   UNL     1       2.385   0.042   0.374  0.00  0.00    +0.143 A 
ATOM     28  O   UNL     1       2.287   1.361   0.688  0.00  0.00    -0.481 OA
ATOM     29  C   UNL     1       1.282   2.112   0.001  0.00  0.00    +0.325 C 
ATOM     30  C   UNL     1      -0.016   1.347   0.009  0.00  0.00    +0.258 C 
ATOM     31  O   UNL     1      -1.073   1.941   0.018  0.00  0.00    -0.271 OA
BRANCH  24  32
ATOM     32  N   UNL     1       2.650  -4.082  -0.619  0.00  0.00    +0.056 N 
ATOM     33  O   UNL     1       1.648  -4.702  -0.927  0.00  0.00    -0.126 OA
ATOM     34  O   UNL     1       3.731  -4.643  -0.596  0.00  0.00    -0.126 OA
ENDBRANCH  24  32
ENDBRANCH  20  21
ENDBRANCH   2  20
TORSDOF 7
