REMARK  Name = ZINC40743543
REMARK  11 active torsions:
REMARK  status: ('A' for Active; 'I' for Inactive)
REMARK    1  A    between atoms: C_4  and  N_7
REMARK    2  A    between atoms: C_8  and  S_12
REMARK    3  A    between atoms: S_12  and  C_13
REMARK    4  A    between atoms: C_13  and  C_14
REMARK    5  A    between atoms: C_14  and  C_15
REMARK    6  A    between atoms: C_15  and  N_16
REMARK    7  A    between atoms: N_16  and  C_17
REMARK    8  A    between atoms: C_17  and  C_18
REMARK    9  A    between atoms: C_23  and  O_24
REMARK   10  A    between atoms: O_24  and  C_25
REMARK   11  A    between atoms: C_25  and  C_26
REMARK                            x       y       z     vdW  Elec       q    Type
REMARK                         _______ _______ _______ _____ _____    ______ ____
ROOT
ATOM      1  N   UNL     1       3.041  -7.286   4.146  0.00  0.00    +0.382 N 
ATOM      2  H   UNL     1       2.719  -6.797   4.968  0.00  0.00    -0.085 HD
ATOM      3  H   UNL     1       2.247  -7.609   3.614  0.00  0.00    -0.085 HD
ENDROOT
BRANCH   1   4
ATOM      4  C   UNL     1       3.848  -6.378   3.320  0.00  0.00    -0.081 C 
BRANCH   4   5
ATOM      5  C   UNL     1       2.995  -5.179   2.898  0.00  0.00    -0.008 C 
BRANCH   5   6
ATOM      6  C   UNL     1       3.835  -4.234   2.038  0.00  0.00    +0.075 C 
BRANCH   6   7
ATOM      7  S   UNL     1       2.824  -2.812   1.538  0.00  0.00    -0.084 S 
BRANCH   7   9
ATOM      8  N   UNL     1       3.624  -0.652  -0.037  0.00  0.00    -0.187 N 
ATOM      9  C   UNL     1       3.918  -1.831   0.567  0.00  0.00    +0.214 A 
ATOM     10  N   UNL     1       5.176  -2.102   0.291  0.00  0.00    -0.101 NA
ATOM     11  N   UNL     1       5.685  -1.178  -0.441  0.00  0.00    -0.022 NA
ATOM     12  N   UNL     1       4.809  -0.266  -0.689  0.00  0.00    -0.038 NA
BRANCH   8  16
ATOM     13  C   UNL     1      -0.017   1.379   0.010  0.00  0.00    +0.000 A 
ATOM     14  C   UNL     1       1.170   2.089   0.002  0.00  0.00    +0.002 A 
ATOM     15  C   UNL     1       2.377   1.419  -0.013  0.00  0.00    +0.028 A 
ATOM     16  C   UNL     1       2.399   0.031  -0.021  0.00  0.00    +0.070 A 
ATOM     17  C   UNL     1       1.207  -0.680  -0.013  0.00  0.00    +0.028 A 
ATOM     18  C   UNL     1       0.002  -0.004   0.002  0.00  0.00    +0.002 A 
ENDBRANCH   8  16
ENDBRANCH   7   9
ENDBRANCH   6   7
ENDBRANCH   5   6
ENDBRANCH   4   5
ENDBRANCH   1   4
BRANCH   1  19
ATOM     19  C   UNL     1       3.860  -8.437   4.551  0.00  0.00    -0.043 C 
BRANCH  19  20
ATOM     20  C   UNL     1       3.033  -9.368   5.398  0.00  0.00    -0.021 A 
ATOM     21  C   UNL     1       3.150  -9.338   6.775  0.00  0.00    +0.025 A 
ATOM     22  C   UNL     1       2.391 -10.194   7.553  0.00  0.00    +0.041 A 
ATOM     23  C   UNL     1       1.513 -11.081   6.956  0.00  0.00    +0.023 A 
ATOM     24  C   UNL     1       1.393 -11.114   5.580  0.00  0.00    +0.047 A 
ATOM     25  C   UNL     1       2.149 -10.253   4.798  0.00  0.00    +0.122 A 
ATOM     26 CL   UNL     1       2.541 -10.155   9.283  0.00  0.00    -0.084 Cl
BRANCH  25  27
ATOM     27  O   UNL     1       2.028 -10.280   3.444  0.00  0.00    -0.487 OA
BRANCH  27  28
ATOM     28  C   UNL     1       1.098 -11.216   2.895  0.00  0.00    +0.264 C 
BRANCH  28  29
ATOM     29  C   UNL     1       1.100 -11.102   1.392  0.00  0.00    -0.009 A 
ATOM     30  C   UNL     1       0.238 -10.221   0.764  0.00  0.00    +0.007 A 
ATOM     31  C   UNL     1       0.239 -10.116  -0.614  0.00  0.00    +0.002 A 
ATOM     32  C   UNL     1       1.102 -10.892  -1.366  0.00  0.00    +0.020 A 
ATOM     33  C   UNL     1       1.964 -11.774  -0.738  0.00  0.00    +0.041 A 
ATOM     34  C   UNL     1       1.967 -11.874   0.642  0.00  0.00    +0.027 A 
ATOM     35 CL   UNL     1       3.047 -12.748  -1.682  0.00  0.00    -0.084 Cl
ENDBRANCH  28  29
ENDBRANCH  27  28
ENDBRANCH  25  27
ENDBRANCH  19  20
ENDBRANCH   1  19
TORSDOF 11
