REMARK  Name = ZINC39845936
REMARK  11 active torsions:
REMARK  status: ('A' for Active; 'I' for Inactive)
REMARK    1  A    between atoms: C_1  and  C_2
REMARK    2  A    between atoms: C_2  and  C_3
REMARK    3  A    between atoms: C_3  and  C_5
REMARK    4  A    between atoms: C_3  and  N_6
REMARK    5  A    between atoms: N_6  and  C_7
REMARK    6  A    between atoms: C_8  and  S_20
REMARK    7  A    between atoms: C_10  and  C_12
REMARK    8  A    between atoms: C_15  and  O_18
REMARK    9  A    between atoms: O_18  and  C_19
REMARK   10  A    between atoms: S_20  and  C_23
REMARK   11  A    between atoms: C_26  and  C_29
REMARK                            x       y       z     vdW  Elec       q    Type
REMARK                         _______ _______ _______ _____ _____    ______ ____
ROOT
ATOM      1  C   UNL     1       0.581   0.033  -3.669  0.00  0.00    +0.233 A 
ATOM      2  C   UNL     1      -0.002   0.386  -4.840  0.00  0.00    +0.243 A 
ATOM      3  N   UNL     1       0.954   0.413  -5.781  0.00  0.00    -0.188 NA
ATOM      4  C   UNL     1       2.099   0.090  -5.228  0.00  0.00    +0.231 A 
ATOM      5  O   UNL     1       1.894  -0.145  -3.918  0.00  0.00    -0.420 OA
ENDROOT
BRANCH   4   6
ATOM      6  C   UNL     1       3.398   0.004  -5.926  0.00  0.00    +0.037 A 
ATOM      7  C   UNL     1       3.479   0.285  -7.291  0.00  0.00    +0.017 A 
ATOM      8  C   UNL     1       4.694   0.204  -7.938  0.00  0.00    +0.046 A 
ATOM      9  C   UNL     1       5.835  -0.157  -7.234  0.00  0.00    +0.120 A 
ATOM     10  C   UNL     1       5.758  -0.437  -5.876  0.00  0.00    +0.046 A 
ATOM     11  C   UNL     1       4.549  -0.352  -5.220  0.00  0.00    +0.017 A 
BRANCH   9  12
ATOM     12  O   UNL     1       7.030  -0.235  -7.876  0.00  0.00    -0.495 OA
ATOM     13  C   UNL     1       8.164  -0.612  -7.092  0.00  0.00    +0.277 C 
ENDBRANCH   9  12
ENDBRANCH   4   6
BRANCH   2  14
ATOM     14  S   UNL     1      -1.710   0.744  -5.083  0.00  0.00    +0.047 S 
ATOM     15  O   UNL     1      -1.982   0.513  -6.459  0.00  0.00    -0.163 OA
ATOM     16  O   UNL     1      -2.417   0.079  -4.045  0.00  0.00    -0.163 OA
BRANCH  14  17
ATOM     17  C   UNL     1      -1.924   2.472  -4.811  0.00  0.00    +0.095 A 
ATOM     18  C   UNL     1      -2.211   2.941  -3.543  0.00  0.00    +0.028 A 
ATOM     19  C   UNL     1      -2.379   4.296  -3.329  0.00  0.00    +0.005 A 
ATOM     20  C   UNL     1      -2.259   5.182  -4.383  0.00  0.00    -0.050 A 
ATOM     21  C   UNL     1      -1.971   4.713  -5.651  0.00  0.00    +0.005 A 
ATOM     22  C   UNL     1      -1.799   3.358  -5.864  0.00  0.00    +0.028 A 
ATOM     23  C   UNL     1      -2.443   6.660  -4.151  0.00  0.00    +0.044 C 
ENDBRANCH  14  17
ENDBRANCH   2  14
BRANCH   1  24
ATOM     24  N   UNL     1      -0.055  -0.114  -2.441  0.00  0.00    -0.310 N 
ATOM     25  H   UNL     1      -1.010   0.038  -2.368  0.00  0.00    +0.149 HD
BRANCH  24  26
ATOM     26  C   UNL     1       0.718  -0.497  -1.257  0.00  0.00    +0.070 C 
ATOM     27  C   UNL     1       0.849  -2.021  -1.205  0.00  0.00    +0.028 C 
BRANCH  26  29
ATOM     28  C   UNL     1      -0.019   1.526   0.010  0.00  0.00    +0.005 C 
ATOM     29  C   UNL     1       0.002  -0.004   0.002  0.00  0.00    +0.018 C 
ENDBRANCH  26  29
ENDBRANCH  24  26
ENDBRANCH   1  24
TORSDOF 7
