REMARK  Name = ZINC20430504
REMARK  6 active torsions:
REMARK  status: ('A' for Active; 'I' for Inactive)
REMARK    1  A    between atoms: C_1  and  C_2
REMARK    2  A    between atoms: C_2  and  C_4
REMARK    3  A    between atoms: C_2  and  N_12
REMARK    4  A    between atoms: C_7  and  O_11
REMARK    5  A    between atoms: C_9  and  O_10
REMARK    6  A    between atoms: N_12  and  C_13
REMARK                            x       y       z     vdW  Elec       q    Type
REMARK                         _______ _______ _______ _____ _____    ______ ____
ROOT
ATOM      1  C   UNL     1       3.067   4.093   1.393  0.00  0.00    +0.033 C 
ATOM      2  C   UNL     1       2.450   3.947   0.000  0.00  0.00    +0.101 C 
ENDROOT
BRANCH   2   3
ATOM      3  C   UNL     1       1.138   3.213   0.106  0.00  0.00    +0.014 A 
ATOM      4  C   UNL     1      -0.041   3.922   0.242  0.00  0.00    +0.012 A 
ATOM      5  C   UNL     1      -1.245   3.252   0.340  0.00  0.00    +0.046 A 
ATOM      6  C   UNL     1      -1.274   1.865   0.296  0.00  0.00    +0.120 A 
ATOM      7  C   UNL     1      -0.093   1.152   0.166  0.00  0.00    +0.091 A 
ATOM      8  C   UNL     1       1.114   1.826   0.068  0.00  0.00    +0.125 A 
BRANCH   8   9
ATOM      9  O   UNL     1       2.274   1.130  -0.065  0.00  0.00    -0.506 OA
ATOM     10  H   UNL     1       2.254   0.030  -0.095  0.00  0.00    +0.292 HD
ENDBRANCH   8   9
BRANCH   6  11
ATOM     11  O   UNL     1      -2.460   1.207   0.386  0.00  0.00    -0.507 OA
ATOM     12  H   UNL     1      -2.483   0.108   0.352  0.00  0.00    +0.292 HD
ENDBRANCH   6  11
ENDBRANCH   2   3
BRANCH   2  13
ATOM     13  N   UNL     1       2.222   5.275  -0.574  0.00  0.00    -0.336 N 
ATOM     14  H   UNL     1       1.240   5.760  -0.466  0.00  0.00    +0.147 HD
BRANCH  13  15
ATOM     15  C   UNL     1       3.252   5.927  -1.260  0.00  0.00    +0.042 A 
ATOM     16  C   UNL     1       4.493   5.319  -1.392  0.00  0.00    +0.027 A 
ATOM     17  C   UNL     1       5.508   5.962  -2.074  0.00  0.00    +0.040 A 
ATOM     18  C   UNL     1       5.291   7.217  -2.617  0.00  0.00    +0.125 A 
ATOM     19  C   UNL     1       4.056   7.828  -2.482  0.00  0.00    +0.055 A 
ATOM     20  C   UNL     1       3.037   7.186  -1.805  0.00  0.00    +0.041 A 
ATOM     21 BR   UNL     1       1.350   8.022  -1.621  0.00  0.00    -0.048 Br
ATOM     22  F   UNL     1       6.287   7.846  -3.280  0.00  0.00    -0.205 F 
ENDBRANCH  13  15
ENDBRANCH   2  13
TORSDOF 5
