REMARK  Name = ZINC34761631
REMARK  11 active torsions:
REMARK  status: ('A' for Active; 'I' for Inactive)
REMARK    1  A    between atoms: C_1  and  C_2
REMARK    2  A    between atoms: C_2  and  C_3
REMARK    3  A    between atoms: C_4  and  C_37
REMARK    4  A    between atoms: C_8  and  N_20
REMARK    5  A    between atoms: C_10  and  S_12
REMARK    6  A    between atoms: S_12  and  C_13
REMARK    7  A    between atoms: C_13  and  C_14
REMARK    8  A    between atoms: N_23  and  C_26
REMARK    9  A    between atoms: C_26  and  C_27
REMARK   10  A    between atoms: N_29  and  C_30
REMARK   11  A    between atoms: C_30  and  C_31
REMARK                            x       y       z     vdW  Elec       q    Type
REMARK                         _______ _______ _______ _____ _____    ______ ____
ROOT
ATOM      1  C   UNL     1      -0.717   1.873   3.632  0.00  0.00    -0.025 A 
ATOM      2  C   UNL     1      -0.071   2.638   4.524  0.00  0.00    -0.007 A 
ATOM      3  S   UNL     1       0.860   1.461   5.486  0.00  0.00    -0.073 S 
ATOM      4  C   UNL     1       0.356  -0.028   4.665  0.00  0.00    +0.115 A 
ATOM      5  C   UNL     1      -0.529   0.432   3.665  0.00  0.00    +0.051 A 
ATOM      6  C   UNL     1      -1.099  -0.577   2.840  0.00  0.00    +0.134 A 
ATOM      7  N   UNL     1      -0.781  -1.843   3.053  0.00  0.00    -0.206 NA
ATOM      8  C   UNL     1       0.057  -2.208   4.016  0.00  0.00    +0.191 A 
ATOM      9  N   UNL     1       0.626  -1.310   4.809  0.00  0.00    -0.215 NA
ATOM     10  C   UNL     1      -0.120   4.137   4.676  0.00  0.00    +0.052 C 
ENDROOT
BRANCH   6  11
ATOM     11  N   UNL     1      -1.977  -0.237   1.827  0.00  0.00    -0.318 N 
ATOM     12  C   UNL     1      -1.495  -0.003   0.457  0.00  0.00    +0.088 C 
ATOM     13  C   UNL     1      -2.349  -0.834  -0.507  0.00  0.00    -0.059 C 
ATOM     14  N   UNL     1      -3.768  -0.517  -0.300  0.00  0.00    +0.387 N 
ATOM     15  C   UNL     1      -4.181  -0.927   1.048  0.00  0.00    -0.059 C 
ATOM     16  C   UNL     1      -3.419  -0.106   2.087  0.00  0.00    +0.088 C 
ATOM     17  H   UNL     1      -3.908   0.477  -0.406  0.00  0.00    -0.081 HD
BRANCH  14  18
ATOM     18  C   UNL     1      -4.577  -1.231  -1.297  0.00  0.00    +0.019 C 
BRANCH  18  19
ATOM     19  C   UNL     1      -6.019  -0.813  -1.166  0.00  0.00    +0.197 C 
ATOM     20  O   UNL     1      -6.341   0.000  -0.325  0.00  0.00    -0.278 OA
ATOM     21  N   UNL     1      -6.951  -1.342  -1.983  0.00  0.00    -0.313 N 
ATOM     22  H   UNL     1      -6.694  -1.992  -2.656  0.00  0.00    +0.149 HD
BRANCH  21  23
ATOM     23  C   UNL     1      -8.353  -0.935  -1.855  0.00  0.00    +0.139 C 
BRANCH  23  24
ATOM     24  C   UNL     1      -9.183  -1.667  -2.878  0.00  0.00    -0.030 A 
ATOM     25  C   UNL     1      -9.374  -1.121  -4.133  0.00  0.00    +0.005 A 
ATOM     26  C   UNL     1     -10.136  -1.792  -5.071  0.00  0.00    +0.000 A 
ATOM     27  C   UNL     1     -10.706  -3.011  -4.754  0.00  0.00    +0.000 A 
ATOM     28  C   UNL     1     -10.515  -3.558  -3.499  0.00  0.00    +0.000 A 
ATOM     29  C   UNL     1      -9.749  -2.888  -2.562  0.00  0.00    +0.005 A 
ENDBRANCH  23  24
ENDBRANCH  21  23
ENDBRANCH  18  19
ENDBRANCH  14  18
ENDBRANCH   6  11
BRANCH   1  31
ATOM     30  C   UNL     1      -3.013   2.719   3.233  0.00  0.00    +0.009 C 
ATOM     31  C   UNL     1      -1.632   2.499   2.612  0.00  0.00    +0.033 C 
ENDBRANCH   1  31
BRANCH   8  32
ATOM     32  S   UNL     1       0.429  -3.916   4.235  0.00  0.00    -0.081 S 
BRANCH  32  33
ATOM     33  C   UNL     1       1.587  -3.936   5.631  0.00  0.00    +0.112 C 
BRANCH  33  34
ATOM     34  C   UNL     1       1.992  -5.357   5.928  0.00  0.00    -0.037 A 
ATOM     35  C   UNL     1       1.255  -6.114   6.820  0.00  0.00    +0.004 A 
ATOM     36  C   UNL     1       1.626  -7.417   7.092  0.00  0.00    +0.000 A 
ATOM     37  C   UNL     1       2.734  -7.965   6.472  0.00  0.00    +0.000 A 
ATOM     38  C   UNL     1       3.470  -7.208   5.579  0.00  0.00    +0.000 A 
ATOM     39  C   UNL     1       3.096  -5.906   5.303  0.00  0.00    +0.004 A 
ENDBRANCH  33  34
ENDBRANCH  32  33
ENDBRANCH   8  32
TORSDOF 9
