REMARK  Name = ZINC38580966
REMARK  5 active torsions:
REMARK  status: ('A' for Active; 'I' for Inactive)
REMARK    1  A    between atoms: N_10  and  C1*_11
REMARK    2  A    between atoms: C2*_13  and  O2*_23
REMARK    3  A    between atoms: C3*_15  and  O3*_22
REMARK    4  A    between atoms: C4*_17  and  C5*_20
REMARK    5  A    between atoms: C5*_20  and  O5*_21
REMARK                            x       y       z     vdW  Elec       q    Type
REMARK                         _______ _______ _______ _____ _____    ______ ____
ROOT
ATOM      1  C1* UNL     1      -1.167  -0.887   0.009  0.00  0.00    +0.253 C 
ATOM      2  C2* UNL     1      -1.530  -1.288   1.456  0.00  0.00    +0.195 C 
ATOM      3  C3* UNL     1      -3.075  -1.316   1.462  0.00  0.00    +0.178 C 
ATOM      4  C4* UNL     1      -3.462  -0.929   0.017  0.00  0.00    +0.177 C 
ATOM      5  O4* UNL     1      -2.329  -0.186  -0.485  0.00  0.00    -0.346 OA
ENDROOT
BRANCH   1  15
ATOM      6  C   UNL     1      -0.016   1.359   0.009  0.00  0.00    +0.203 A 
ATOM      7  N   UNL     1       1.200   1.821   0.000  0.00  0.00    -0.229 NA
ATOM      8  C   UNL     1       2.075   0.786  -0.013  0.00  0.00    +0.174 A 
ATOM      9  C   UNL     1       3.474   0.676  -0.028  0.00  0.00    +0.302 A 
ATOM     10  O   UNL     1       4.255   1.783  -0.029  0.00  0.00    -0.263 OA
ATOM     11  N   UNL     1       4.015  -0.535  -0.039  0.00  0.00    -0.177 NA
ATOM     12  C   UNL     1       3.261  -1.622  -0.038  0.00  0.00    +0.228 A 
ATOM     13  N   UNL     1       1.945  -1.568  -0.025  0.00  0.00    -0.197 NA
ATOM     14  C   UNL     1       1.316  -0.398  -0.013  0.00  0.00    +0.171 A 
ATOM     15  N   UNL     1       0.002  -0.004   0.002  0.00  0.00    -0.285 N 
ATOM     16 CL   UNL     1       4.035  -3.176  -0.054  0.00  0.00    -0.041 Cl
ENDBRANCH   1  15
BRANCH   3  17
ATOM     17  O3* UNL     1      -3.550  -2.626   1.777  0.00  0.00    -0.386 OA
ATOM     18  H3* UNL     1      -4.514  -2.701   1.794  0.00  0.00    +0.210 HD
ENDBRANCH   3  17
BRANCH   2  19
ATOM     19  O2* UNL     1      -1.001  -2.579   1.765  0.00  0.00    -0.385 OA
ATOM     20  H2* UNL     1      -1.200  -2.880   2.662  0.00  0.00    +0.210 HD
ENDBRANCH   2  19
BRANCH   4  21
ATOM     21  C5* UNL     1      -4.718  -0.055   0.019  0.00  0.00    +0.190 C 
BRANCH  21  22
ATOM     22  O5* UNL     1      -5.127   0.195  -1.327  0.00  0.00    -0.392 OA
ATOM     23  H5* UNL     1      -5.919   0.745  -1.402  0.00  0.00    +0.210 HD
ENDBRANCH  21  22
ENDBRANCH   4  21
TORSDOF 5
