REMARK  Name = ZINC15707616
REMARK  7 active torsions:
REMARK  status: ('A' for Active; 'I' for Inactive)
REMARK    1  A    between atoms: C_4  and  N_7
REMARK    2  A    between atoms: N_7  and  C_8
REMARK    3  A    between atoms: C_8  and  N_10
REMARK    4  A    between atoms: N_10  and  C_11
REMARK    5  A    between atoms: C_20  and  C_23
REMARK    6  A    between atoms: C_23  and  C_24
REMARK    7  A    between atoms: C_24  and  C_25
REMARK                            x       y       z     vdW  Elec       q    Type
REMARK                         _______ _______ _______ _____ _____    ______ ____
ROOT
ATOM      1  C   UNL     1       4.418  -0.344  -2.837  0.00  0.00    +0.054 C 
ATOM      2  C   UNL     1       5.488  -1.380  -2.400  0.00  0.00    +0.014 C 
ATOM      3  C   UNL     1       6.207  -0.697  -1.236  0.00  0.00    +0.021 C 
ATOM      4  C   UNL     1       7.665  -0.994  -1.110  0.00  0.00    +0.200 C 
ATOM      5  O   UNL     1       8.101  -2.080  -1.430  0.00  0.00    -0.278 OA
ATOM      6  N   UNL     1       8.489  -0.040  -0.636  0.00  0.00    -0.318 N 
ATOM      7  C   UNL     1       8.088   1.330  -0.343  0.00  0.00    +0.089 C 
ATOM      8  C   UNL     1       6.564   1.510  -0.397  0.00  0.00    -0.050 C 
ATOM      9  C   UNL     1       4.668   0.894  -1.931  0.00  0.00    -0.055 C 
ATOM     10  H   UNL     1       9.416  -0.282  -0.478  0.00  0.00    +0.149 HD
ATOM     11  N   UNL     1       6.095   0.691  -1.563  0.00  0.00    +0.391 N 
ATOM     12  H   UNL     1       6.685   0.914  -2.373  0.00  0.00    -0.080 HD
ENDROOT
BRANCH   1  13
ATOM     13  N   UNL     1       4.597   0.010  -4.248  0.00  0.00    -0.325 N 
ATOM     14  H   UNL     1       5.468  -0.083  -4.664  0.00  0.00    +0.148 HD
BRANCH  13  15
ATOM     15  C   UNL     1       3.551   0.464  -4.966  0.00  0.00    +0.135 C 
ATOM     16  S   UNL     1       2.013   0.627  -4.231  0.00  0.00    -0.019 S 
BRANCH  15  17
ATOM     17  N   UNL     1       3.715   0.789  -6.264  0.00  0.00    -0.297 N 
ATOM     18  H   UNL     1       4.563   0.619  -6.703  0.00  0.00    +0.154 HD
BRANCH  17  22
ATOM     19  C   UNL     1       0.581   2.525  -8.390  0.00  0.00    +0.000 A 
ATOM     20  C   UNL     1       0.834   2.919  -7.089  0.00  0.00    +0.002 A 
ATOM     21  C   UNL     1       1.873   2.346  -6.381  0.00  0.00    +0.023 A 
ATOM     22  C   UNL     1       2.663   1.372  -6.978  0.00  0.00    +0.033 A 
ATOM     23  C   UNL     1       2.409   0.982  -8.286  0.00  0.00    +0.023 A 
ATOM     24  C   UNL     1       1.366   1.555  -8.986  0.00  0.00    +0.002 A 
ENDBRANCH  17  22
ENDBRANCH  15  17
ENDBRANCH  13  15
ENDBRANCH   1  13
BRANCH   8  25
ATOM     25  C   UNL     1       6.222   2.992  -0.569  0.00  0.00    -0.005 C 
BRANCH  25  26
ATOM     26  C   UNL     1       6.658   3.764   0.677  0.00  0.00    +0.095 C 
BRANCH  26  27
ATOM     27  C   UNL     1       6.418   5.237   0.465  0.00  0.00    +0.220 C 
ATOM     28  O   UNL     1       5.945   5.630  -0.580  0.00  0.00    -0.275 OA
ATOM     29  N   UNL     1       6.729   6.117   1.437  0.00  0.00    -0.271 N 
ATOM     30  C   UNL     1       6.542   7.568   1.347  0.00  0.00    +0.118 C 
ATOM     31  C   UNL     1       7.041   8.123   2.692  0.00  0.00    +0.056 C 
ATOM     32  C   UNL     1       7.487   6.902   3.465  0.00  0.00    -0.024 A 
ATOM     33  C   UNL     1       7.277   5.781   2.678  0.00  0.00    +0.039 A 
ATOM     34  C   UNL     1       7.617   4.525   3.184  0.00  0.00    +0.024 A 
ATOM     35  C   UNL     1       8.153   4.406   4.449  0.00  0.00    +0.002 A 
ATOM     36  C   UNL     1       8.353   5.531   5.228  0.00  0.00    +0.000 A 
ATOM     37  C   UNL     1       8.025   6.779   4.731  0.00  0.00    +0.005 A 
ENDBRANCH  26  27
ENDBRANCH  25  26
ENDBRANCH   8  25
TORSDOF 7
