REMARK  Name = ZINC58899400
REMARK  6 active torsions:
REMARK  status: ('A' for Active; 'I' for Inactive)
REMARK    1  A    between atoms: C_3  and  C_20
REMARK    2  A    between atoms: C_6  and  C_7
REMARK    3  A    between atoms: C_7  and  N_8
REMARK    4  A    between atoms: C_9  and  C_11
REMARK    5  A    between atoms: C_14  and  C_17
REMARK    6  A    between atoms: C_17  and  N_19
REMARK                            x       y       z     vdW  Elec       q    Type
REMARK                         _______ _______ _______ _____ _____    ______ ____
ROOT
ATOM      1  N   UNL     1      -1.728  -1.014  -1.368  0.00  0.00    -0.307 N 
ATOM      2  C   UNL     1      -2.870  -1.688  -1.607  0.00  0.00    +0.244 C 
ATOM      3  O   UNL     1      -3.541  -2.095  -0.679  0.00  0.00    -0.270 OA
ATOM      4  H   UNL     1      -1.192  -0.688  -2.109  0.00  0.00    +0.149 HD
ENDROOT
BRANCH   2   5
ATOM      5  C   UNL     1      -3.308  -1.931  -2.999  0.00  0.00    +0.037 A 
ATOM      6  C   UNL     1      -2.534  -1.468  -4.065  0.00  0.00    +0.014 A 
ATOM      7  C   UNL     1      -2.942  -1.695  -5.362  0.00  0.00    +0.011 A 
ATOM      8  C   UNL     1      -4.128  -2.388  -5.609  0.00  0.00    +0.003 A 
ATOM      9  C   UNL     1      -4.902  -2.852  -4.543  0.00  0.00    +0.011 A 
ATOM     10  C   UNL     1      -4.491  -2.630  -3.247  0.00  0.00    +0.014 A 
BRANCH   8  11
ATOM     11  C   UNL     1      -4.566  -2.631  -7.000  0.00  0.00    +0.077 C 
ATOM     12  S   UNL     1      -3.405  -2.924  -8.223  0.00  0.00    -0.035 S 
BRANCH  11  13
ATOM     13  N   UNL     1      -5.879  -2.622  -7.304  0.00  0.00    -0.352 N 
ATOM     14  H   UNL     1      -6.536  -2.456  -6.611  0.00  0.00    +0.143 HD
ATOM     15  H   UNL     1      -6.166  -2.781  -8.217  0.00  0.00    +0.143 HD
ENDBRANCH  11  13
ENDBRANCH   8  11
ENDBRANCH   2   5
BRANCH   1  16
ATOM     16  C   UNL     1      -1.294  -0.772   0.010  0.00  0.00    +0.139 C 
BRANCH  16  22
ATOM     17  C   UNL     1      -0.017   1.379   0.010  0.00  0.00    +0.006 A 
ATOM     18  C   UNL     1       1.167   2.088   0.002  0.00  0.00    +0.010 A 
ATOM     19  C   UNL     1       2.384   1.407  -0.013  0.00  0.00    -0.000 A 
ATOM     20  C   UNL     1       2.397   0.012  -0.021  0.00  0.00    +0.010 A 
ATOM     21  C   UNL     1       1.206  -0.685  -0.013  0.00  0.00    +0.006 A 
ATOM     22  C   UNL     1       0.002  -0.004   0.002  0.00  0.00    -0.030 A 
BRANCH  19  23
ATOM     23  C   UNL     1       3.658   2.161  -0.022  0.00  0.00    +0.066 A 
ATOM     24  C   UNL     1       4.915   1.627  -0.042  0.00  0.00    +0.049 A 
ATOM     25  C   UNL     1       5.828   2.682  -0.043  0.00  0.00    +0.135 A 
ATOM     26  N   UNL     1       5.163   3.809  -0.025  0.00  0.00    -0.182 NA
ATOM     27  N   UNL     1       3.793   3.518  -0.017  0.00  0.00    -0.277 N 
ATOM     28  H   UNL     1       3.070   4.165  -0.007  0.00  0.00    +0.189 HD
ENDBRANCH  19  23
ENDBRANCH  16  22
ENDBRANCH   1  16
TORSDOF 6
