REMARK  Name = ZINC00111933
REMARK  6 active torsions:
REMARK  status: ('A' for Active; 'I' for Inactive)
REMARK    1  A    between atoms: C_1  and  O_2
REMARK    2  A    between atoms: O_2  and  C_3
REMARK    3  A    between atoms: C_6  and  C_9
REMARK    4  A    between atoms: N_18  and  C_19
REMARK    5  A    between atoms: C_22  and  O_25
REMARK    6  A    between atoms: O_25  and  C_26
REMARK                            x       y       z     vdW  Elec       q    Type
REMARK                         _______ _______ _______ _____ _____    ______ ____
ROOT
ATOM      1  C   UNL     1       6.272   3.560  -0.036  0.00  0.00    +0.126 C 
ATOM      2  C   UNL     1       6.735   5.007  -0.033  0.00  0.00    +0.070 C 
ATOM      3  C   UNL     1       7.500   5.473  -1.278  0.00  0.00    +0.018 C 
ATOM      4  C   UNL     1       8.359   6.659  -0.767  0.00  0.00    +0.001 C 
ATOM      5  C   UNL     1       8.775   6.197   0.653  0.00  0.00    +0.001 C 
ATOM      6  C   UNL     1       7.528   5.462   1.194  0.00  0.00    +0.018 C 
ATOM      7  C   UNL     1       5.266   5.292  -0.024  0.00  0.00    +0.229 C 
ATOM      8  O   UNL     1       4.641   6.331  -0.020  0.00  0.00    -0.275 OA
ATOM      9  N   UNL     1       4.875   4.002  -0.021  0.00  0.00    -0.262 N 
ENDROOT
BRANCH   1  13
ATOM     10  C   UNL     1       7.330   1.468  -3.610  0.00  0.00    +0.120 A 
ATOM     11  C   UNL     1       8.092   1.311  -2.461  0.00  0.00    +0.046 A 
ATOM     12  C   UNL     1       7.748   1.988  -1.307  0.00  0.00    +0.009 A 
ATOM     13  C   UNL     1       6.645   2.822  -1.296  0.00  0.00    -0.025 A 
ATOM     14  C   UNL     1       5.881   2.977  -2.438  0.00  0.00    +0.009 A 
ATOM     15  C   UNL     1       6.225   2.306  -3.596  0.00  0.00    +0.046 A 
BRANCH  10  17
ATOM     16  C   UNL     1       6.837   1.013  -5.890  0.00  0.00    +0.277 C 
ATOM     17  O   UNL     1       7.667   0.803  -4.746  0.00  0.00    -0.495 OA
ENDBRANCH  10  17
ENDBRANCH   1  13
BRANCH   9  18
ATOM     18  C   UNL     1       3.635   3.349  -0.013  0.00  0.00    +0.037 A 
ATOM     19  C   UNL     1       2.461   4.089   0.001  0.00  0.00    +0.027 A 
ATOM     20  C   UNL     1       1.239   3.445   0.009  0.00  0.00    +0.047 A 
ATOM     21  C   UNL     1       1.186   2.058   0.002  0.00  0.00    +0.120 A 
ATOM     22  C   UNL     1       2.359   1.319  -0.008  0.00  0.00    +0.047 A 
ATOM     23  C   UNL     1       3.581   1.962  -0.021  0.00  0.00    +0.027 A 
BRANCH  21  24
ATOM     24  O   UNL     1      -0.017   1.425   0.010  0.00  0.00    -0.495 OA
ATOM     25  C   UNL     1       0.002  -0.004   0.002  0.00  0.00    +0.277 C 
ENDBRANCH  21  24
ENDBRANCH   9  18
TORSDOF 4
