REMARK  Name = ZINC09422797
REMARK  16 active torsions:
REMARK  status: ('A' for Active; 'I' for Inactive)
REMARK    1  A    between atoms: C_1  and  C_2
REMARK    2  A    between atoms: C_2  and  N_3
REMARK    3  A    between atoms: C_5  and  C_14
REMARK    4  A    between atoms: C_10  and  O_12
REMARK    5  A    between atoms: O_12  and  C_13
REMARK    6  A    between atoms: C_21  and  O_34
REMARK    7  A    between atoms: C_22  and  C_25
REMARK    8  A    between atoms: C_25  and  N_71
REMARK    9  A    between atoms: C_26  and  C_27
REMARK   10  A    between atoms: C_26  and  N_71
REMARK   11  A    between atoms: C_27  and  C_28
REMARK   12  A    between atoms: C_27  and  C_29
REMARK   13  A    between atoms: C_30  and  C_31
REMARK   14  A    between atoms: C_30  and  N_71
REMARK   15  A    between atoms: C_31  and  C_32
REMARK   16  A    between atoms: C_31  and  C_33
REMARK                            x       y       z     vdW  Elec       q    Type
REMARK                         _______ _______ _______ _____ _____    ______ ____
ROOT
ATOM      1  C   UNL     1       0.363  -2.577   5.640  0.00  0.00    +0.060 C 
ATOM      2  C   UNL     1       0.487  -1.248   5.367  0.00  0.00    +0.176 C 
ATOM      3  C   UNL     1       0.427  -0.196   6.319  0.00  0.00    +0.231 C 
ATOM      4  O   UNL     1       0.257  -0.295   7.524  0.00  0.00    -0.283 OA
ATOM      5  C   UNL     1       0.613   1.041   5.541  0.00  0.00    +0.068 A 
ATOM      6  C   UNL     1       0.656   2.393   5.881  0.00  0.00    +0.019 A 
ATOM      7  C   UNL     1       0.849   3.333   4.909  0.00  0.00    +0.046 A 
ATOM      8  C   UNL     1       1.010   2.946   3.581  0.00  0.00    +0.122 A 
ATOM      9  C   UNL     1       0.964   1.607   3.228  0.00  0.00    +0.020 A 
ATOM     10  C   UNL     1       0.768   0.640   4.204  0.00  0.00    +0.144 A 
ATOM     11  O   UNL     1       0.688  -0.707   4.142  0.00  0.00    -0.451 OA
ENDROOT
BRANCH   1  14
ATOM     12  N   UNL     1       0.772  -3.242   9.205  0.00  0.00    -0.346 N 
ATOM     13  C   UNL     1       1.092  -2.568   8.073  0.00  0.00    +0.094 A 
ATOM     14  C   UNL     1       0.328  -3.038   7.026  0.00  0.00    +0.004 A 
ATOM     15  C   UNL     1      -0.527  -4.104   7.584  0.00  0.00    +0.011 A 
ATOM     16  C   UNL     1      -0.205  -4.185   8.948  0.00  0.00    +0.050 A 
ATOM     17  C   UNL     1      -0.858  -5.115   9.750  0.00  0.00    +0.030 A 
ATOM     18  C   UNL     1      -1.811  -5.947   9.205  0.00  0.00    +0.047 A 
ATOM     19  C   UNL     1      -2.131  -5.867   7.853  0.00  0.00    +0.121 A 
ATOM     20  C   UNL     1      -1.491  -4.948   7.041  0.00  0.00    +0.056 A 
BRANCH  12  22
ATOM     21  C   UNL     1       2.536  -3.986  10.726  0.00  0.00    +0.027 C 
ATOM     22  C   UNL     1       1.380  -3.006  10.517  0.00  0.00    +0.118 C 
ENDBRANCH  12  22
BRANCH  19  23
ATOM     23  O   UNL     1      -3.074  -6.694   7.329  0.00  0.00    -0.495 OA
ATOM     24  C   UNL     1      -3.695  -7.619   8.224  0.00  0.00    +0.277 C 
ENDBRANCH  19  23
ENDBRANCH   1  14
BRANCH   8  25
ATOM     25  O   UNL     1       1.207   3.888   2.624  0.00  0.00    -0.506 OA
ATOM     26  H   UNL     1       0.391   4.279   2.283  0.00  0.00    +0.292 HD
ENDBRANCH   8  25
BRANCH   9  27
ATOM     27  C   UNL     1       1.134   1.201   1.786  0.00  0.00    -0.036 C 
BRANCH  27  28
ATOM     28  N   UNL     1      -0.154   0.673   1.288  0.00  0.00    +0.383 N 
ATOM     29  H   UNL     1      -0.550   0.040   1.993  0.00  0.00    -0.081 HD
BRANCH  28  30
ATOM     30  C   UNL     1       0.061  -0.080   0.034  0.00  0.00    -0.075 C 
BRANCH  30  31
ATOM     31  C   UNL     1       0.631  -1.457   0.380  0.00  0.00    -0.034 C 
ATOM     32  C   UNL     1      -0.412  -2.260   1.159  0.00  0.00    +0.005 C 
ATOM     33  C   UNL     1       0.989  -2.199  -0.909  0.00  0.00    +0.005 C 
ENDBRANCH  30  31
ENDBRANCH  28  30
BRANCH  28  34
ATOM     34  C   UNL     1      -1.099   1.784   1.054  0.00  0.00    -0.075 C 
BRANCH  34  35
ATOM     35  C   UNL     1      -1.855   2.062   2.355  0.00  0.00    -0.034 C 
ATOM     36  C   UNL     1      -2.740   3.298   2.177  0.00  0.00    +0.005 C 
ATOM     37  C   UNL     1      -2.729   0.856   2.705  0.00  0.00    +0.005 C 
ENDBRANCH  34  35
ENDBRANCH  28  34
ENDBRANCH  27  28
ENDBRANCH   9  27
TORSDOF 10
