REMARK  Name = ZINC38051301
REMARK  3 active torsions:
REMARK  status: ('A' for Active; 'I' for Inactive)
REMARK    1  A    between atoms: C_1  and  S_2
REMARK    2  A    between atoms: S_2  and  N_5
REMARK    3  A    between atoms: C_12  and  N_15
REMARK                            x       y       z     vdW  Elec       q    Type
REMARK                         _______ _______ _______ _____ _____    ______ ____
ROOT
ATOM      1  N   UNL     1       0.975  -0.409  -1.275  0.00  0.00    -0.206 N 
ATOM      2  C   UNL     1       0.363  -0.584  -2.588  0.00  0.00    +0.142 C 
ATOM      3  C   UNL     1       0.746  -1.968  -3.132  0.00  0.00    +0.095 C 
ATOM      4  S   UNL     1       2.544  -1.974  -3.402  0.00  0.00    -0.122 S 
ATOM      5  C   UNL     1       3.178  -1.258  -1.918  0.00  0.00    +0.031 A 
ATOM      6  C   UNL     1       2.343  -0.563  -1.046  0.00  0.00    +0.066 A 
ATOM      7  C   UNL     1       2.880   0.000   0.108  0.00  0.00    +0.048 A 
ATOM      8  C   UNL     1       4.231  -0.129   0.389  0.00  0.00    +0.026 A 
ATOM      9  C   UNL     1       5.059  -0.823  -0.483  0.00  0.00    +0.024 A 
ATOM     10  C   UNL     1       4.530  -1.392  -1.631  0.00  0.00    +0.018 A 
ENDROOT
BRANCH   1  12
ATOM     11  C   UNL     1      -0.022   1.810   0.012  0.00  0.00    +0.218 C 
ATOM     12  S   UNL     1       0.002  -0.004   0.002  0.00  0.00    +0.043 S 
ATOM     13  O   UNL     1       0.687  -0.491   1.148  0.00  0.00    -0.155 OA
ATOM     14  O   UNL     1      -1.280  -0.509  -0.345  0.00  0.00    -0.155 OA
ENDBRANCH   1  12
BRANCH   8  15
ATOM     15  N   UNL     1       4.762   0.441   1.552  0.00  0.00    -0.358 N 
ATOM     16  H   UNL     1       4.184   0.926   2.162  0.00  0.00    +0.142 HD
ATOM     17  H   UNL     1       5.708   0.351   1.749  0.00  0.00    +0.142 HD
ENDBRANCH   8  15
TORSDOF 2
