REMARK  Name = ZINC01331354
REMARK  9 active torsions:
REMARK  status: ('A' for Active; 'I' for Inactive)
REMARK    1  A    between atoms: C_1  and  O_2
REMARK    2  A    between atoms: O_2  and  C_3
REMARK    3  A    between atoms: C_6  and  O_39
REMARK    4  A    between atoms: C_7  and  C_9
REMARK    5  A    between atoms: C_9  and  C_11
REMARK    6  A    between atoms: C_9  and  N_24
REMARK    7  A    between atoms: N_15  and  C_16
REMARK    8  A    between atoms: C_16  and  C_17
REMARK    9  A    between atoms: O_39  and  C_40
REMARK                            x       y       z     vdW  Elec       q    Type
REMARK                         _______ _______ _______ _____ _____    ______ ____
ROOT
ATOM      1  C   UNL     1      -2.535  -4.173   0.016  0.00  0.00    +0.161 C 
ENDROOT
BRANCH   1   2
ATOM      2  N   UNL     1      -1.258  -4.713  -0.468  0.00  0.00    -0.286 NA
ATOM      3  C   UNL     1      -0.926  -4.171  -1.793  0.00  0.00    +0.104 C 
ATOM      4  C   UNL     1       0.490  -4.612  -2.181  0.00  0.00    +0.122 C 
ATOM      5  N   UNL     1       0.570  -6.076  -2.071  0.00  0.00    -0.307 N 
ATOM      6  C   UNL     1       0.123  -6.705  -0.818  0.00  0.00    +0.122 C 
ATOM      7  C   UNL     1      -1.278  -6.181  -0.483  0.00  0.00    +0.104 C 
ATOM      8  C   UNL     1       1.050  -6.840  -3.115  0.00  0.00    +0.162 A 
ATOM      9  N   UNL     1       1.491  -6.447  -4.288  0.00  0.00    -0.225 NA
ATOM     10  C   UNL     1       1.937  -7.315  -5.223  0.00  0.00    +0.080 A 
ATOM     11  C   UNL     1       2.433  -7.027  -6.515  0.00  0.00    +0.029 A 
ATOM     12  C   UNL     1       2.848  -8.035  -7.347  0.00  0.00    +0.002 A 
ATOM     13  C   UNL     1       2.797  -9.365  -6.955  0.00  0.00    +0.001 A 
ATOM     14  C   UNL     1       2.317  -9.683  -5.698  0.00  0.00    +0.017 A 
ATOM     15  C   UNL     1       1.899  -8.680  -4.859  0.00  0.00    +0.041 A 
ATOM     16  S   UNL     1       1.239  -8.615  -3.211  0.00  0.00    -0.052 S 
ENDBRANCH   1   2
BRANCH   1  21
ATOM     17  C   UNL     1      -1.201  -0.638   0.010  0.00  0.00    +0.121 A 
ATOM     18  C   UNL     1      -2.374   0.102   0.020  0.00  0.00    +0.049 A 
ATOM     19  C   UNL     1      -3.596  -0.542   0.028  0.00  0.00    +0.049 A 
ATOM     20  C   UNL     1      -3.650  -1.928   0.027  0.00  0.00    +0.125 A 
ATOM     21  C   UNL     1      -2.477  -2.667   0.017  0.00  0.00    +0.022 A 
ATOM     22  C   UNL     1      -1.255  -2.023   0.003  0.00  0.00    +0.054 A 
BRANCH  17  24
ATOM     23  C   UNL     1      -0.017   1.425   0.010  0.00  0.00    +0.277 C 
ATOM     24  O   UNL     1       0.002  -0.004   0.002  0.00  0.00    -0.495 OA
ENDBRANCH  17  24
BRANCH  20  25
ATOM     25  O   UNL     1      -4.853  -2.562   0.036  0.00  0.00    -0.495 OA
ATOM     26  C   UNL     1      -6.021  -1.738   0.046  0.00  0.00    +0.277 C 
ENDBRANCH  20  25
ENDBRANCH   1  21
BRANCH   1  27
ATOM     27  C   UNL     1      -2.791  -4.667   1.417  0.00  0.00    +0.173 A 
ATOM     28  N   UNL     1      -1.929  -4.701   2.404  0.00  0.00    -0.111 NA
ATOM     29  N   UNL     1      -2.526  -5.188   3.436  0.00  0.00    -0.023 NA
ATOM     30  N   UNL     1      -3.746  -5.466   3.134  0.00  0.00    -0.044 NA
ATOM     31  N   UNL     1      -3.949  -5.155   1.898  0.00  0.00    -0.223 N 
BRANCH  31  32
ATOM     32  C   UNL     1      -5.204  -5.306   1.158  0.00  0.00    +0.182 C 
BRANCH  32  33
ATOM     33  C   UNL     1      -5.246  -6.667   0.513  0.00  0.00    -0.026 A 
ATOM     34  C   UNL     1      -4.737  -6.845  -0.759  0.00  0.00    +0.008 A 
ATOM     35  C   UNL     1      -4.774  -8.093  -1.351  0.00  0.00    +0.038 A 
ATOM     36  C   UNL     1      -5.323  -9.166  -0.669  0.00  0.00    +0.123 A 
ATOM     37  C   UNL     1      -5.833  -8.987   0.605  0.00  0.00    +0.038 A 
ATOM     38  C   UNL     1      -5.789  -7.739   1.197  0.00  0.00    +0.008 A 
ATOM     39  F   UNL     1      -5.360 -10.387  -1.247  0.00  0.00    -0.205 F 
ENDBRANCH  32  33
ENDBRANCH  31  32
ENDBRANCH   1  27
TORSDOF 7
