REMARK  Name = ZINC02804748
REMARK  8 active torsions:
REMARK  status: ('A' for Active; 'I' for Inactive)
REMARK    1  A    between atoms: C_1  and  C_2
REMARK    2  A    between atoms: C_2  and  C_3
REMARK    3  A    between atoms: C_2  and  C_4
REMARK    4  A    between atoms: C_7  and  C_10
REMARK    5  A    between atoms: C_12  and  C_32
REMARK    6  A    between atoms: C_17  and  C_19
REMARK    7  A    between atoms: C_26  and  C_27
REMARK    8  A    between atoms: C_26  and  N_62
REMARK                            x       y       z     vdW  Elec       q    Type
REMARK                         _______ _______ _______ _____ _____    ______ ____
ROOT
ATOM      1  C   UNL     1      -0.007  -0.008  -0.073  0.00  0.00    +0.075 A 
ATOM      2  C   UNL     1      -1.220  -0.733  -0.114  0.00  0.00    +0.060 A 
ATOM      3  C   UNL     1      -1.185  -2.083  -0.133  0.00  0.00    +0.149 A 
ATOM      4  N   UNL     1       0.025  -2.721  -0.100  0.00  0.00    -0.209 N 
ATOM      5  C   UNL     1       1.185  -1.988  -0.055  0.00  0.00    +0.157 A 
ATOM      6  N   UNL     1       1.146  -0.650  -0.042  0.00  0.00    -0.228 NA
ATOM      7  C   UNL     1       2.239  -2.891  -0.030  0.00  0.00    +0.083 A 
ATOM      8  C   UNL     1       1.693  -4.178  -0.061  0.00  0.00    +0.150 A 
ATOM      9  N   UNL     1       0.373  -4.077  -0.103  0.00  0.00    -0.160 NA
ENDROOT
BRANCH   8  10
ATOM     10  C   UNL     1       2.461  -5.442  -0.049  0.00  0.00    +0.267 C 
ATOM     11  O   UNL     1       3.674  -5.416  -0.132  0.00  0.00    -0.268 OA
ATOM     12  N   UNL     1       1.817  -6.621   0.053  0.00  0.00    -0.300 N 
ATOM     13  C   UNL     1       2.565  -7.884   0.145  0.00  0.00    +0.089 C 
ATOM     14  C   UNL     1       2.038  -8.670   1.356  0.00  0.00    -0.059 C 
ATOM     15  C   UNL     1      -0.093  -7.514   1.277  0.00  0.00    -0.059 C 
ATOM     16  C   UNL     1       0.348  -6.680   0.069  0.00  0.00    +0.089 C 
ATOM     17  N   UNL     1       0.575  -8.832   1.213  0.00  0.00    +0.386 N 
ATOM     18  H   UNL     1       0.375  -9.262   0.302  0.00  0.00    -0.081 HD
BRANCH  17  19
ATOM     19  C   UNL     1       0.058  -9.711   2.282  0.00  0.00    -0.003 C 
BRANCH  19  20
ATOM     20  C   UNL     1       0.928 -10.938   2.376  0.00  0.00    +0.089 A 
ATOM     21  C   UNL     1       2.007 -11.078   3.167  0.00  0.00    +0.042 A 
ATOM     22  C   UNL     1       2.517 -12.377   2.938  0.00  0.00    +0.041 A 
ATOM     23  C   UNL     1       1.719 -12.953   2.021  0.00  0.00    +0.195 A 
ATOM     24  O   UNL     1       0.755 -12.079   1.689  0.00  0.00    -0.470 OA
ENDBRANCH  19  20
ENDBRANCH  17  19
ENDBRANCH   8  10
BRANCH   1  28
ATOM     25  C   UNL     1      -0.072   4.242  -0.030  0.00  0.00    -0.045 A 
ATOM     26  C   UNL     1       1.137   3.571   0.003  0.00  0.00    +0.004 A 
ATOM     27  C   UNL     1       1.165   2.192  -0.011  0.00  0.00    +0.010 A 
ATOM     28  C   UNL     1      -0.029   1.474  -0.057  0.00  0.00    +0.000 A 
ATOM     29  C   UNL     1      -1.245   2.155  -0.096  0.00  0.00    +0.010 A 
ATOM     30  C   UNL     1      -1.260   3.535  -0.077  0.00  0.00    +0.004 A 
BRANCH  25  32
ATOM     31  C   UNL     1      -0.783   6.261  -1.282  0.00  0.00    +0.012 C 
ATOM     32  C   UNL     1      -0.095   5.749  -0.015  0.00  0.00    +0.013 C 
ATOM     33  C   UNL     1      -0.865   6.235   1.215  0.00  0.00    +0.012 C 
ENDBRANCH  25  32
ENDBRANCH   1  28
BRANCH   3  34
ATOM     34  C   UNL     1      -2.464  -2.878  -0.182  0.00  0.00    +0.434 C 
ATOM     35  F   UNL     1      -2.903  -3.138   1.121  0.00  0.00    -0.164 F 
ATOM     36  F   UNL     1      -3.441  -2.147  -0.866  0.00  0.00    -0.164 F 
ATOM     37  F   UNL     1      -2.236  -4.088  -0.847  0.00  0.00    -0.164 F 
ENDBRANCH   3  34
TORSDOF 6
