REMARK  Name = ZINC55173982
REMARK  2 active torsions:
REMARK  status: ('A' for Active; 'I' for Inactive)
REMARK    1  A    between atoms: C_1  and  C_2
REMARK    2  A    between atoms: C_3  and  C_8
REMARK                            x       y       z     vdW  Elec       q    Type
REMARK                         _______ _______ _______ _____ _____    ______ ____
ROOT
ATOM      1  C   UNL     1      -0.008  -0.258  -2.565  0.00  0.00    +0.255 C 
ATOM      2  O   UNL     1       0.108  -0.650  -1.418  0.00  0.00    -0.269 OA
ATOM      3  N   UNL     1      -0.103  -1.146  -3.575  0.00  0.00    -0.297 N 
ATOM      4  C   UNL     1      -0.198  -2.585  -3.297  0.00  0.00    +0.110 C 
ATOM      5  C   UNL     1       0.906  -3.311  -4.075  0.00  0.00    +0.054 C 
ATOM      6  C   UNL     1       0.816  -2.934  -5.551  0.00  0.00    +0.115 C 
ATOM      7  C   UNL     1       0.991  -1.431  -5.737  0.00  0.00    +0.054 C 
ATOM      8  C   UNL     1      -0.118  -0.691  -4.972  0.00  0.00    +0.110 C 
ATOM      9  C   UNL     1       1.851  -3.689  -6.352  0.00  0.00    +0.244 C 
ATOM     10  O   UNL     1       3.056  -3.636  -6.229  0.00  0.00    -0.273 OA
ATOM     11  N   UNL     1       1.151  -4.436  -7.232  0.00  0.00    -0.238 N 
ATOM     12  C   UNL     1      -0.168  -4.254  -7.093  0.00  0.00    +0.307 C 
ATOM     13  O   UNL     1      -1.003  -4.818  -7.773  0.00  0.00    -0.252 OA
ATOM     14  N   UNL     1      -0.466  -3.377  -6.116  0.00  0.00    -0.285 N 
ATOM     15  H   UNL     1       1.554  -5.030  -7.884  0.00  0.00    +0.159 HD
ATOM     16  H   UNL     1      -1.351  -3.093  -5.840  0.00  0.00    +0.151 HD
ENDROOT
BRANCH   1  19
ATOM     17  C   UNL     1       1.548   1.986  -1.056  0.00  0.00    +0.067 C 
ATOM     18  C   UNL     1       0.619   2.221  -2.219  0.00  0.00    +0.060 A 
ATOM     19  C   UNL     1      -0.045   1.177  -2.848  0.00  0.00    +0.098 A 
ATOM     20  S   UNL     1      -0.955   2.070  -4.097  0.00  0.00    -0.048 S 
ATOM     21  C   UNL     1      -0.423   3.619  -3.712  0.00  0.00    +0.156 A 
ATOM     22  N   UNL     1       0.390   3.422  -2.688  0.00  0.00    -0.230 NA
ATOM     23  N   UNL     1      -0.758   4.812  -4.316  0.00  0.00    -0.337 N 
ATOM     24  H   UNL     1      -1.376   4.819  -5.064  0.00  0.00    +0.144 HD
ATOM     25  H   UNL     1      -0.377   5.643  -3.994  0.00  0.00    +0.144 HD
ENDBRANCH   1  19
TORSDOF 1
