REMARK  Name = ZINC40343623
REMARK  12 active torsions:
REMARK  status: ('A' for Active; 'I' for Inactive)
REMARK    1  A    between atoms: C_1  and  C_2
REMARK    2  A    between atoms: C_2  and  C_3
REMARK    3  A    between atoms: C_3  and  C_4
REMARK    4  A    between atoms: C_4  and  C_5
REMARK    5  A    between atoms: C_5  and  O_6
REMARK    6  A    between atoms: O_6  and  C_7
REMARK    7  A    between atoms: C_10  and  C_13
REMARK    8  A    between atoms: C_16  and  C_32
REMARK    9  A    between atoms: N_23  and  C_24
REMARK   10  A    between atoms: C_24  and  C_25
REMARK   11  A    between atoms: C_25  and  C_26
REMARK   12  A    between atoms: C_26  and  N_27
REMARK                            x       y       z     vdW  Elec       q    Type
REMARK                         _______ _______ _______ _____ _____    ______ ____
ROOT
ATOM      1  C   UNL     1      -7.812  -6.647   0.040  0.00  0.00    +0.141 C 
ATOM      2  C   UNL     1      -8.119  -7.154   1.423  0.00  0.00    +0.035 A 
ATOM      3  C   UNL     1      -8.334  -6.860   2.731  0.00  0.00    +0.072 A 
ATOM      4  N   UNL     1      -8.569  -8.046   3.366  0.00  0.00    -0.276 N 
ATOM      5  N   UNL     1      -8.507  -9.014   2.522  0.00  0.00    -0.168 NA
ATOM      6  H   UNL     1      -8.755  -8.144   4.313  0.00  0.00    +0.189 HD
ATOM      7  C   UNL     1      -8.238  -8.558   1.315  0.00  0.00    +0.153 A 
ATOM      8  C   UNL     1      -8.011  -8.924  -0.095  0.00  0.00    +0.268 C 
ATOM      9  O   UNL     1      -8.042 -10.059  -0.530  0.00  0.00    -0.268 OA
ATOM     10  N   UNL     1      -7.766  -7.826  -0.832  0.00  0.00    -0.285 N 
ENDROOT
BRANCH   3  11
ATOM     11  C   UNL     1      -8.317  -5.515   3.350  0.00  0.00    +0.000 A 
ATOM     12  C   UNL     1      -7.301  -4.613   3.034  0.00  0.00    +0.011 A 
ATOM     13  C   UNL     1      -7.289  -3.361   3.613  0.00  0.00    +0.020 A 
ATOM     14  C   UNL     1      -8.283  -3.000   4.507  0.00  0.00    +0.041 A 
ATOM     15  C   UNL     1      -9.294  -3.891   4.824  0.00  0.00    +0.020 A 
ATOM     16  C   UNL     1      -9.319  -5.144   4.246  0.00  0.00    +0.011 A 
ATOM     17 CL   UNL     1      -8.262  -1.423   5.233  0.00  0.00    -0.084 Cl
ENDBRANCH   3  11
BRANCH   1  21
ATOM     18  C   UNL     1      -4.031  -4.655   0.015  0.00  0.00    +0.121 A 
ATOM     19  C   UNL     1      -5.205  -3.917   0.025  0.00  0.00    +0.046 A 
ATOM     20  C   UNL     1      -6.426  -4.563   0.033  0.00  0.00    +0.009 A 
ATOM     21  C   UNL     1      -6.479  -5.945   0.032  0.00  0.00    -0.022 A 
ATOM     22  C   UNL     1      -5.309  -6.683   0.023  0.00  0.00    +0.009 A 
ATOM     23  C   UNL     1      -4.086  -6.042   0.009  0.00  0.00    +0.046 A 
BRANCH  18  24
ATOM     24  O   UNL     1      -2.829  -4.022   0.007  0.00  0.00    -0.492 OA
BRANCH  24  25
ATOM     25  C   UNL     1      -2.848  -2.593   0.015  0.00  0.00    +0.229 C 
BRANCH  25  26
ATOM     26  C   UNL     1      -1.413  -2.063   0.004  0.00  0.00    +0.041 C 
BRANCH  26  27
ATOM     27  C   UNL     1      -1.433  -0.534   0.013  0.00  0.00    +0.003 C 
BRANCH  27  29
ATOM     28  C   UNL     1      -0.019   1.526   0.010  0.00  0.00    +0.004 C 
ATOM     29  C   UNL     1       0.002  -0.004   0.002  0.00  0.00    -0.003 C 
ENDBRANCH  27  29
ENDBRANCH  26  27
ENDBRANCH  25  26
ENDBRANCH  24  25
ENDBRANCH  18  24
ENDBRANCH   1  21
BRANCH  10  30
ATOM     30  C   UNL     1      -7.498  -7.809  -2.272  0.00  0.00    +0.111 C 
BRANCH  30  31
ATOM     31  C   UNL     1      -5.992  -7.942  -2.512  0.00  0.00    +0.040 C 
BRANCH  31  32
ATOM     32  C   UNL     1      -5.712  -7.924  -4.016  0.00  0.00    +0.124 C 
BRANCH  32  33
ATOM     33  N   UNL     1      -4.271  -8.051  -4.246  0.00  0.00    -0.338 N 
ATOM     34  C   UNL     1      -3.369  -7.025  -4.335  0.00  0.00    +0.104 A 
ATOM     35  C   UNL     1      -2.163  -7.584  -4.549  0.00  0.00    +0.101 A 
ATOM     36  N   UNL     1      -2.324  -8.915  -4.589  0.00  0.00    -0.352 N 
ATOM     37  C   UNL     1      -3.583  -9.203  -4.403  0.00  0.00    +0.173 A 
ATOM     38  H   UNL     1      -1.615  -9.563  -4.730  0.00  0.00    +0.166 HD
ENDBRANCH  32  33
ENDBRANCH  31  32
ENDBRANCH  30  31
ENDBRANCH  10  30
TORSDOF 11
