REMARK  Name = ZINC20682022
REMARK  7 active torsions:
REMARK  status: ('A' for Active; 'I' for Inactive)
REMARK    1  A    between atoms: C_1  and  C_2
REMARK    2  A    between atoms: C_2  and  C_3
REMARK    3  A    between atoms: C_2  and  N_4
REMARK    4  A    between atoms: C_5  and  C_7
REMARK    5  A    between atoms: C_14  and  C_23
REMARK    6  A    between atoms: C_26  and  O_30
REMARK    7  A    between atoms: C_28  and  O_29
REMARK                            x       y       z     vdW  Elec       q    Type
REMARK                         _______ _______ _______ _____ _____    ______ ____
ROOT
ATOM      1  C   UNL     1      -3.393   0.859   3.247  0.00  0.00    +0.058 A 
ATOM      2  C   UNL     1      -4.178  -0.145   2.680  0.00  0.00    +0.015 A 
ATOM      3  C   UNL     1      -3.981  -0.502   1.364  0.00  0.00    +0.001 A 
ATOM      4  C   UNL     1      -3.010   0.130   0.609  0.00  0.00    +0.006 A 
ATOM      5  C   UNL     1      -2.219   1.130   1.155  0.00  0.00    -0.019 A 
ATOM      6  C   UNL     1      -2.406   1.502   2.475  0.00  0.00    +0.044 A 
ATOM      7  N   UNL     1      -1.656   2.500   3.078  0.00  0.00    -0.336 N 
ATOM      8  C   UNL     1      -0.331   2.685   2.458  0.00  0.00    +0.108 C 
ATOM      9  C   UNL     1      -0.520   2.979   0.968  0.00  0.00    +0.029 C 
ATOM     10  C   UNL     1      -1.186   1.769   0.273  0.00  0.00    +0.049 C 
ATOM     11  C   UNL     1      -0.041   0.816   0.018  0.00  0.00    -0.023 C 
ATOM     12  C   UNL     1       1.101   1.458   0.028  0.00  0.00    -0.030 C 
ATOM     13  C   UNL     1       0.878   2.934   0.291  0.00  0.00    +0.033 C 
ATOM     14  H   UNL     1      -1.956   3.127   3.930  0.00  0.00    +0.147 HD
ENDROOT
BRANCH   8  15
ATOM     15  C   UNL     1       0.399   3.833   3.107  0.00  0.00    +0.015 A 
ATOM     16  C   UNL     1       1.720   3.684   3.486  0.00  0.00    +0.012 A 
ATOM     17  C   UNL     1       2.392   4.734   4.082  0.00  0.00    +0.046 A 
ATOM     18  C   UNL     1       1.742   5.941   4.300  0.00  0.00    +0.120 A 
ATOM     19  C   UNL     1       0.417   6.092   3.921  0.00  0.00    +0.091 A 
ATOM     20  C   UNL     1      -0.253   5.039   3.318  0.00  0.00    +0.125 A 
BRANCH  20  21
ATOM     21  O   UNL     1      -1.550   5.185   2.940  0.00  0.00    -0.506 OA
ATOM     22  H   UNL     1      -2.067   6.142   3.108  0.00  0.00    +0.292 HD
ENDBRANCH  20  21
BRANCH  18  23
ATOM     23  O   UNL     1       2.404   6.974   4.885  0.00  0.00    -0.507 OA
ATOM     24  H   UNL     1       1.888   7.930   5.058  0.00  0.00    +0.292 HD
ENDBRANCH  18  23
ENDBRANCH   8  15
BRANCH   1  26
ATOM     25  N   UNL     1      -4.437   0.538   5.435  0.00  0.00    -0.309 N 
ATOM     26  C   UNL     1      -3.596   1.247   4.655  0.00  0.00    +0.246 C 
ATOM     27  O   UNL     1      -3.005   2.206   5.113  0.00  0.00    -0.270 OA
ATOM     28  H   UNL     1      -4.971  -0.329   5.020  0.00  0.00    +0.149 HD
BRANCH  25  30
ATOM     29  C   UNL     1      -5.714   2.009   6.913  0.00  0.00    +0.027 C 
ATOM     30  C   UNL     1      -4.639   0.924   6.833  0.00  0.00    +0.067 C 
ATOM     31  C   UNL     1      -5.087  -0.297   7.639  0.00  0.00    +0.027 C 
ENDBRANCH  25  30
ENDBRANCH   1  26
TORSDOF 5
