REMARK  Name = ZINC09841036
REMARK  17 active torsions:
REMARK  status: ('A' for Active; 'I' for Inactive)
REMARK    1  A    between atoms: C_1  and  C_2
REMARK    2  A    between atoms: C_2  and  N_69
REMARK    3  A    between atoms: C_3  and  C_4
REMARK    4  A    between atoms: C_3  and  N_69
REMARK    5  A    between atoms: C_5  and  C_6
REMARK    6  A    between atoms: C_5  and  N_69
REMARK    7  A    between atoms: C_6  and  C_8
REMARK    8  A    between atoms: C_6  and  C_9
REMARK    9  A    between atoms: C_9  and  N_10
REMARK   10  A    between atoms: C_11  and  C_13
REMARK   11  A    between atoms: C_13  and  S_14
REMARK   12  A    between atoms: S_14  and  C_15
REMARK   13  A    between atoms: C_19  and  C_33
REMARK   14  A    between atoms: C_20  and  C_25
REMARK   15  A    between atoms: C_21  and  C_24
REMARK   16  A    between atoms: C_25  and  C_26
REMARK   17  A    between atoms: C_31  and  C_32
REMARK                            x       y       z     vdW  Elec       q    Type
REMARK                         _______ _______ _______ _____ _____    ______ ____
ROOT
ATOM      1  C   UNL     1      -1.059  -0.359   0.500  0.00  0.00    +0.211 A 
ATOM      2  N   UNL     1       0.085  -1.038   0.535  0.00  0.00    -0.183 NA
ATOM      3  C   UNL     1      -0.168  -2.336   0.667  0.00  0.00    +0.254 A 
ATOM      4  N   UNL     1       0.631  -3.406   0.751  0.00  0.00    -0.216 NA
ATOM      5  C   UNL     1       0.129  -4.614   0.874  0.00  0.00    +0.047 A 
ATOM      6  C   UNL     1      -1.258  -4.801   0.919  0.00  0.00    -0.001 A 
ATOM      7  C   UNL     1      -2.076  -3.720   0.835  0.00  0.00    +0.049 A 
ATOM      8  N   UNL     1      -1.526  -2.485   0.708  0.00  0.00    -0.200 N 
ATOM      9  N   UNL     1      -2.071  -1.198   0.599  0.00  0.00    -0.137 NA
ATOM     10  C   UNL     1      -3.573  -3.889   0.881  0.00  0.00    +0.066 C 
ATOM     11  C   UNL     1       1.049  -5.804   0.966  0.00  0.00    +0.066 C 
ENDROOT
BRANCH   1  12
ATOM     12  S   UNL     1      -1.200   1.390   0.339  0.00  0.00    -0.075 S 
BRANCH  12  13
ATOM     13  C   UNL     1       0.519   1.963   0.251  0.00  0.00    +0.173 C 
BRANCH  13  15
ATOM     14  N   UNL     1       1.719   4.114   0.025  0.00  0.00    -0.314 N 
ATOM     15  C   UNL     1       0.542   3.463   0.110  0.00  0.00    +0.223 C 
ATOM     16  O   UNL     1      -0.499   4.085   0.072  0.00  0.00    -0.275 OA
ATOM     17  H   UNL     1       2.551   3.616   0.055  0.00  0.00    +0.149 HD
BRANCH  14  18
ATOM     18  C   UNL     1       1.742   5.572  -0.112  0.00  0.00    +0.105 C 
BRANCH  18  19
ATOM     19  C   UNL     1       3.191   6.055  -0.187  0.00  0.00    -0.014 C 
ATOM     20  C   UNL     1       3.895   5.762   1.140  0.00  0.00    +0.007 C 
BRANCH  19  21
ATOM     21  C   UNL     1       3.214   7.561  -0.455  0.00  0.00    -0.074 C 
BRANCH  21  22
ATOM     22  N   UNL     1       4.617   7.994  -0.623  0.00  0.00    +0.380 N 
ATOM     23  H   UNL     1       5.168   7.659   0.176  0.00  0.00    -0.082 HD
BRANCH  22  25
ATOM     24  C   UNL     1       4.435   7.967  -3.088  0.00  0.00    -0.017 C 
ATOM     25  C   UNL     1       5.177   7.423  -1.865  0.00  0.00    -0.082 C 
ENDBRANCH  22  25
BRANCH  22  26
ATOM     26  C   UNL     1       4.688   9.470  -0.668  0.00  0.00    -0.082 C 
ATOM     27  C   UNL     1       6.158   9.894  -0.701  0.00  0.00    -0.017 C 
ENDBRANCH  22  26
ENDBRANCH  21  22
ENDBRANCH  19  21
ENDBRANCH  18  19
ENDBRANCH  14  18
ENDBRANCH  13  15
ENDBRANCH  12  13
ENDBRANCH   1  12
BRANCH   6  28
ATOM     28  C   UNL     1      -1.836  -6.186   1.060  0.00  0.00    +0.074 C 
BRANCH  28  29
ATOM     29  C   UNL     1      -2.167  -6.733  -0.304  0.00  0.00    -0.040 A 
ATOM     30  C   UNL     1      -1.818  -6.022  -1.438  0.00  0.00    +0.004 A 
ATOM     31  C   UNL     1      -2.118  -6.526  -2.689  0.00  0.00    +0.000 A 
ATOM     32  C   UNL     1      -2.776  -7.736  -2.808  0.00  0.00    +0.000 A 
ATOM     33  C   UNL     1      -3.129  -8.444  -1.675  0.00  0.00    +0.003 A 
ATOM     34  C   UNL     1      -2.825  -7.943  -0.423  0.00  0.00    -0.047 A 
ATOM     35  C   UNL     1      -3.211  -8.715   0.812  0.00  0.00    +0.044 C 
ENDBRANCH  28  29
ENDBRANCH   6  28
TORSDOF 11
