REMARK  Name = ZINC11911928
REMARK  8 active torsions:
REMARK  status: ('A' for Active; 'I' for Inactive)
REMARK    1  A    between atoms: C_4  and  C_7
REMARK    2  A    between atoms: C_7  and  C_8
REMARK    3  A    between atoms: C_8  and  C_9
REMARK    4  A    between atoms: C_9  and  C_10
REMARK    5  A    between atoms: C_10  and  C_17
REMARK    6  A    between atoms: C_22  and  C_23
REMARK    7  A    between atoms: C_22  and  N_65
REMARK    8  A    between atoms: C_28  and  C_29
REMARK                            x       y       z     vdW  Elec       q    Type
REMARK                         _______ _______ _______ _____ _____    ______ ____
ROOT
ATOM      1  C   UNL     1      -0.351  -1.385  -0.324  0.00  0.00    +0.018 C 
ATOM      2  C   UNL     1      -0.476  -2.892  -0.565  0.00  0.00    -0.013 C 
ATOM      3  C   UNL     1      -1.180  -3.133  -1.902  0.00  0.00    -0.078 C 
ATOM      4  C   UNL     1      -0.316  -1.054  -2.799  0.00  0.00    -0.078 C 
ATOM      5  C   UNL     1       0.415  -0.751  -1.489  0.00  0.00    -0.013 C 
ATOM      6  N   UNL     1      -0.381  -2.520  -2.984  0.00  0.00    +0.382 N 
ATOM      7  H   UNL     1       0.571  -2.902  -2.952  0.00  0.00    -0.081 HD
ENDROOT
BRANCH   1   8
ATOM      8  C   UNL     1       0.408  -1.138   0.982  0.00  0.00    +0.115 C 
ATOM      9  C   UNL     1       1.867  -1.519   0.831  0.00  0.00    +0.244 C 
ATOM     10  O   UNL     1       2.314  -2.617   0.576  0.00  0.00    -0.273 OA
ATOM     11  N   UNL     1       2.564  -0.385   1.041  0.00  0.00    -0.238 N 
ATOM     12  C   UNL     1       1.756   0.650   1.301  0.00  0.00    +0.307 C 
ATOM     13  O   UNL     1       2.152   1.777   1.523  0.00  0.00    -0.252 OA
ATOM     14  N   UNL     1       0.456   0.303   1.288  0.00  0.00    -0.285 N 
ATOM     15  H   UNL     1       3.531  -0.326   1.008  0.00  0.00    +0.159 HD
ATOM     16  H   UNL     1      -0.301   0.887   1.445  0.00  0.00    +0.151 HD
BRANCH   8  17
ATOM     17  C   UNL     1      -0.239  -1.911   2.133  0.00  0.00    +0.036 C 
BRANCH  17  18
ATOM     18  C   UNL     1       0.494  -1.590   3.437  0.00  0.00    +0.007 C 
BRANCH  18  19
ATOM     19  C   UNL     1      -0.152  -2.364   4.588  0.00  0.00    +0.035 C 
BRANCH  19  23
ATOM     20  C   UNL     1       1.892  -1.469   8.231  0.00  0.00    +0.000 A 
ATOM     21  C   UNL     1       0.814  -0.699   7.836  0.00  0.00    +0.000 A 
ATOM     22  C   UNL     1       0.152  -0.989   6.657  0.00  0.00    +0.003 A 
ATOM     23  C   UNL     1       0.569  -2.048   5.873  0.00  0.00    -0.047 A 
ATOM     24  C   UNL     1       1.644  -2.821   6.270  0.00  0.00    +0.003 A 
ATOM     25  C   UNL     1       2.308  -2.529   7.447  0.00  0.00    +0.000 A 
ENDBRANCH  19  23
ENDBRANCH  18  19
ENDBRANCH  17  18
ENDBRANCH   8  17
ENDBRANCH   1   8
BRANCH   6  26
ATOM     26  C   UNL     1      -0.981  -2.836  -4.296  0.00  0.00    -0.039 C 
BRANCH  26  27
ATOM     27  C   UNL     1      -0.714  -4.285  -4.613  0.00  0.00    -0.019 A 
ATOM     28  C   UNL     1      -1.621  -5.286  -4.581  0.00  0.00    +0.107 A 
ATOM     29  N   UNL     1      -0.991  -6.430  -4.927  0.00  0.00    -0.284 N 
ATOM     30  H   UNL     1      -1.411  -7.335  -4.990  0.00  0.00    +0.188 HD
ATOM     31  N   UNL     1       0.352  -6.127  -5.183  0.00  0.00    -0.174 NA
ATOM     32  C   UNL     1       0.523  -4.835  -5.001  0.00  0.00    +0.094 A 
BRANCH  32  33
ATOM     33  C   UNL     1       1.795  -4.090  -5.170  0.00  0.00    +0.002 A 
ATOM     34  C   UNL     1       1.801  -2.855  -5.816  0.00  0.00    +0.013 A 
ATOM     35  C   UNL     1       2.985  -2.163  -5.968  0.00  0.00    +0.039 A 
ATOM     36  C   UNL     1       4.169  -2.700  -5.487  0.00  0.00    +0.123 A 
ATOM     37  C   UNL     1       4.168  -3.929  -4.849  0.00  0.00    +0.039 A 
ATOM     38  C   UNL     1       2.988  -4.625  -4.689  0.00  0.00    +0.013 A 
ATOM     39  F   UNL     1       5.327  -2.021  -5.642  0.00  0.00    -0.205 F 
ENDBRANCH  32  33
ENDBRANCH  26  27
ENDBRANCH   6  26
TORSDOF 8
