REMARK  Name = ZINC21062716
REMARK  7 active torsions:
REMARK  status: ('A' for Active; 'I' for Inactive)
REMARK    1  A    between atoms: C_1  and  C_2
REMARK    2  A    between atoms: C_6  and  C_20
REMARK    3  A    between atoms: C_7  and  N_8
REMARK    4  A    between atoms: N_8  and  S_9
REMARK    5  A    between atoms: S_9  and  C_12
REMARK    6  A    between atoms: C_15  and  O_19
REMARK    7  A    between atoms: C_16  and  N_18
REMARK                            x       y       z     vdW  Elec       q    Type
REMARK                         _______ _______ _______ _____ _____    ______ ____
ROOT
ATOM      1  S   UNL     1      -0.771  -0.958   0.150  0.00  0.00    +0.072 S 
ATOM      2  O   UNL     1      -0.502  -2.299   0.534  0.00  0.00    -0.150 OA
ATOM      3  O   UNL     1      -1.495  -0.059   0.979  0.00  0.00    -0.150 OA
ENDROOT
BRANCH   1   4
ATOM      4  C   UNL     1       0.788  -0.203  -0.173  0.00  0.00    +0.110 A 
ATOM      5  C   UNL     1       1.899  -0.990  -0.412  0.00  0.00    +0.032 A 
ATOM      6  C   UNL     1       3.125  -0.404  -0.666  0.00  0.00    +0.049 A 
ATOM      7  C   UNL     1       3.243   0.976  -0.680  0.00  0.00    +0.137 A 
ATOM      8  C   UNL     1       2.124   1.770  -0.440  0.00  0.00    +0.068 A 
ATOM      9  C   UNL     1       0.897   1.175  -0.186  0.00  0.00    +0.055 A 
BRANCH   8  10
ATOM     10  N   UNL     1       2.237   3.165  -0.454  0.00  0.00    -0.355 N 
ATOM     11  H   UNL     1       1.352   3.791  -0.264  0.00  0.00    +0.142 HD
ATOM     12  H   UNL     1       3.211   3.636  -0.656  0.00  0.00    +0.142 HD
ENDBRANCH   8  10
BRANCH   7  13
ATOM     13  O   UNL     1       4.448   1.555  -0.930  0.00  0.00    -0.505 OA
ATOM     14  H   UNL     1       4.541   2.651  -0.941  0.00  0.00    +0.292 HD
ENDBRANCH   7  13
ENDBRANCH   1   4
BRANCH   1  15
ATOM     15  N   UNL     1      -1.586  -1.033  -1.290  0.00  0.00    -0.216 N 
ATOM     16  H   UNL     1      -2.505  -0.445  -1.434  0.00  0.00    +0.174 HD
BRANCH  15  23
ATOM     17  C   UNL     1      -0.274   0.221  -3.481  0.00  0.00    +0.046 C 
ATOM     18  C   UNL     1      -0.459  -1.273  -3.411  0.00  0.00    -0.027 A 
ATOM     19  C   UNL     1       0.018  -2.077  -4.428  0.00  0.00    +0.020 A 
ATOM     20  C   UNL     1      -0.157  -3.448  -4.367  0.00  0.00    +0.018 A 
ATOM     21  C   UNL     1      -0.806  -4.019  -3.287  0.00  0.00    +0.020 A 
ATOM     22  C   UNL     1      -1.281  -3.220  -2.265  0.00  0.00    -0.027 A 
ATOM     23  C   UNL     1      -1.107  -1.843  -2.323  0.00  0.00    +0.054 A 
ATOM     24  C   UNL     1      -1.989  -3.842  -1.089  0.00  0.00    +0.046 C 
ATOM     25 BR   UNL     1       0.492  -4.545  -5.765  0.00  0.00    -0.050 Br
ENDBRANCH  15  23
ENDBRANCH   1  15
TORSDOF 5
