REMARK  Name = ZINC06577110
REMARK  11 active torsions:
REMARK  status: ('A' for Active; 'I' for Inactive)
REMARK    1  A    between atoms: C_1  and  C_2
REMARK    2  A    between atoms: C_2  and  C_3
REMARK    3  A    between atoms: C_6  and  C_9
REMARK    4  A    between atoms: C_11  and  C_15
REMARK    5  A    between atoms: C_12  and  C_14
REMARK    6  A    between atoms: C_15  and  N_16
REMARK    7  A    between atoms: C_19  and  C_22
REMARK    8  A    between atoms: N_24  and  C_25
REMARK    9  A    between atoms: C_31  and  O_33
REMARK   10  A    between atoms: O_33  and  C_34
REMARK   11  A    between atoms: C_34  and  C_35
REMARK                            x       y       z     vdW  Elec       q    Type
REMARK                         _______ _______ _______ _____ _____    ______ ____
ROOT
ATOM      1  N   UNL     1       2.731  -4.471   8.150  0.00  0.00    +0.383 N 
ATOM      2  C   UNL     1       1.458  -4.755   7.476  0.00  0.00    -0.078 C 
ATOM      3  C   UNL     1       1.212  -6.265   7.458  0.00  0.00    -0.006 C 
ATOM      4  C   UNL     1       1.156  -6.785   8.898  0.00  0.00    +0.071 C 
ATOM      5  C   UNL     1       2.459  -6.417   9.614  0.00  0.00    -0.006 C 
ATOM      6  C   UNL     1       2.659  -4.902   9.552  0.00  0.00    -0.078 C 
ATOM      7  H   UNL     1       3.475  -4.969   7.684  0.00  0.00    -0.081 HD
ENDROOT
BRANCH   4   8
ATOM      8  C   UNL     1       0.992  -8.283   8.887  0.00  0.00    +0.216 C 
ATOM      9  O   UNL     1       0.926  -8.878   7.832  0.00  0.00    -0.276 OA
ATOM     10  N   UNL     1       0.918  -8.961  10.049  0.00  0.00    -0.312 N 
ATOM     11  H   UNL     1       0.970  -8.485  10.893  0.00  0.00    +0.149 HD
BRANCH  10  12
ATOM     12  C   UNL     1       0.758 -10.417  10.039  0.00  0.00    +0.076 C 
ATOM     13  C   UNL     1      -0.726 -10.766   9.908  0.00  0.00    +0.041 C 
ATOM     14  C   UNL     1      -0.886 -12.289   9.863  0.00  0.00    +0.113 C 
ATOM     15  N   UNL     1      -0.232 -12.869  11.044  0.00  0.00    -0.267 N 
ATOM     16  C   UNL     1       1.171 -12.525  11.314  0.00  0.00    +0.113 C 
ATOM     17  C   UNL     1       1.308 -10.999  11.343  0.00  0.00    +0.041 C 
ATOM     18  C   UNL     1      -0.905 -13.700  11.864  0.00  0.00    +0.403 C 
ATOM     19  O   UNL     1      -2.065 -13.976  11.630  0.00  0.00    -0.226 OA
BRANCH  18  20
ATOM     20  O   UNL     1      -0.293 -14.224  12.942  0.00  0.00    -0.451 OA
BRANCH  20  21
ATOM     21  C   UNL     1      -1.067 -15.097  13.768  0.00  0.00    +0.230 C 
ATOM     22  C   UNL     1      -0.208 -15.589  14.934  0.00  0.00    +0.048 C 
ENDBRANCH  20  21
ENDBRANCH  18  20
ENDBRANCH  10  12
ENDBRANCH   4   8
BRANCH   1  23
ATOM     23  C   UNL     1       3.001  -3.028   8.096  0.00  0.00    -0.019 C 
BRANCH  23  26
ATOM     24  C   UNL     1       2.785  -1.912   4.664  0.00  0.00    +0.228 A 
ATOM     25  N   UNL     1       2.237  -2.191   5.823  0.00  0.00    -0.216 NA
ATOM     26  C   UNL     1       3.197  -2.607   6.662  0.00  0.00    +0.066 A 
ATOM     27  C   UNL     1       4.366  -2.582   5.997  0.00  0.00    +0.124 A 
ATOM     28  O   UNL     1       4.105  -2.152   4.746  0.00  0.00    -0.440 OA
ATOM     29  C   UNL     1       5.715  -2.968   6.546  0.00  0.00    +0.088 C 
BRANCH  24  33
ATOM     30  C   UNL     1       0.731  -0.503   1.223  0.00  0.00    -0.048 A 
ATOM     31  C   UNL     1       2.098  -0.709   1.173  0.00  0.00    +0.004 A 
ATOM     32  C   UNL     1       2.772  -1.166   2.287  0.00  0.00    +0.013 A 
ATOM     33  C   UNL     1       2.070  -1.421   3.466  0.00  0.00    +0.037 A 
ATOM     34  C   UNL     1       0.691  -1.211   3.510  0.00  0.00    +0.013 A 
ATOM     35  C   UNL     1       0.031  -0.749   2.391  0.00  0.00    +0.004 A 
BRANCH  30  37
ATOM     36  C   UNL     1      -0.019   1.526   0.010  0.00  0.00    +0.009 C 
ATOM     37  C   UNL     1       0.002  -0.004   0.002  0.00  0.00    +0.032 C 
ENDBRANCH  30  37
ENDBRANCH  24  33
ENDBRANCH  23  26
ENDBRANCH   1  23
TORSDOF 8
