REMARK  Name = ZINC40157155
REMARK  6 active torsions:
REMARK  status: ('A' for Active; 'I' for Inactive)
REMARK    1  A    between atoms: C_4  and  C_7
REMARK    2  A    between atoms: C_8  and  C_9
REMARK    3  A    between atoms: C_9  and  O_10
REMARK    4  A    between atoms: O_10  and  C_11
REMARK    5  A    between atoms: C_11  and  C_13
REMARK    6  A    between atoms: C_14  and  C_15
REMARK                            x       y       z     vdW  Elec       q    Type
REMARK                         _______ _______ _______ _____ _____    ______ ____
ROOT
ATOM      1  C   UNL     1       6.813  -4.163  -0.087  0.00  0.00    +0.333 C 
ATOM      2  O   UNL     1       7.931  -3.679  -0.096  0.00  0.00    -0.246 OA
ENDROOT
BRANCH   1   3
ATOM      3  C   UNL     1       6.651  -5.559  -0.093  0.00  0.00    +0.094 C 
ATOM      4  C   UNL     1       7.746  -6.373  -0.108  0.00  0.00    +0.036 C 
BRANCH   4   5
ATOM      5  C   UNL     1       7.584  -7.770  -0.114  0.00  0.00    +0.085 A 
ATOM      6  C   UNL     1       6.782  -8.512   0.739  0.00  0.00    +0.156 A 
ATOM      7  N   UNL     1       6.907  -9.792   0.407  0.00  0.00    -0.209 NA
ATOM      8  C   UNL     1       7.736  -9.906  -0.601  0.00  0.00    +0.179 A 
ATOM      9  N   UNL     1       8.200  -8.682  -0.991  0.00  0.00    -0.292 N 
ATOM     10  C   UNL     1       9.079  -8.652  -2.048  0.00  0.00    +0.101 A 
ATOM     11  C   UNL     1       9.450  -9.777  -2.659  0.00  0.00    +0.067 A 
ATOM     12  S   UNL     1       8.550 -11.011  -1.732  0.00  0.00    -0.058 S 
ATOM     13 CL   UNL     1       5.790  -7.880   2.015  0.00  0.00    -0.060 Cl
ENDBRANCH   4   5
ENDBRANCH   1   3
BRANCH   1  14
ATOM     14  O   UNL     1       5.729  -3.357  -0.072  0.00  0.00    -0.449 OA
BRANCH  14  15
ATOM     15  C   UNL     1       5.967  -1.948  -0.067  0.00  0.00    +0.321 C 
BRANCH  15  17
ATOM     16  C   UNL     1       3.655  -0.662  -0.037  0.00  0.00    -0.063 C 
ATOM     17  C   UNL     1       4.681  -1.233  -0.050  0.00  0.00    -0.056 C 
BRANCH  16  21
ATOM     18  C   UNL     1      -0.017   1.379   0.010  0.00  0.00    +0.000 A 
ATOM     19  C   UNL     1       1.168   2.093   0.002  0.00  0.00    +0.001 A 
ATOM     20  C   UNL     1       2.377   1.429  -0.013  0.00  0.00    +0.017 A 
ATOM     21  C   UNL     1       2.403   0.034  -0.021  0.00  0.00    +0.025 A 
ATOM     22  C   UNL     1       1.204  -0.681  -0.013  0.00  0.00    +0.017 A 
ATOM     23  C   UNL     1       0.002  -0.004   0.002  0.00  0.00    +0.001 A 
ENDBRANCH  16  21
ENDBRANCH  15  17
ENDBRANCH  14  15
ENDBRANCH   1  14
TORSDOF 6
