REMARK  Name = ZINC45795627
REMARK  13 active torsions:
REMARK  status: ('A' for Active; 'I' for Inactive)
REMARK    1  A    between atoms: C_1  and  C_2
REMARK    2  A    between atoms: C_2  and  C_3
REMARK    3  A    between atoms: C_2  and  C_4
REMARK    4  A    between atoms: C_2  and  O_5
REMARK    5  A    between atoms: O_5  and  C_6
REMARK    6  A    between atoms: N_8  and  C_9
REMARK    7  A    between atoms: C_9  and  C_10
REMARK    8  A    between atoms: C_13  and  C_16
REMARK    9  A    between atoms: C_16  and  O_18
REMARK   10  A    between atoms: O_18  and  C_19
REMARK   11  A    between atoms: C_19  and  C_20
REMARK   12  A    between atoms: C_22  and  C_25
REMARK   13  A    between atoms: C_28  and  C_31
REMARK                            x       y       z     vdW  Elec       q    Type
REMARK                         _______ _______ _______ _____ _____    ______ ____
ROOT
ATOM      1  C   UNL     1       6.080  -2.273  -7.508  0.00  0.00    +0.340 C 
ATOM      2  O   UNL     1       6.612  -3.365  -7.508  0.00  0.00    -0.245 OA
ENDROOT
BRANCH   1   6
ATOM      3  C   UNL     1       4.570  -0.648  -3.886  0.00  0.00    -0.030 A 
ATOM      4  C   UNL     1       5.176  -1.893  -3.883  0.00  0.00    +0.006 A 
ATOM      5  C   UNL     1       5.668  -2.426  -5.056  0.00  0.00    +0.015 A 
ATOM      6  C   UNL     1       5.554  -1.708  -6.248  0.00  0.00    +0.059 A 
ATOM      7  C   UNL     1       4.943  -0.453  -6.244  0.00  0.00    +0.015 A 
ATOM      8  C   UNL     1       4.450   0.067  -5.065  0.00  0.00    +0.006 A 
BRANCH   3   9
ATOM      9  C   UNL     1       4.035  -0.071  -2.601  0.00  0.00    +0.142 C 
BRANCH   9  12
ATOM     10  C   UNL     1       1.952  -0.085  -1.337  0.00  0.00    +0.401 C 
ATOM     11  O   UNL     1       2.488   0.619  -0.503  0.00  0.00    -0.226 OA
ATOM     12  N   UNL     1       2.641  -0.485  -2.424  0.00  0.00    -0.277 N 
ATOM     13  H   UNL     1       2.213  -1.047  -3.089  0.00  0.00    +0.152 HD
BRANCH  10  14
ATOM     14  O   UNL     1       0.671  -0.465  -1.174  0.00  0.00    -0.445 OA
BRANCH  14  16
ATOM     15  C   UNL     1      -0.019   1.526   0.010  0.00  0.00    +0.055 C 
ATOM     16  C   UNL     1       0.002  -0.004   0.002  0.00  0.00    +0.107 C 
ATOM     17  C   UNL     1       0.742  -0.511   1.242  0.00  0.00    +0.055 C 
ATOM     18  C   UNL     1      -1.433  -0.534   0.013  0.00  0.00    +0.055 C 
ENDBRANCH  14  16
ENDBRANCH  10  14
ENDBRANCH   9  12
ENDBRANCH   3   9
ENDBRANCH   1   6
BRANCH   1  19
ATOM     19  O   UNL     1       5.969  -1.578  -8.656  0.00  0.00    -0.451 OA
BRANCH  19  20
ATOM     20  C   UNL     1       6.499  -2.185  -9.836  0.00  0.00    +0.331 C 
BRANCH  20  21
ATOM     21  C   UNL     1       6.285  -1.268 -11.012  0.00  0.00    +0.265 A 
ATOM     22  N   UNL     1       7.115  -0.352 -11.424  0.00  0.00    -0.188 NA
ATOM     23  C   UNL     1       6.608   0.280 -12.498  0.00  0.00    +0.202 A 
ATOM     24  N   UNL     1       5.438  -0.240 -12.776  0.00  0.00    -0.056 NA
ATOM     25  O   UNL     1       5.213  -1.260 -11.815  0.00  0.00    -0.334 OA
BRANCH  23  26
ATOM     26  C   UNL     1       7.265   1.383 -13.243  0.00  0.00    +0.022 A 
ATOM     27  C   UNL     1       8.519   1.845 -12.848  0.00  0.00    +0.012 A 
ATOM     28  C   UNL     1       9.125   2.870 -13.545  0.00  0.00    +0.013 A 
ATOM     29  C   UNL     1       8.489   3.440 -14.633  0.00  0.00    +0.055 A 
ATOM     30  C   UNL     1       7.245   2.986 -15.030  0.00  0.00    +0.013 A 
ATOM     31  C   UNL     1       6.632   1.956 -14.344  0.00  0.00    +0.012 A 
BRANCH  29  32
ATOM     32  C   UNL     1       9.155   4.561 -15.389  0.00  0.00    +0.417 C 
ATOM     33  F   UNL     1       9.937   4.028 -16.420  0.00  0.00    -0.166 F 
ATOM     34  F   UNL     1       8.179   5.402 -15.932  0.00  0.00    -0.166 F 
ATOM     35  F   UNL     1       9.969   5.293 -14.518  0.00  0.00    -0.166 F 
ENDBRANCH  29  32
ENDBRANCH  23  26
ENDBRANCH  20  21
ENDBRANCH  19  20
ENDBRANCH   1  19
TORSDOF 10
