REMARK  Name = ZINC37121607
REMARK  5 active torsions:
REMARK  status: ('A' for Active; 'I' for Inactive)
REMARK    1  A    between atoms: C_3  and  O_18
REMARK    2  A    between atoms: C_4  and  O_17
REMARK    3  A    between atoms: C_6  and  C_7
REMARK    4  A    between atoms: C_7  and  N_8
REMARK    5  A    between atoms: N_8  and  C_9
REMARK                            x       y       z     vdW  Elec       q    Type
REMARK                         _______ _______ _______ _____ _____    ______ ____
ROOT
ATOM      1  C   UNL     1      -1.294  -0.774   0.010  0.00  0.00    +0.137 C 
ENDROOT
BRANCH   1   7
ATOM      2  C   UNL     1      -0.017   1.378   0.010  0.00  0.00    +0.009 A 
ATOM      3  C   UNL     1       1.170   2.089   0.002  0.00  0.00    +0.049 A 
ATOM      4  C   UNL     1       2.380   1.415  -0.013  0.00  0.00    +0.158 A 
ATOM      5  C   UNL     1       2.399   0.024  -0.021  0.00  0.00    +0.159 A 
ATOM      6  C   UNL     1       1.207  -0.682  -0.013  0.00  0.00    +0.054 A 
ATOM      7  C   UNL     1       0.002  -0.004   0.002  0.00  0.00    -0.027 A 
BRANCH   5   8
ATOM      8  O   UNL     1       3.585  -0.642  -0.036  0.00  0.00    -0.503 OA
ATOM      9  H   UNL     1       3.937  -0.839   0.843  0.00  0.00    +0.292 HD
ENDBRANCH   5   8
BRANCH   4  10
ATOM     10  O   UNL     1       3.548   2.113  -0.021  0.00  0.00    -0.503 OA
ATOM     11  H   UNL     1       3.894   2.310   0.860  0.00  0.00    +0.292 HD
ENDBRANCH   4  10
ENDBRANCH   1   7
BRANCH   1  12
ATOM     12  N   UNL     1      -1.727  -1.016  -1.368  0.00  0.00    -0.339 N 
ATOM     13  H   UNL     1      -1.192  -0.690  -2.109  0.00  0.00    +0.146 HD
BRANCH  12  14
ATOM     14  C   UNL     1      -2.910  -1.716  -1.616  0.00  0.00    +0.043 A 
ATOM     15  C   UNL     1      -3.680  -2.178  -0.557  0.00  0.00    +0.039 A 
ATOM     16  C   UNL     1      -4.850  -2.870  -0.805  0.00  0.00    +0.020 A 
ATOM     17  C   UNL     1      -5.255  -3.103  -2.108  0.00  0.00    +0.016 A 
ATOM     18  C   UNL     1      -4.490  -2.644  -3.165  0.00  0.00    +0.018 A 
ATOM     19  C   UNL     1      -3.322  -1.946  -2.923  0.00  0.00    +0.039 A 
ATOM     20 BR   UNL     1      -2.282  -1.312  -4.369  0.00  0.00    -0.048 Br
ATOM     21 BR   UNL     1      -5.899  -3.500   0.636  0.00  0.00    -0.050 Br
ENDBRANCH  12  14
ENDBRANCH   1  12
TORSDOF 5
