REMARK  Name = ZINC16426193
REMARK  19 active torsions:
REMARK  status: ('A' for Active; 'I' for Inactive)
REMARK    1  A    between atoms: C_1  and  C_2
REMARK    2  A    between atoms: C_2  and  C_3
REMARK    3  A    between atoms: C_3  and  C_5
REMARK    4  A    between atoms: C_3  and  N_23
REMARK    5  A    between atoms: N_15  and  C_16
REMARK    6  A    between atoms: C_20  and  C_22
REMARK    7  A    between atoms: N_23  and  C_24
REMARK    8  A    between atoms: C_24  and  C_25
REMARK    9  A    between atoms: C_25  and  N_81
REMARK   10  A    between atoms: C_26  and  N_81
REMARK   11  A    between atoms: C_27  and  N_81
REMARK   12  A    between atoms: C_28  and  C_30
REMARK   13  A    between atoms: C_30  and  C_31
REMARK   14  A    between atoms: C_31  and  C_33
REMARK   15  A    between atoms: C_31  and  C_34
REMARK   16  A    between atoms: C_34  and  C_35
REMARK   17  A    between atoms: C_35  and  C_36
REMARK   18  A    between atoms: C_35  and  C_37
REMARK   19  A    between atoms: C_35  and  C_38
REMARK                            x       y       z     vdW  Elec       q    Type
REMARK                         _______ _______ _______ _____ _____    ______ ____
ROOT
ATOM      1  C   UNL     1       5.464  -1.947  -1.133  0.00  0.00    +0.142 C 
ENDROOT
BRANCH   1   2
ATOM      2  C   UNL     1       6.508  -2.960  -0.741  0.00  0.00    +0.138 A 
ATOM      3  N   UNL     1       7.080  -3.651  -1.680  0.00  0.00    -0.231 NA
ATOM      4  C   UNL     1       8.032  -4.576  -1.403  0.00  0.00    +0.078 A 
ATOM      5  C   UNL     1       8.651  -5.316  -2.413  0.00  0.00    +0.028 A 
ATOM      6  C   UNL     1       9.607  -6.250  -2.086  0.00  0.00    +0.002 A 
ATOM      7  C   UNL     1       9.967  -6.467  -0.762  0.00  0.00    +0.001 A 
ATOM      8  C   UNL     1       9.371  -5.750   0.252  0.00  0.00    +0.015 A 
ATOM      9  C   UNL     1       8.400  -4.800  -0.057  0.00  0.00    +0.065 A 
ATOM     10  C   UNL     1       7.730  -4.005   0.983  0.00  0.00    +0.266 A 
ATOM     11  O   UNL     1       8.002  -4.149   2.161  0.00  0.00    -0.267 OA
ATOM     12  N   UNL     1       6.800  -3.108   0.580  0.00  0.00    -0.263 N 
BRANCH  12  13
ATOM     13  C   UNL     1       6.133  -2.326   1.531  0.00  0.00    +0.051 A 
ATOM     14  C   UNL     1       5.072  -2.861   2.251  0.00  0.00    +0.026 A 
ATOM     15  C   UNL     1       4.416  -2.087   3.188  0.00  0.00    +0.002 A 
ATOM     16  C   UNL     1       4.814  -0.781   3.410  0.00  0.00    +0.003 A 
ATOM     17  C   UNL     1       5.870  -0.246   2.695  0.00  0.00    -0.048 A 
ATOM     18  C   UNL     1       6.533  -1.017   1.760  0.00  0.00    +0.029 A 
ATOM     19  C   UNL     1       6.301   1.177   2.941  0.00  0.00    +0.044 C 
ENDBRANCH  12  13
ENDBRANCH   1   2
BRANCH   1  20
ATOM     20  N   UNL     1       4.317  -2.634  -1.731  0.00  0.00    -0.293 N 
ATOM     21  C   UNL     1       3.096  -2.522  -1.170  0.00  0.00    +0.216 C 
ATOM     22  O   UNL     1       2.948  -1.852  -0.170  0.00  0.00    -0.276 OA
BRANCH  20  23
ATOM     23  C   UNL     1       4.496  -3.443  -2.939  0.00  0.00    +0.090 C 
BRANCH  23  24
ATOM     24  C   UNL     1       4.290  -2.565  -4.176  0.00  0.00    -0.060 C 
BRANCH  24  27
ATOM     25  C   UNL     1       4.050  -2.635  -6.584  0.00  0.00    -0.097 C 
ATOM     26  C   UNL     1       5.860  -3.835  -5.512  0.00  0.00    -0.097 C 
ATOM     27  N   UNL     1       4.453  -3.400  -5.385  0.00  0.00    +0.377 N 
ATOM     28  H   UNL     1       3.853  -4.229  -5.301  0.00  0.00    -0.083 HD
ENDBRANCH  24  27
ENDBRANCH  23  24
ENDBRANCH  20  23
BRANCH  21  29
ATOM     29  C   UNL     1       1.917  -3.229  -1.785  0.00  0.00    +0.099 C 
BRANCH  29  30
ATOM     30  C   UNL     1       0.661  -2.939  -0.960  0.00  0.00    -0.005 C 
ATOM     31  C   UNL     1       0.329  -1.448  -1.044  0.00  0.00    +0.008 C 
BRANCH  30  32
ATOM     32  C   UNL     1      -0.510  -3.755  -1.511  0.00  0.00    +0.010 C 
BRANCH  32  33
ATOM     33  C   UNL     1      -1.703  -3.641  -0.559  0.00  0.00    -0.037 C 
ATOM     34  C   UNL     1      -2.225  -2.203  -0.565  0.00  0.00    +0.010 C 
ATOM     35  C   UNL     1      -1.263  -4.018   0.857  0.00  0.00    +0.010 C 
ATOM     36  C   UNL     1      -2.813  -4.588  -1.017  0.00  0.00    +0.010 C 
ENDBRANCH  32  33
ENDBRANCH  30  32
ENDBRANCH  29  30
ENDBRANCH  21  29
ENDBRANCH   1  20
BRANCH   1  38
ATOM     37  C   UNL     1       5.063   0.164  -2.408  0.00  0.00    +0.006 C 
ATOM     38  C   UNL     1       6.059  -0.968  -2.147  0.00  0.00    +0.027 C 
ENDBRANCH   1  38
TORSDOF 11
