REMARK  Name = ZINC50199165
REMARK  4 active torsions:
REMARK  status: ('A' for Active; 'I' for Inactive)
REMARK    1  A    between atoms: C_2  and  N_19
REMARK    2  A    between atoms: C_6  and  N_7
REMARK    3  A    between atoms: N_7  and  S_8
REMARK    4  A    between atoms: S_8  and  C_11
REMARK                            x       y       z     vdW  Elec       q    Type
REMARK                         _______ _______ _______ _____ _____    ______ ____
ROOT
ATOM      1  C   UNL     1      -0.017   1.383   0.010  0.00  0.00    +0.055 A 
ATOM      2  C   UNL     1       1.177   2.091   0.002  0.00  0.00    +0.062 A 
ATOM      3  C   UNL     1       2.388   1.409  -0.013  0.00  0.00    +0.147 A 
ATOM      4  C   UNL     1       2.405   0.026  -0.021  0.00  0.00    +0.080 A 
ATOM      5  C   UNL     1       1.216  -0.682  -0.014  0.00  0.00    +0.151 A 
ATOM      6  C   UNL     1       0.002  -0.004   0.002  0.00  0.00    +0.111 A 
ATOM      7  F   UNL     1       1.235  -2.033  -0.022  0.00  0.00    -0.203 F 
ATOM      8  F   UNL     1       3.550   2.098  -0.021  0.00  0.00    -0.203 F 
ENDROOT
BRANCH   2   9
ATOM      9  N   UNL     1       1.161   3.491   0.009  0.00  0.00    -0.356 N 
ATOM     10  H   UNL     1       0.315   3.966   0.020  0.00  0.00    +0.142 HD
ATOM     11  H   UNL     1       1.995   3.985   0.004  0.00  0.00    +0.142 HD
ENDBRANCH   2   9
BRANCH   6  12
ATOM     12  N   UNL     1      -1.200  -0.721   0.010  0.00  0.00    -0.099 NA
BRANCH  12  13
ATOM     13  S   UNL     1      -1.177  -2.377   0.001  0.00  0.00    +0.065 S 
ATOM     14  O   UNL     1      -0.581  -2.724  -1.242  0.00  0.00    -0.153 OA
ATOM     15  O   UNL     1      -0.557  -2.737   1.228  0.00  0.00    -0.153 OA
BRANCH  13  16
ATOM     16  C   UNL     1      -2.923  -2.867   0.016  0.00  0.00    +0.157 C 
ATOM     17  C   UNL     1      -3.622  -2.314  -1.230  0.00  0.00    +0.056 C 
ATOM     18  C   UNL     1      -5.074  -2.798  -1.249  0.00  0.00    +0.162 C 
ATOM     19  O   UNL     1      -5.098  -4.227  -1.224  0.00  0.00    -0.380 OA
ATOM     20  C   UNL     1      -4.501  -4.800  -0.059  0.00  0.00    +0.162 C 
ATOM     21  C   UNL     1      -3.026  -4.396   0.009  0.00  0.00    +0.056 C 
ENDBRANCH  13  16
ENDBRANCH  12  13
ENDBRANCH   6  12
TORSDOF 4
