REMARK  Name = ZINC23182437
REMARK  9 active torsions:
REMARK  status: ('A' for Active; 'I' for Inactive)
REMARK    1  A    between atoms: C_1  and  C_2
REMARK    2  A    between atoms: C_2  and  C_4
REMARK    3  A    between atoms: C_2  and  N_24
REMARK    4  A    between atoms: C_4  and  C_6
REMARK    5  A    between atoms: C_4  and  N_11
REMARK    6  A    between atoms: N_14  and  C_17
REMARK    7  A    between atoms: N_24  and  C_25
REMARK    8  A    between atoms: C_25  and  N_27
REMARK    9  A    between atoms: N_27  and  C_28
REMARK                            x       y       z     vdW  Elec       q    Type
REMARK                         _______ _______ _______ _____ _____    ______ ____
ROOT
ATOM      1  C   UNL     1      -7.047   0.817   1.056  0.00  0.00    +0.114 C 
ENDROOT
BRANCH   1   2
ATOM      2  N   UNL     1      -8.357   1.483   1.071  0.00  0.00    -0.290 NA
ATOM      3  C   UNL     1      -8.268   2.806   1.705  0.00  0.00    +0.104 C 
ATOM      4  C   UNL     1      -9.631   3.498   1.629  0.00  0.00    +0.120 C 
ATOM      5  N   UNL     1     -10.639   2.663   2.297  0.00  0.00    -0.325 N 
ATOM      6  C   UNL     1     -10.728   1.340   1.663  0.00  0.00    +0.120 C 
ATOM      7  C   UNL     1      -9.365   0.648   1.740  0.00  0.00    +0.104 C 
BRANCH   5   8
ATOM      8  C   UNL     1     -11.885   3.297   2.311  0.00  0.00    +0.065 A 
ATOM      9  C   UNL     1     -12.959   2.706   2.962  0.00  0.00    +0.026 A 
ATOM     10  C   UNL     1     -14.188   3.337   2.977  0.00  0.00    +0.002 A 
ATOM     11  C   UNL     1     -14.353   4.551   2.337  0.00  0.00    +0.003 A 
ATOM     12  C   UNL     1     -13.287   5.142   1.683  0.00  0.00    +0.040 A 
ATOM     13  C   UNL     1     -12.053   4.518   1.667  0.00  0.00    +0.144 A 
ATOM     14  F   UNL     1     -11.012   5.095   1.027  0.00  0.00    -0.204 F 
ENDBRANCH   5   8
ENDBRANCH   1   2
BRANCH   1  15
ATOM     15  C   UNL     1      -7.158  -0.492   0.318  0.00  0.00    +0.009 A 
ATOM     16  C   UNL     1      -6.590  -1.688   0.611  0.00  0.00    +0.013 A 
ATOM     17  C   UNL     1      -6.834  -2.767  -0.218  0.00  0.00    +0.008 A 
ATOM     18  C   UNL     1      -7.634  -2.597  -1.299  0.00  0.00    +0.045 A 
ATOM     19  S   UNL     1      -8.076  -0.873  -1.165  0.00  0.00    -0.100 S 
ENDBRANCH   1  15
BRANCH   1  21
ATOM     20  C   UNL     1      -6.541   2.078  -1.040  0.00  0.00    +0.030 C 
ATOM     21  C   UNL     1      -6.026   1.714   0.354  0.00  0.00    +0.091 C 
BRANCH  21  22
ATOM     22  N   UNL     1      -4.752   1.002   0.233  0.00  0.00    -0.322 N 
ATOM     23  H   UNL     1      -4.735  -0.098   0.227  0.00  0.00    +0.148 HD
BRANCH  22  24
ATOM     24  C   UNL     1      -3.600   1.695   0.130  0.00  0.00    +0.135 C 
ATOM     25  S   UNL     1      -3.627   3.407   0.140  0.00  0.00    -0.019 S 
BRANCH  24  26
ATOM     26  N   UNL     1      -2.428   1.040   0.019  0.00  0.00    -0.297 N 
ATOM     27  H   UNL     1      -2.417  -0.056  -0.078  0.00  0.00    +0.154 HD
BRANCH  26  28
ATOM     28  C   UNL     1      -1.224   1.753   0.029  0.00  0.00    +0.035 A 
ATOM     29  C   UNL     1      -0.206   1.411  -0.852  0.00  0.00    +0.023 A 
ATOM     30  C   UNL     1       0.980   2.120  -0.845  0.00  0.00    +0.005 A 
ATOM     31  C   UNL     1       1.156   3.167   0.041  0.00  0.00    +0.038 A 
ATOM     32  C   UNL     1       0.145   3.508   0.924  0.00  0.00    +0.125 A 
ATOM     33  C   UNL     1      -1.044   2.801   0.921  0.00  0.00    +0.061 A 
ATOM     34  F   UNL     1       0.320   4.532   1.788  0.00  0.00    -0.205 F 
ENDBRANCH  26  28
ENDBRANCH  24  26
ENDBRANCH  22  24
ENDBRANCH  21  22
ENDBRANCH   1  21
TORSDOF 8
