REMARK  Name = ZINC09723369
REMARK  11 active torsions:
REMARK  status: ('A' for Active; 'I' for Inactive)
REMARK    1  A    between atoms: C_1  and  C_2
REMARK    2  A    between atoms: C_2  and  C_4
REMARK    3  A    between atoms: C_2  and  N_66
REMARK    4  A    between atoms: C_17  and  C_18
REMARK    5  A    between atoms: C_17  and  N_66
REMARK    6  A    between atoms: C_18  and  C_20
REMARK    7  A    between atoms: C_18  and  C_30
REMARK    8  A    between atoms: C_24  and  O_28
REMARK    9  A    between atoms: C_25  and  O_26
REMARK   10  A    between atoms: O_26  and  C_27
REMARK   11  A    between atoms: O_28  and  C_29
REMARK                            x       y       z     vdW  Elec       q    Type
REMARK                         _______ _______ _______ _____ _____    ______ ____
ROOT
ATOM      1  C   UNL     1      -2.492   1.184   2.844  0.00  0.00    +0.038 C 
ENDROOT
BRANCH   1   2
ATOM      2  C   UNL     1      -3.144   2.509   2.544  0.00  0.00    -0.017 A 
ATOM      3  C   UNL     1      -4.095   2.742   1.626  0.00  0.00    +0.087 A 
ATOM      4  N   UNL     1      -4.446   4.064   1.642  0.00  0.00    -0.360 N 
ATOM      5  H   UNL     1      -5.115   4.470   1.070  0.00  0.00    +0.165 HD
ATOM      6  C   UNL     1      -3.703   4.734   2.589  0.00  0.00    +0.047 A 
ATOM      7  C   UNL     1      -2.855   3.789   3.195  0.00  0.00    +0.003 A 
ATOM      8  C   UNL     1      -1.977   4.188   4.205  0.00  0.00    +0.010 A 
ATOM      9  C   UNL     1      -1.946   5.496   4.599  0.00  0.00    +0.001 A 
ATOM     10  C   UNL     1      -2.781   6.432   4.004  0.00  0.00    +0.002 A 
ATOM     11  C   UNL     1      -3.655   6.060   3.006  0.00  0.00    +0.026 A 
ENDBRANCH   1   2
BRANCH   1  12
ATOM     12  C   UNL     1      -3.540   0.198   3.290  0.00  0.00    +0.004 A 
ATOM     13  C   UNL     1      -4.587  -0.128   2.446  0.00  0.00    +0.008 A 
ATOM     14  C   UNL     1      -5.550  -1.032   2.853  0.00  0.00    +0.004 A 
ATOM     15  C   UNL     1      -5.471  -1.615   4.104  0.00  0.00    +0.049 A 
ATOM     16  C   UNL     1      -4.426  -1.293   4.954  0.00  0.00    +0.162 A 
ATOM     17  C   UNL     1      -3.453  -0.387   4.543  0.00  0.00    +0.165 A 
BRANCH  17  18
ATOM     18  O   UNL     1      -2.421  -0.072   5.371  0.00  0.00    -0.491 OA
ATOM     19  C   UNL     1      -2.615   1.031   6.259  0.00  0.00    +0.277 C 
ENDBRANCH  17  18
BRANCH  16  20
ATOM     20  O   UNL     1      -4.347  -1.866   6.185  0.00  0.00    -0.491 OA
ATOM     21  C   UNL     1      -5.377  -2.792   6.537  0.00  0.00    +0.277 C 
ENDBRANCH  16  20
ENDBRANCH   1  12
BRANCH   1  22
ATOM     22  C   UNL     1      -1.801   0.659   1.583  0.00  0.00    -0.069 C 
BRANCH  22  23
ATOM     23  N   UNL     1      -0.698   1.568   1.222  0.00  0.00    +0.387 N 
ATOM     24  H   UNL     1      -1.076   2.507   1.047  0.00  0.00    -0.085 HD
ATOM     25  H   UNL     1      -0.025   1.609   1.997  0.00  0.00    -0.085 HD
BRANCH  23  27
ATOM     26  C   UNL     1      -0.753   1.593  -1.232  0.00  0.00    -0.004 C 
ATOM     27  C   UNL     1      -0.013   1.086   0.008  0.00  0.00    +0.013 C 
BRANCH  27  28
ATOM     28  C   UNL     1       1.401   1.607  -0.003  0.00  0.00    +0.206 C 
ATOM     29  O   UNL     1       1.797   2.305   0.907  0.00  0.00    -0.277 OA
ATOM     30  N   UNL     1       2.226   1.299  -1.023  0.00  0.00    -0.262 N 
ATOM     31  C   UNL     1       1.770   0.455  -2.138  0.00  0.00    +0.209 C 
ATOM     32  C   UNL     1       2.863  -0.520  -2.494  0.00  0.00    +0.235 C 
ATOM     33  O   UNL     1       2.572  -1.599  -2.967  0.00  0.00    -0.274 OA
ATOM     34  N   UNL     1       4.157  -0.209  -2.295  0.00  0.00    -0.283 N 
ATOM     35  C   UNL     1       4.518   1.007  -1.704  0.00  0.00    +0.055 A 
ATOM     36  C   UNL     1       3.545   1.777  -1.059  0.00  0.00    +0.058 A 
ATOM     37  C   UNL     1       3.890   2.974  -0.463  0.00  0.00    +0.025 A 
ATOM     38  C   UNL     1       5.200   3.417  -0.517  0.00  0.00    +0.002 A 
ATOM     39  C   UNL     1       6.162   2.662  -1.161  0.00  0.00    +0.002 A 
ATOM     40  C   UNL     1       5.826   1.459  -1.755  0.00  0.00    +0.025 A 
ATOM     41  H   UNL     1       4.848  -0.835  -2.563  0.00  0.00    +0.155 HD
ENDBRANCH  27  28
ENDBRANCH  23  27
ENDBRANCH  22  23
ENDBRANCH   1  22
TORSDOF 8
