REMARK  Name = ZINC40013602
REMARK  17 active torsions:
REMARK  status: ('A' for Active; 'I' for Inactive)
REMARK    1  A    between atoms: C_1  and  C_2
REMARK    2  A    between atoms: C_2  and  C_3
REMARK    3  A    between atoms: C_3  and  C_4
REMARK    4  A    between atoms: C_4  and  N_5
REMARK    5  A    between atoms: N_5  and  C_6
REMARK    6  A    between atoms: N_5  and  C_10
REMARK    7  A    between atoms: C_6  and  C_7
REMARK    8  A    between atoms: C_7  and  C_8
REMARK    9  A    between atoms: C_8  and  C_9
REMARK   10  A    between atoms: C_10  and  C_11
REMARK   11  A    between atoms: C_11  and  C_12
REMARK   12  A    between atoms: C_12  and  N_13
REMARK   13  A    between atoms: C_14  and  C_31
REMARK   14  A    between atoms: C_21  and  C_30
REMARK   15  A    between atoms: C_22  and  C_29
REMARK   16  A    between atoms: C_34  and  S_37
REMARK   17  A    between atoms: S_37  and  C_38
REMARK                            x       y       z     vdW  Elec       q    Type
REMARK                         _______ _______ _______ _____ _____    ______ ____
ROOT
ATOM      1  N   UNL     1      -5.740  -6.688   0.099  0.00  0.00    -0.284 N 
ATOM      2  C   UNL     1      -6.715  -6.825   1.193  0.00  0.00    +0.144 C 
ATOM      3  C   UNL     1      -7.955  -7.374   0.567  0.00  0.00    +0.072 A 
ATOM      4  C   UNL     1      -9.255  -7.729   1.147  0.00  0.00    +0.199 A 
ATOM      5  O   UNL     1      -9.575  -7.449   2.288  0.00  0.00    -0.287 OA
ATOM      6  C   UNL     1     -10.143  -8.461   0.209  0.00  0.00    +0.065 A 
ATOM      7  C   UNL     1     -11.327  -9.041   0.666  0.00  0.00    +0.019 A 
ATOM      8  C   UNL     1     -12.132  -9.717  -0.209  0.00  0.00    -0.047 A 
ATOM      9  C   UNL     1     -11.774  -9.827  -1.545  0.00  0.00    -0.044 A 
ATOM     10  C   UNL     1     -10.611  -9.259  -2.013  0.00  0.00    +0.050 A 
ATOM     11  C   UNL     1      -9.773  -8.563  -1.141  0.00  0.00    +0.140 A 
ATOM     12  O   UNL     1      -8.640  -8.005  -1.624  0.00  0.00    -0.450 OA
ATOM     13  C   UNL     1      -7.713  -7.532  -0.768  0.00  0.00    +0.199 A 
ATOM     14  C   UNL     1      -6.332  -7.098  -1.042  0.00  0.00    +0.283 C 
ATOM     15  O   UNL     1      -5.802  -7.110  -2.135  0.00  0.00    -0.267 OA
ATOM     16  C   UNL     1     -12.671 -10.577  -2.496  0.00  0.00    +0.044 C 
ATOM     17  C   UNL     1     -13.412 -10.345   0.280  0.00  0.00    +0.044 C 
ENDROOT
BRANCH   2  18
ATOM     18  C   UNL     1      -6.995  -5.479   1.811  0.00  0.00    -0.022 A 
ATOM     19  C   UNL     1      -7.119  -4.362   1.006  0.00  0.00    +0.007 A 
ATOM     20  C   UNL     1      -7.375  -3.128   1.569  0.00  0.00    +0.015 A 
ATOM     21  C   UNL     1      -7.508  -3.009   2.947  0.00  0.00    +0.008 A 
ATOM     22  C   UNL     1      -7.383  -4.134   3.753  0.00  0.00    +0.015 A 
ATOM     23  C   UNL     1      -7.133  -5.366   3.183  0.00  0.00    +0.007 A 
BRANCH  21  24
ATOM     24  S   UNL     1      -7.834  -1.435   3.670  0.00  0.00    -0.129 S 
ATOM     25  C   UNL     1      -7.921  -1.780   5.449  0.00  0.00    +0.090 C 
ENDBRANCH  21  24
ENDBRANCH   2  18
BRANCH   1  26
ATOM     26  C   UNL     1      -4.369  -6.189   0.226  0.00  0.00    +0.107 C 
BRANCH  26  27
ATOM     27  C   UNL     1      -4.358  -4.672   0.029  0.00  0.00    +0.000 C 
BRANCH  27  28
ATOM     28  C   UNL     1      -2.926  -4.150   0.162  0.00  0.00    -0.077 C 
BRANCH  28  29
ATOM     29  N   UNL     1      -2.897  -2.715  -0.150  0.00  0.00    +0.380 N 
ATOM     30  H   UNL     1      -3.300  -2.561  -1.062  0.00  0.00    -0.082 HD
BRANCH  29  31
ATOM     31  C   UNL     1      -3.671  -1.978   0.858  0.00  0.00    -0.079 C 
BRANCH  31  32
ATOM     32  C   UNL     1      -3.745  -0.501   0.465  0.00  0.00    -0.019 C 
BRANCH  32  34
ATOM     33  C   UNL     1      -4.626   1.742   1.122  0.00  0.00    +0.004 C 
ATOM     34  C   UNL     1      -4.552   0.266   1.515  0.00  0.00    -0.005 C 
ENDBRANCH  32  34
ENDBRANCH  31  32
ENDBRANCH  29  31
BRANCH  29  35
ATOM     35  C   UNL     1      -1.507  -2.240  -0.143  0.00  0.00    -0.079 C 
BRANCH  35  36
ATOM     36  C   UNL     1      -0.739  -2.891  -1.295  0.00  0.00    -0.019 C 
BRANCH  36  37
ATOM     37  C   UNL     1       0.727  -2.458  -1.241  0.00  0.00    -0.005 C 
ATOM     38  C   UNL     1       1.494  -3.108  -2.394  0.00  0.00    +0.004 C 
ENDBRANCH  36  37
ENDBRANCH  35  36
ENDBRANCH  29  35
ENDBRANCH  28  29
ENDBRANCH  27  28
ENDBRANCH  26  27
ENDBRANCH   1  26
TORSDOF 12
