REMARK  Name = ZINC12953562
REMARK  10 active torsions:
REMARK  status: ('A' for Active; 'I' for Inactive)
REMARK    1  A    between atoms: C_1  and  C_2
REMARK    2  A    between atoms: C_3  and  C_24
REMARK    3  A    between atoms: C_5  and  C_14
REMARK    4  A    between atoms: N_6  and  C_7
REMARK    5  A    between atoms: C_17  and  S_20
REMARK    6  A    between atoms: S_20  and  C_23
REMARK    7  A    between atoms: C_24  and  C_35
REMARK    8  A    between atoms: N_25  and  O_26
REMARK    9  A    between atoms: O_26  and  C_27
REMARK   10  A    between atoms: C_27  and  C_29
REMARK                            x       y       z     vdW  Elec       q    Type
REMARK                         _______ _______ _______ _____ _____    ______ ____
ROOT
ATOM      1  C   UNL     1      -3.555   5.245   7.928  0.00  0.00    +0.064 C 
ATOM      2  C   UNL     1      -3.353   4.096   6.975  0.00  0.00    +0.031 A 
ATOM      3  C   UNL     1      -3.954   2.859   7.061  0.00  0.00    +0.030 A 
ATOM      4  C   UNL     1      -3.482   2.090   5.967  0.00  0.00    +0.038 A 
ATOM      5  C   UNL     1      -2.624   2.874   5.263  0.00  0.00    +0.055 A 
ATOM      6  N   UNL     1      -2.543   4.098   5.884  0.00  0.00    -0.313 N 
ENDROOT
BRANCH   6   7
ATOM      7  C   UNL     1      -1.753   5.175   5.459  0.00  0.00    +0.047 A 
ATOM      8  C   UNL     1      -0.369   5.095   5.536  0.00  0.00    +0.029 A 
ATOM      9  C   UNL     1       0.407   6.156   5.111  0.00  0.00    +0.040 A 
ATOM     10  C   UNL     1      -0.194   7.302   4.619  0.00  0.00    +0.124 A 
ATOM     11  C   UNL     1      -1.574   7.385   4.547  0.00  0.00    +0.040 A 
ATOM     12  C   UNL     1      -2.354   6.325   4.965  0.00  0.00    +0.029 A 
ATOM     13  F   UNL     1       0.567   8.340   4.210  0.00  0.00    -0.205 F 
ENDBRANCH   6   7
BRANCH   5  14
ATOM     14  C   UNL     1      -1.895   2.475   4.040  0.00  0.00    -0.001 A 
ATOM     15  C   UNL     1      -1.419   3.448   3.160  0.00  0.00    +0.012 A 
ATOM     16  C   UNL     1      -0.739   3.070   2.020  0.00  0.00    +0.027 A 
ATOM     17  C   UNL     1      -0.530   1.730   1.749  0.00  0.00    +0.088 A 
ATOM     18  C   UNL     1      -1.005   0.760   2.614  0.00  0.00    +0.027 A 
ATOM     19  C   UNL     1      -1.681   1.125   3.760  0.00  0.00    +0.012 A 
BRANCH  17  20
ATOM     20  S   UNL     1       0.339   1.255   0.291  0.00  0.00    -0.006 S 
ATOM     21  O   UNL     1       0.131   2.326  -0.620  0.00  0.00    -0.170 OA
ATOM     22  O   UNL     1      -0.137  -0.051  -0.005  0.00  0.00    -0.170 OA
ATOM     23  C   UNL     1       2.082   1.187   0.789  0.00  0.00    +0.200 C 
ENDBRANCH  17  20
ENDBRANCH   5  14
BRANCH   3  24
ATOM     24  C   UNL     1      -4.907   2.418   8.095  0.00  0.00    +0.192 C 
ATOM     25  N   UNL     1      -6.126   2.127   7.770  0.00  0.00    -0.069 NA
BRANCH  24  26
ATOM     26  C   UNL     1      -4.462   2.306   9.531  0.00  0.00    +0.438 C 
ATOM     27  F   UNL     1      -5.534   1.873  10.318  0.00  0.00    -0.164 F 
ATOM     28  F   UNL     1      -3.413   1.385   9.623  0.00  0.00    -0.164 F 
ATOM     29  F   UNL     1      -4.027   3.556   9.983  0.00  0.00    -0.164 F 
ENDBRANCH  24  26
BRANCH  25  30
ATOM     30  O   UNL     1      -6.462   2.131   6.599  0.00  0.00    -0.311 OA
BRANCH  30  31
ATOM     31  C   UNL     1      -7.766   1.921   6.336  0.00  0.00    +0.366 C 
ATOM     32  O   UNL     1      -8.563   1.833   7.249  0.00  0.00    -0.243 OA
BRANCH  31  33
ATOM     33  C   UNL     1      -8.227   1.800   4.938  0.00  0.00    +0.061 A 
ATOM     34  C   UNL     1      -7.302   1.798   3.892  0.00  0.00    +0.015 A 
ATOM     35  C   UNL     1      -7.739   1.679   2.589  0.00  0.00    +0.001 A 
ATOM     36  C   UNL     1      -9.092   1.572   2.317  0.00  0.00    +0.000 A 
ATOM     37  C   UNL     1     -10.014   1.579   3.348  0.00  0.00    +0.001 A 
ATOM     38  C   UNL     1      -9.590   1.692   4.656  0.00  0.00    +0.015 A 
ENDBRANCH  31  33
ENDBRANCH  30  31
ENDBRANCH  25  30
ENDBRANCH   3  24
TORSDOF 8
