REMARK  Name = ZINC63253382
REMARK  13 active torsions:
REMARK  status: ('A' for Active; 'I' for Inactive)
REMARK    1  A    between atoms: C_1  and  C_2
REMARK    2  A    between atoms: C_5  and  C_12
REMARK    3  A    between atoms: C_6  and  C_11
REMARK    4  A    between atoms: N_7  and  C_8
REMARK    5  A    between atoms: C_8  and  C_9
REMARK    6  A    between atoms: C_12  and  C_14
REMARK    7  A    between atoms: C_14  and  O_15
REMARK    8  A    between atoms: O_15  and  C_16
REMARK    9  A    between atoms: C_16  and  C_18
REMARK   10  A    between atoms: C_18  and  C_20
REMARK   11  A    between atoms: C_18  and  N_30
REMARK   12  A    between atoms: C_20  and  C_21
REMARK   13  A    between atoms: C_31  and  C_33
REMARK                            x       y       z     vdW  Elec       q    Type
REMARK                         _______ _______ _______ _____ _____    ______ ____
ROOT
ATOM      1  C   UNL     1       4.548  -3.376  -5.874  0.00  0.00    +0.186 C 
ENDROOT
BRANCH   1   2
ATOM      2  N   UNL     1       4.528  -2.934  -7.271  0.00  0.00    -0.298 N 
ATOM      3  C   UNL     1       3.418  -3.106  -8.016  0.00  0.00    +0.251 C 
ATOM      4  O   UNL     1       2.433  -3.628  -7.529  0.00  0.00    -0.270 OA
ATOM      5  H   UNL     1       5.313  -2.518  -7.659  0.00  0.00    +0.150 HD
BRANCH   3   6
ATOM      6  C   UNL     1       3.398  -2.663  -9.413  0.00  0.00    +0.074 A 
ATOM      7  C   UNL     1       2.369  -2.740 -10.340  0.00  0.00    +0.021 A 
ATOM      8  C   UNL     1       2.651  -2.236 -11.587  0.00  0.00    +0.008 A 
ATOM      9  C   UNL     1       3.878  -1.712 -11.825  0.00  0.00    +0.046 A 
ATOM     10  S   UNL     1       4.688  -1.879 -10.362  0.00  0.00    -0.092 S 
ENDBRANCH   3   6
ENDBRANCH   1   2
BRANCH   1  11
ATOM     11  C   UNL     1       3.475  -2.651  -5.102  0.00  0.00    +0.328 C 
ATOM     12  O   UNL     1       2.551  -2.139  -5.688  0.00  0.00    -0.249 OA
BRANCH  11  13
ATOM     13  O   UNL     1       3.547  -2.575  -3.764  0.00  0.00    -0.455 OA
BRANCH  13  14
ATOM     14  C   UNL     1       2.496  -1.873  -3.098  0.00  0.00    +0.311 C 
BRANCH  14  15
ATOM     15  C   UNL     1       2.744  -1.891  -1.611  0.00  0.00    +0.198 C 
ATOM     16  O   UNL     1       3.726  -2.451  -1.166  0.00  0.00    -0.289 OA
BRANCH  15  20
ATOM     17  C   UNL     1       0.031   1.529   0.307  0.00  0.00    +0.028 C 
ATOM     18  C   UNL     1       0.022   0.004   0.184  0.00  0.00    +0.075 C 
ATOM     19  C   UNL     1       0.645  -0.432  -1.156  0.00  0.00    +0.062 C 
ATOM     20  C   UNL     1       1.841  -1.261  -0.742  0.00  0.00    +0.017 C 
ATOM     21  C   UNL     1       1.891  -1.292   0.605  0.00  0.00    +0.011 C 
ATOM     22  N   UNL     1       0.892  -0.598   1.204  0.00  0.00    -0.326 N 
ATOM     23  C   UNL     1       2.957  -2.029   1.374  0.00  0.00    +0.061 C 
BRANCH  22  24
ATOM     24  C   UNL     1       0.706  -0.466   2.651  0.00  0.00    +0.131 C 
BRANCH  24  25
ATOM     25  C   UNL     1      -0.169  -1.587   3.150  0.00  0.00    -0.016 C 
ATOM     26  C   UNL     1       0.251  -2.365   4.117  0.00  0.00    +0.005 C 
ENDBRANCH  24  25
ENDBRANCH  22  24
ENDBRANCH  15  20
ENDBRANCH  14  15
ENDBRANCH  13  14
ENDBRANCH  11  13
ENDBRANCH   1  11
BRANCH   1  27
ATOM     27  C   UNL     1       4.290  -4.883  -5.812  0.00  0.00    +0.067 C 
BRANCH  27  28
ATOM     28  C   UNL     1       5.427  -5.615  -6.479  0.00  0.00    -0.039 C 
ATOM     29  C   UNL     1       6.515  -6.146  -5.877  0.00  0.00    -0.001 A 
ATOM     30  C   UNL     1       6.950  -6.200  -4.476  0.00  0.00    +0.010 A 
ATOM     31  C   UNL     1       8.116  -6.816  -4.174  0.00  0.00    +0.001 A 
ATOM     32  C   UNL     1       8.918  -7.402  -5.163  0.00  0.00    +0.002 A 
ATOM     33  C   UNL     1       8.585  -7.393  -6.471  0.00  0.00    +0.026 A 
ATOM     34  C   UNL     1       7.379  -6.774  -6.902  0.00  0.00    +0.043 A 
ATOM     35  N   UNL     1       6.846  -6.635  -8.092  0.00  0.00    -0.380 N 
ATOM     36  C   UNL     1       5.579  -5.908  -7.954  0.00  0.00    +0.144 C 
ATOM     37  H   UNL     1       7.224  -6.961  -8.923  0.00  0.00    +0.160 HD
ENDBRANCH  27  28
ENDBRANCH   1  27
TORSDOF 11
