REMARK  Name = ZINC06131110
REMARK  5 active torsions:
REMARK  status: ('A' for Active; 'I' for Inactive)
REMARK    1  A    between atoms: C_4  and  N_7
REMARK    2  A    between atoms: N_10  and  C_11
REMARK    3  A    between atoms: C_21  and  O_23
REMARK    4  A    between atoms: O_23  and  C_24
REMARK    5  A    between atoms: N_26  and  C_27
REMARK                            x       y       z     vdW  Elec       q    Type
REMARK                         _______ _______ _______ _____ _____    ______ ____
ROOT
ATOM      1  C   UNL     1      -0.018   1.461   0.010  0.00  0.00    +0.131 C 
ATOM      2  C   UNL     1       1.421   2.021  -0.001  0.00  0.00    +0.185 C 
ATOM      3  O   UNL     1       1.352   3.200  -0.829  0.00  0.00    -0.368 OA
ATOM      4  C   UNL     1       0.492   2.849  -1.933  0.00  0.00    +0.192 C 
ATOM      5  C   UNL     1      -0.644   2.000  -1.294  0.00  0.00    +0.173 C 
ATOM      6  O   UNL     1      -1.669   2.955  -0.954  0.00  0.00    -0.368 OA
ATOM      7  C   UNL     1      -1.708   3.890  -2.053  0.00  0.00    +0.207 C 
ATOM      8  C   UNL     1      -0.227   4.122  -2.425  0.00  0.00    +0.235 C 
ENDROOT
BRANCH   1  12
ATOM      9  N   UNL     1       0.113  -2.031   1.155  0.00  0.00    -0.297 N 
ATOM     10  C   UNL     1       0.095  -0.683   1.163  0.00  0.00    +0.300 C 
ATOM     11  O   UNL     1       0.161  -0.080   2.216  0.00  0.00    -0.253 OA
ATOM     12  N   UNL     1       0.002  -0.004   0.002  0.00  0.00    -0.292 N 
ATOM     13  H   UNL     1       0.052  -2.576   0.202  0.00  0.00    +0.151 HD
ATOM     14  H   UNL     1      -0.058  -0.550  -0.951  0.00  0.00    +0.151 HD
BRANCH   9  18
ATOM     15  C   UNL     1       1.185  -5.063   3.958  0.00  0.00    +0.000 C 
ATOM     16  C   UNL     1      -0.286  -4.934   3.558  0.00  0.00    +0.002 C 
ATOM     17  C   UNL     1      -0.391  -4.163   2.241  0.00  0.00    +0.022 C 
ATOM     18  C   UNL     1       0.213  -2.769   2.417  0.00  0.00    +0.074 C 
ATOM     19  C   UNL     1       1.685  -2.897   2.817  0.00  0.00    +0.022 C 
ATOM     20  C   UNL     1       1.789  -3.668   4.134  0.00  0.00    +0.002 C 
ENDBRANCH   9  18
ENDBRANCH   1  12
BRANCH   8  21
ATOM     21  O   UNL     1       0.290   5.294  -1.743  0.00  0.00    -0.442 OA
BRANCH  21  22
ATOM     22  C   UNL     1       0.267   6.457  -2.421  0.00  0.00    +0.401 C 
ATOM     23  O   UNL     1      -0.174   6.492  -3.553  0.00  0.00    -0.226 OA
ATOM     24  N   UNL     1       0.733   7.583  -1.845  0.00  0.00    -0.278 N 
ATOM     25  H   UNL     1       1.132   7.552  -0.821  0.00  0.00    +0.152 HD
BRANCH  24  26
ATOM     26  C   UNL     1       0.707   8.848  -2.583  0.00  0.00    +0.076 C 
ATOM     27  C   UNL     1       1.957   8.954  -3.458  0.00  0.00    +0.022 C 
ATOM     28  C   UNL     1       1.930  10.275  -4.229  0.00  0.00    +0.002 C 
ATOM     29  C   UNL     1       1.900  11.442  -3.240  0.00  0.00    +0.000 C 
ATOM     30  C   UNL     1       0.650  11.336  -2.365  0.00  0.00    +0.002 C 
ATOM     31  C   UNL     1       0.677  10.015  -1.594  0.00  0.00    +0.022 C 
ENDBRANCH  24  26
ENDBRANCH  21  22
ENDBRANCH   8  21
TORSDOF 5
