REMARK  Name = ZINC44793199
REMARK  11 active torsions:
REMARK  status: ('A' for Active; 'I' for Inactive)
REMARK    1  A    between atoms: C_1  and  C_2
REMARK    2  A    between atoms: C_2  and  C_3
REMARK    3  A    between atoms: C_3  and  N_4
REMARK    4  A    between atoms: C_5  and  S_7
REMARK    5  A    between atoms: S_7  and  C_8
REMARK    6  A    between atoms: C_8  and  C_9
REMARK    7  A    between atoms: C_10  and  C_22
REMARK    8  A    between atoms: C_11  and  C_17
REMARK    9  A    between atoms: C_22  and  O_24
REMARK   10  A    between atoms: O_24  and  C_25
REMARK   11  A    between atoms: C_25  and  C_26
REMARK                            x       y       z     vdW  Elec       q    Type
REMARK                         _______ _______ _______ _____ _____    ______ ____
ROOT
ATOM      1  C   UNL     1       2.362  -6.273  -4.023  0.00  0.00    +0.034 C 
ATOM      2  C   UNL     1       1.424  -6.929  -4.739  0.00  0.00    +0.082 C 
ATOM      3  C   UNL     1       1.468  -8.443  -4.740  0.00  0.00    +0.179 C 
ATOM      4  N   UNL     1       2.538  -9.080  -3.954  0.00  0.00    -0.285 N 
ATOM      5  C   UNL     1       3.403  -8.288  -3.289  0.00  0.00    +0.304 C 
ATOM      6  O   UNL     1       4.290  -8.804  -2.637  0.00  0.00    -0.252 OA
ATOM      7  N   UNL     1       3.321  -6.952  -3.328  0.00  0.00    -0.272 N 
ATOM      8  H   UNL     1       2.619 -10.046  -3.915  0.00  0.00    +0.151 HD
ATOM      9  H   UNL     1       3.976  -6.439  -2.830  0.00  0.00    +0.156 HD
ENDROOT
BRANCH   3  10
ATOM     10  C   UNL     1       1.606  -8.903  -6.168  0.00  0.00    +0.130 A 
ATOM     11  C   UNL     1       0.607  -9.350  -6.951  0.00  0.00    +0.047 A 
ATOM     12  C   UNL     1       1.179  -9.672  -8.203  0.00  0.00    +0.041 A 
ATOM     13  C   UNL     1       2.494  -9.402  -8.111  0.00  0.00    +0.195 A 
ATOM     14  O   UNL     1       2.745  -8.931  -6.878  0.00  0.00    -0.466 OA
ENDBRANCH   3  10
BRANCH   2  15
ATOM     15  C   UNL     1       0.433  -6.226  -5.464  0.00  0.00    +0.339 C 
ATOM     16  O   UNL     1      -0.690  -6.115  -5.009  0.00  0.00    -0.245 OA
BRANCH  15  17
ATOM     17  O   UNL     1       0.733  -5.678  -6.660  0.00  0.00    -0.462 OA
BRANCH  17  18
ATOM     18  C   UNL     1      -0.316  -4.983  -7.337  0.00  0.00    +0.229 C 
ATOM     19  C   UNL     1       0.209  -4.436  -8.666  0.00  0.00    +0.048 C 
ENDBRANCH  17  18
ENDBRANCH  15  17
ENDBRANCH   2  15
BRANCH   1  20
ATOM     20  C   UNL     1       2.354  -4.766  -3.995  0.00  0.00    +0.128 C 
BRANCH  20  21
ATOM     21  S   UNL     1       1.705  -4.194  -2.400  0.00  0.00    -0.087 S 
BRANCH  21  23
ATOM     22  N   UNL     1       1.355  -1.701  -1.526  0.00  0.00    -0.368 N 
ATOM     23  C   UNL     1       1.759  -2.437  -2.523  0.00  0.00    +0.126 C 
ATOM     24  N   UNL     1       2.229  -1.842  -3.671  0.00  0.00    -0.339 N 
ATOM     25  H   UNL     1       2.259  -0.875  -3.739  0.00  0.00    +0.144 HD
ATOM     26  H   UNL     1       2.530  -2.390  -4.413  0.00  0.00    +0.144 HD
ATOM     27  H   UNL     1       1.024  -2.120  -0.717  0.00  0.00    +0.161 HD
BRANCH  22  28
ATOM     28  C   UNL     1       1.400  -0.240  -1.628  0.00  0.00    +0.114 C 
BRANCH  28  30
ATOM     29  C   UNL     1       0.920   1.904  -0.439  0.00  0.00    +0.005 C 
ATOM     30  C   UNL     1       0.873   0.378  -0.332  0.00  0.00    +0.018 C 
ENDBRANCH  28  30
ENDBRANCH  22  28
ENDBRANCH  21  23
ENDBRANCH  20  21
ENDBRANCH   1  20
TORSDOF 9
