REMARK  Name = ZINC23669470
REMARK  10 active torsions:
REMARK  status: ('A' for Active; 'I' for Inactive)
REMARK    1  A    between atoms: C_1  and  C_2
REMARK    2  A    between atoms: N_4  and  C_5
REMARK    3  A    between atoms: C_8  and  C_11
REMARK    4  A    between atoms: C_12  and  C_13
REMARK    5  A    between atoms: N_15  and  C_16
REMARK    6  A    between atoms: C_16  and  C_17
REMARK    7  A    between atoms: C_20  and  C_23
REMARK    8  A    between atoms: C_23  and  S_24
REMARK    9  A    between atoms: S_24  and  N_27
REMARK   10  A    between atoms: N_27  and  C_28
REMARK                            x       y       z     vdW  Elec       q    Type
REMARK                         _______ _______ _______ _____ _____    ______ ____
ROOT
ATOM      1  C   UNL     1      -1.970   9.537   3.577  0.00  0.00    +0.237 C 
ATOM      2  O   UNL     1      -1.468  10.400   2.881  0.00  0.00    -0.271 OA
ATOM      3  N   UNL     1      -1.956   8.251   3.172  0.00  0.00    -0.308 N 
ATOM      4  H   UNL     1      -2.409   7.471   3.801  0.00  0.00    +0.149 HD
ENDROOT
BRANCH   1   6
ATOM      5  C   UNL     1      -2.604  11.182   5.258  0.00  0.00    +0.013 C 
ATOM      6  C   UNL     1      -2.590   9.895   4.853  0.00  0.00    +0.068 C 
BRANCH   5  10
ATOM      7  C   UNL     1      -4.402  12.220   8.957  0.00  0.00    +0.033 A 
ATOM      8  C   UNL     1      -3.828  13.208   8.164  0.00  0.00    +0.024 A 
ATOM      9  C   UNL     1      -3.243  12.876   6.963  0.00  0.00    +0.010 A 
ATOM     10  C   UNL     1      -3.227  11.542   6.540  0.00  0.00    -0.025 A 
ATOM     11  C   UNL     1      -3.810  10.552   7.340  0.00  0.00    +0.010 A 
ATOM     12  C   UNL     1      -4.388  10.892   8.541  0.00  0.00    +0.024 A 
BRANCH   7  16
ATOM     13  C   UNL     1      -6.153  14.168  11.654  0.00  0.00    +0.109 C 
ATOM     14  C   UNL     1      -5.618  13.748  10.310  0.00  0.00    +0.214 C 
ATOM     15  O   UNL     1      -5.750  14.478   9.350  0.00  0.00    -0.276 OA
ATOM     16  N   UNL     1      -4.993  12.562  10.174  0.00  0.00    -0.286 N 
ATOM     17  H   UNL     1      -4.950  11.863  11.022  0.00  0.00    +0.155 HD
ENDBRANCH   7  16
ENDBRANCH   5  10
ENDBRANCH   1   6
BRANCH   3  18
ATOM     18  C   UNL     1      -1.335   7.893   1.894  0.00  0.00    +0.139 C 
BRANCH  18  19
ATOM     19  C   UNL     1      -1.452   6.406   1.679  0.00  0.00    -0.030 A 
ATOM     20  C   UNL     1      -2.554   5.886   1.025  0.00  0.00    +0.005 A 
ATOM     21  C   UNL     1      -2.661   4.522   0.828  0.00  0.00    +0.005 A 
ATOM     22  C   UNL     1      -1.666   3.678   1.283  0.00  0.00    -0.025 A 
ATOM     23  C   UNL     1      -0.566   4.197   1.940  0.00  0.00    +0.005 A 
ATOM     24  C   UNL     1      -0.457   5.561   2.134  0.00  0.00    +0.005 A 
BRANCH  22  25
ATOM     25  C   UNL     1      -1.782   2.191   1.067  0.00  0.00    +0.220 C 
BRANCH  25  26
ATOM     26  S   UNL     1      -1.015   1.747  -0.516  0.00  0.00    +0.033 S 
ATOM     27  O   UNL     1       0.390   1.945  -0.451  0.00  0.00    -0.158 OA
ATOM     28  O   UNL     1      -1.773   2.280  -1.593  0.00  0.00    -0.158 OA
BRANCH  26  29
ATOM     29  N   UNL     1      -1.206   0.107  -0.636  0.00  0.00    -0.197 NA
ATOM     30  C   UNL     1      -2.549  -0.468  -0.747  0.00  0.00    +0.127 C 
ATOM     31  H   UNL     1      -0.339  -0.549  -0.467  0.00  0.00    +0.147 HD
ENDBRANCH  26  29
ENDBRANCH  25  26
ENDBRANCH  22  25
ENDBRANCH  18  19
ENDBRANCH   3  18
TORSDOF 8
