REMARK  Name = ZINC35068442
REMARK  16 active torsions:
REMARK  status: ('A' for Active; 'I' for Inactive)
REMARK    1  A    between atoms: C_1  and  C_2
REMARK    2  A    between atoms: C_2  and  C_3
REMARK    3  A    between atoms: C_3  and  C_5
REMARK    4  A    between atoms: C_3  and  N_24
REMARK    5  A    between atoms: N_15  and  C_16
REMARK    6  A    between atoms: C_19  and  O_22
REMARK    7  A    between atoms: O_22  and  C_23
REMARK    8  A    between atoms: N_24  and  C_25
REMARK    9  A    between atoms: C_25  and  C_26
REMARK   10  A    between atoms: C_26  and  N_27
REMARK   11  A    between atoms: N_27  and  C_28
REMARK   12  A    between atoms: N_27  and  C_29
REMARK   13  A    between atoms: C_30  and  C_32
REMARK   14  A    between atoms: C_32  and  O_33
REMARK   15  A    between atoms: O_33  and  C_34
REMARK   16  A    between atoms: C_34  and  C_35
REMARK                            x       y       z     vdW  Elec       q    Type
REMARK                         _______ _______ _______ _____ _____    ______ ____
ROOT
ATOM      1  C   UNL     1      -1.537  -0.617  -0.266  0.00  0.00    +0.142 C 
ENDROOT
BRANCH   1   2
ATOM      2  C   UNL     1      -1.510  -2.123  -0.295  0.00  0.00    +0.138 A 
ATOM      3  N   UNL     1      -0.441  -2.712  -0.737  0.00  0.00    -0.231 NA
ATOM      4  C   UNL     1      -0.344  -4.064  -0.791  0.00  0.00    +0.078 A 
ATOM      5  C   UNL     1       0.806  -4.697  -1.266  0.00  0.00    +0.028 A 
ATOM      6  C   UNL     1       0.861  -6.072  -1.303  0.00  0.00    +0.002 A 
ATOM      7  C   UNL     1      -0.215  -6.839  -0.874  0.00  0.00    +0.001 A 
ATOM      8  C   UNL     1      -1.360  -6.238  -0.402  0.00  0.00    +0.015 A 
ATOM      9  C   UNL     1      -1.436  -4.847  -0.356  0.00  0.00    +0.065 A 
ATOM     10  C   UNL     1      -2.632  -4.150   0.138  0.00  0.00    +0.266 A 
ATOM     11  O   UNL     1      -3.607  -4.766   0.528  0.00  0.00    -0.267 OA
ATOM     12  N   UNL     1      -2.606  -2.797   0.148  0.00  0.00    -0.263 N 
BRANCH  12  13
ATOM     13  C   UNL     1      -3.718  -2.083   0.615  0.00  0.00    +0.051 A 
ATOM     14  C   UNL     1      -4.882  -2.039  -0.141  0.00  0.00    +0.030 A 
ATOM     15  C   UNL     1      -5.978  -1.337   0.319  0.00  0.00    +0.047 A 
ATOM     16  C   UNL     1      -5.916  -0.674   1.537  0.00  0.00    +0.120 A 
ATOM     17  C   UNL     1      -4.753  -0.717   2.292  0.00  0.00    +0.047 A 
ATOM     18  C   UNL     1      -3.659  -1.425   1.836  0.00  0.00    +0.030 A 
BRANCH  16  19
ATOM     19  O   UNL     1      -6.995   0.018   1.989  0.00  0.00    -0.495 OA
ATOM     20  C   UNL     1      -6.861   0.677   3.250  0.00  0.00    +0.277 C 
ENDBRANCH  16  19
ENDBRANCH  12  13
ENDBRANCH   1   2
BRANCH   1  21
ATOM     21  N   UNL     1      -2.372  -0.122  -1.364  0.00  0.00    -0.291 N 
ATOM     22  C   UNL     1      -3.393   0.720  -1.107  0.00  0.00    +0.242 C 
ATOM     23  O   UNL     1      -3.620   1.068   0.032  0.00  0.00    -0.273 OA
BRANCH  21  24
ATOM     24  C   UNL     1      -2.097  -0.543  -2.740  0.00  0.00    +0.090 C 
BRANCH  24  25
ATOM     25  C   UNL     1      -2.992  -1.731  -3.098  0.00  0.00    -0.060 C 
BRANCH  25  26
ATOM     26  N   UNL     1      -2.627  -2.235  -4.429  0.00  0.00    +0.377 N 
ATOM     27  C   UNL     1      -3.402  -3.448  -4.723  0.00  0.00    -0.097 C 
ATOM     28  C   UNL     1      -2.921  -1.209  -5.438  0.00  0.00    -0.097 C 
ATOM     29  H   UNL     1      -1.642  -2.453  -4.448  0.00  0.00    -0.083 HD
ENDBRANCH  25  26
ENDBRANCH  24  25
ENDBRANCH  21  24
BRANCH  22  30
ATOM     30  C   UNL     1      -4.252   1.228  -2.236  0.00  0.00    +0.256 C 
BRANCH  30  31
ATOM     31  O   UNL     1      -5.258   2.098  -1.715  0.00  0.00    -0.366 OA
BRANCH  31  32
ATOM     32  C   UNL     1      -6.132   2.639  -2.709  0.00  0.00    +0.195 C 
BRANCH  32  33
ATOM     33  C   UNL     1      -7.147   3.536  -2.050  0.00  0.00    -0.022 A 
ATOM     34  C   UNL     1      -8.347   3.012  -1.605  0.00  0.00    +0.006 A 
ATOM     35  C   UNL     1      -9.279   3.836  -1.001  0.00  0.00    +0.000 A 
ATOM     36  C   UNL     1      -9.011   5.183  -0.842  0.00  0.00    +0.000 A 
ATOM     37  C   UNL     1      -7.811   5.706  -1.287  0.00  0.00    +0.000 A 
ATOM     38  C   UNL     1      -6.878   4.882  -1.887  0.00  0.00    +0.006 A 
ENDBRANCH  32  33
ENDBRANCH  31  32
ENDBRANCH  30  31
ENDBRANCH  22  30
ENDBRANCH   1  21
BRANCH   1  40
ATOM     39  C   UNL     1      -0.124   1.444  -0.263  0.00  0.00    +0.006 C 
ATOM     40  C   UNL     1      -0.114  -0.078  -0.425  0.00  0.00    +0.027 C 
ENDBRANCH   1  40
TORSDOF 12
