REMARK  Name = ZINC40707746
REMARK  8 active torsions:
REMARK  status: ('A' for Active; 'I' for Inactive)
REMARK    1  A    between atoms: C_1  and  C_2
REMARK    2  A    between atoms: C_2  and  C_3
REMARK    3  A    between atoms: C_3  and  N_4
REMARK    4  A    between atoms: C_6  and  N_25
REMARK    5  A    between atoms: C_7  and  N_11
REMARK    6  A    between atoms: N_11  and  N_12
REMARK    7  A    between atoms: N_12  and  C_13
REMARK    8  A    between atoms: N_12  and  C_19
REMARK                            x       y       z     vdW  Elec       q    Type
REMARK                         _______ _______ _______ _____ _____    ______ ____
ROOT
ATOM      1  N   UNL     1       0.161  -9.587   1.202  0.00  0.00    -0.327 N 
ATOM      2  C   UNL     1      -0.922  -9.133   0.459  0.00  0.00    +0.145 A 
ATOM      3  C   UNL     1      -1.944  -8.404   1.067  0.00  0.00    +0.105 A 
ATOM      4  C   UNL     1      -3.009  -7.973   0.275  0.00  0.00    +0.139 A 
ATOM      5  N   UNL     1      -3.009  -8.271  -1.023  0.00  0.00    -0.332 N 
ATOM      6  C   UNL     1      -2.024  -8.963  -1.558  0.00  0.00    +0.200 A 
ATOM      7  N   UNL     1      -0.998  -9.384  -0.846  0.00  0.00    -0.221 NA
ATOM      8  H   UNL     1       0.209  -9.400   2.153  0.00  0.00    +0.148 HD
ATOM      9  H   UNL     1      -3.745  -7.976  -1.581  0.00  0.00    +0.168 HD
ENDROOT
BRANCH   3  10
ATOM     10  N   UNL     1      -1.903  -8.112   2.441  0.00  0.00    -0.353 N 
ATOM     11  H   UNL     1      -1.157  -8.418   2.980  0.00  0.00    +0.143 HD
ATOM     12  H   UNL     1      -2.621  -7.604   2.850  0.00  0.00    +0.143 HD
ENDBRANCH   3  10
BRANCH   4  13
ATOM     13  N   UNL     1      -4.053  -7.243   0.831  0.00  0.00    -0.243 N 
ATOM     14  H   UNL     1      -4.046  -7.030   1.777  0.00  0.00    +0.172 HD
BRANCH  13  15
ATOM     15  N   UNL     1      -5.116  -6.816   0.025  0.00  0.00    -0.221 N 
BRANCH  15  16
ATOM     16  C   UNL     1      -6.353  -7.461   0.100  0.00  0.00    +0.053 A 
ATOM     17  C   UNL     1      -6.433  -8.836  -0.080  0.00  0.00    +0.025 A 
ATOM     18  C   UNL     1      -7.657  -9.471  -0.005  0.00  0.00    +0.002 A 
ATOM     19  C   UNL     1      -8.803  -8.739   0.248  0.00  0.00    +0.000 A 
ATOM     20  C   UNL     1      -8.727  -7.370   0.427  0.00  0.00    +0.002 A 
ATOM     21  C   UNL     1      -7.505  -6.730   0.360  0.00  0.00    +0.025 A 
ENDBRANCH  15  16
BRANCH  15  22
ATOM     22  C   UNL     1      -4.940  -5.744  -0.854  0.00  0.00    +0.053 A 
ATOM     23  C   UNL     1      -3.777  -4.985  -0.802  0.00  0.00    +0.025 A 
ATOM     24  C   UNL     1      -3.606  -3.927  -1.673  0.00  0.00    +0.002 A 
ATOM     25  C   UNL     1      -4.590  -3.622  -2.595  0.00  0.00    +0.000 A 
ATOM     26  C   UNL     1      -5.749  -4.375  -2.649  0.00  0.00    +0.002 A 
ATOM     27  C   UNL     1      -5.924  -5.439  -1.786  0.00  0.00    +0.025 A 
ENDBRANCH  15  22
ENDBRANCH  13  15
ENDBRANCH   4  13
BRANCH   1  28
ATOM     28  C   UNL     1       1.231 -10.346   0.550  0.00  0.00    +0.103 C 
BRANCH  28  30
ATOM     29  C   UNL     1       3.410 -11.515   0.905  0.00  0.00    +0.005 C 
ATOM     30  C   UNL     1       2.293 -10.722   1.585  0.00  0.00    +0.015 C 
ENDBRANCH  28  30
ENDBRANCH   1  28
TORSDOF 7
