REMARK  Name = ZINC09086706
REMARK  8 active torsions:
REMARK  status: ('A' for Active; 'I' for Inactive)
REMARK    1  A    between atoms: C_6  and  C_7
REMARK    2  A    between atoms: C_7  and  C_9
REMARK    3  A    between atoms: C_9  and  N_10
REMARK    4  A    between atoms: N_10  and  C_11
REMARK    5  A    between atoms: N_10  and  S_21
REMARK    6  A    between atoms: C_13  and  N_18
REMARK    7  A    between atoms: C_16  and  N_17
REMARK    8  A    between atoms: S_21  and  C_24
REMARK                            x       y       z     vdW  Elec       q    Type
REMARK                         _______ _______ _______ _____ _____    ______ ____
ROOT
ATOM      1  N   UNL     1       2.083   1.352   0.012  0.00  0.00    -0.198 N 
ENDROOT
BRANCH   1   2
ATOM      2  C   UNL     1       2.476   0.822  -1.223  0.00  0.00    +0.074 A 
ATOM      3  C   UNL     1       3.483   1.436  -1.954  0.00  0.00    +0.059 A 
ATOM      4  C   UNL     1       3.873   0.908  -3.170  0.00  0.00    +0.128 A 
ATOM      5  C   UNL     1       3.256  -0.225  -3.667  0.00  0.00    +0.034 A 
ATOM      6  C   UNL     1       2.248  -0.840  -2.948  0.00  0.00    +0.027 A 
ATOM      7  C   UNL     1       1.854  -0.320  -1.724  0.00  0.00    +0.048 A 
BRANCH   7   8
ATOM      8  N   UNL     1       0.833  -0.942  -0.994  0.00  0.00    -0.356 N 
ATOM      9  H   UNL     1       0.565  -0.583  -0.133  0.00  0.00    +0.142 HD
ATOM     10  H   UNL     1       0.394  -1.731  -1.348  0.00  0.00    +0.142 HD
ENDBRANCH   7   8
BRANCH   4  11
ATOM     11  N   UNL     1       4.952   1.561  -3.946  0.00  0.00    +0.056 N 
ATOM     12  O   UNL     1       5.294   1.101  -5.020  0.00  0.00    -0.126 OA
ATOM     13  O   UNL     1       5.496   2.559  -3.510  0.00  0.00    -0.126 OA
ENDBRANCH   4  11
ENDBRANCH   1   2
BRANCH   1  14
ATOM     14  S   UNL     1       2.430   0.537   1.411  0.00  0.00    +0.051 S 
ATOM     15  O   UNL     1       1.362   0.858   2.292  0.00  0.00    -0.154 OA
ATOM     16  O   UNL     1       2.653  -0.806   1.003  0.00  0.00    -0.154 OA
BRANCH  14  17
ATOM     17  C   UNL     1       3.976   1.273   2.009  0.00  0.00    +0.102 C 
ATOM     18  C   UNL     1       5.117   0.973   1.028  0.00  0.00    +0.013 C 
ATOM     19  C   UNL     1       6.405   1.631   1.579  0.00  0.00    -0.077 C 
ATOM     20  C   UNL     1       5.644   1.339   3.860  0.00  0.00    -0.077 C 
ATOM     21  C   UNL     1       4.343   0.691   3.380  0.00  0.00    +0.013 C 
ATOM     22  C   UNL     1       5.133   3.382   2.663  0.00  0.00    -0.077 C 
ATOM     23  C   UNL     1       3.817   2.792   2.150  0.00  0.00    +0.013 C 
ATOM     24  N   UNL     1       6.135   2.313   2.862  0.00  0.00    +0.380 N 
ATOM     25  H   UNL     1       7.006   2.733   3.206  0.00  0.00    -0.082 HD
ENDBRANCH  14  17
ENDBRANCH   1  14
BRANCH   1  26
ATOM     26  C   UNL     1       1.364   2.627   0.067  0.00  0.00    +0.210 C 
BRANCH  26  27
ATOM     27  C   UNL     1      -0.104   2.388  -0.176  0.00  0.00    +0.182 C 
ATOM     28  O   UNL     1      -0.497   1.277  -0.462  0.00  0.00    -0.290 OA
BRANCH  27  34
ATOM     29  C   UNL     1      -0.608   4.784   0.261  0.00  0.00    +0.013 A 
ATOM     30  C   UNL     1      -1.507   5.825   0.349  0.00  0.00    +0.020 A 
ATOM     31  C   UNL     1      -2.855   5.602   0.120  0.00  0.00    +0.041 A 
ATOM     32  C   UNL     1      -3.309   4.334  -0.206  0.00  0.00    +0.020 A 
ATOM     33  C   UNL     1      -2.421   3.284  -0.305  0.00  0.00    +0.013 A 
ATOM     34  C   UNL     1      -1.058   3.502  -0.074  0.00  0.00    +0.019 A 
ATOM     35 CL   UNL     1      -3.982   6.917   0.241  0.00  0.00    -0.084 Cl
ENDBRANCH  27  34
ENDBRANCH  26  27
ENDBRANCH   1  26
TORSDOF 8
