REMARK  Name = ZINC44875976
REMARK  10 active torsions:
REMARK  status: ('A' for Active; 'I' for Inactive)
REMARK    1  A    between atoms: C_1  and  C_2
REMARK    2  A    between atoms: N_5  and  C_8
REMARK    3  A    between atoms: C_8  and  C_9
REMARK    4  A    between atoms: C_12  and  C_15
REMARK    5  A    between atoms: C_15  and  N_16
REMARK    6  A    between atoms: C_17  and  C_19
REMARK    7  A    between atoms: C_19  and  N_20
REMARK    8  A    between atoms: N_20  and  C_21
REMARK    9  A    between atoms: N_20  and  S_27
REMARK   10  A    between atoms: S_27  and  C_30
REMARK                            x       y       z     vdW  Elec       q    Type
REMARK                         _______ _______ _______ _____ _____    ______ ____
ROOT
ATOM      1  N   UNL     1       1.532  -6.711   9.478  0.00  0.00    -0.310 N 
ATOM      2  C   UNL     1       2.355  -5.864  10.128  0.00  0.00    +0.232 C 
ATOM      3  O   UNL     1       2.846  -6.190  11.188  0.00  0.00    -0.274 OA
ATOM      4  H   UNL     1       1.139  -6.450   8.630  0.00  0.00    +0.149 HD
ENDROOT
BRANCH   1   5
ATOM      5  C   UNL     1       1.232  -8.025  10.052  0.00  0.00    +0.139 C 
BRANCH   5   9
ATOM      6  C   UNL     1      -1.421 -10.140   7.457  0.00  0.00    -0.064 A 
ATOM      7  C   UNL     1      -0.053 -10.264   7.297  0.00  0.00    +0.002 A 
ATOM      8  C   UNL     1       0.805  -9.580   8.137  0.00  0.00    +0.005 A 
ATOM      9  C   UNL     1       0.296  -8.771   9.136  0.00  0.00    -0.030 A 
ATOM     10  C   UNL     1      -1.072  -8.646   9.294  0.00  0.00    +0.005 A 
ATOM     11  C   UNL     1      -1.930  -9.327   8.452  0.00  0.00    +0.002 A 
BRANCH   6  12
ATOM     12  C   UNL     1      -2.357 -10.887   6.541  0.00  0.00    -0.043 C 
BRANCH  12  17
ATOM     13  C   UNL     1      -3.149  -8.590   1.382  0.00  0.00    +0.007 C 
ATOM     14  C   UNL     1      -2.793  -9.550   2.519  0.00  0.00    -0.018 C 
ATOM     15  C   UNL     1      -4.042  -9.837   3.357  0.00  0.00    -0.016 C 
ATOM     16  C   UNL     1      -3.663 -10.734   4.537  0.00  0.00    -0.078 C 
ATOM     17  N   UNL     1      -2.660 -10.057   5.368  0.00  0.00    +0.382 N 
ATOM     18  C   UNL     1      -1.433  -9.843   4.592  0.00  0.00    -0.078 C 
ATOM     19  C   UNL     1      -1.726  -8.912   3.413  0.00  0.00    -0.016 C 
ATOM     20  H   UNL     1      -3.023  -9.166   5.673  0.00  0.00    -0.081 HD
ENDBRANCH  12  17
ENDBRANCH   6  12
ENDBRANCH   5   9
ENDBRANCH   1   5
BRANCH   2  21
ATOM     21  C   UNL     1       2.664  -4.512   9.538  0.00  0.00    +0.227 C 
BRANCH  21  22
ATOM     22  N   UNL     1       3.574  -3.787  10.429  0.00  0.00    -0.194 N 
BRANCH  22  23
ATOM     23  C   UNL     1       4.952  -3.993  10.337  0.00  0.00    +0.052 A 
ATOM     24  C   UNL     1       5.633  -4.619  11.374  0.00  0.00    +0.025 A 
ATOM     25  C   UNL     1       6.995  -4.821  11.281  0.00  0.00    +0.002 A 
ATOM     26  C   UNL     1       7.683  -4.402  10.156  0.00  0.00    +0.000 A 
ATOM     27  C   UNL     1       7.008  -3.780   9.122  0.00  0.00    +0.002 A 
ATOM     28  C   UNL     1       5.644  -3.579   9.207  0.00  0.00    +0.025 A 
ENDBRANCH  22  23
BRANCH  22  29
ATOM     29  S   UNL     1       2.968  -2.723  11.544  0.00  0.00    +0.075 S 
ATOM     30  O   UNL     1       4.051  -1.895  11.945  0.00  0.00    -0.150 OA
ATOM     31  O   UNL     1       1.769  -2.195  10.992  0.00  0.00    -0.150 OA
BRANCH  29  32
ATOM     32  C   UNL     1       2.500  -3.662  12.960  0.00  0.00    +0.109 A 
ATOM     33  C   UNL     1       1.271  -4.294  12.995  0.00  0.00    +0.030 A 
ATOM     34  C   UNL     1       0.904  -5.030  14.105  0.00  0.00    +0.022 A 
ATOM     35  C   UNL     1       1.767  -5.135  15.181  0.00  0.00    +0.041 A 
ATOM     36  C   UNL     1       2.996  -4.502  15.146  0.00  0.00    +0.022 A 
ATOM     37  C   UNL     1       3.365  -3.771  14.033  0.00  0.00    +0.030 A 
ATOM     38 CL   UNL     1       1.306  -6.060  16.577  0.00  0.00    -0.084 Cl
ENDBRANCH  29  32
ENDBRANCH  22  29
ENDBRANCH  21  22
ENDBRANCH   2  21
TORSDOF 9
