REMARK  Name = ZINC08819942
REMARK  13 active torsions:
REMARK  status: ('A' for Active; 'I' for Inactive)
REMARK    1  A    between atoms: C_1  and  O_2
REMARK    2  A    between atoms: O_2  and  C_3
REMARK    3  A    between atoms: C_6  and  C_11
REMARK    4  A    between atoms: C_8  and  O_9
REMARK    5  A    between atoms: O_9  and  C_10
REMARK    6  A    between atoms: N_15  and  C_19
REMARK    7  A    between atoms: C_19  and  C_20
REMARK    8  A    between atoms: C_20  and  C_21
REMARK    9  A    between atoms: C_21  and  C_22
REMARK   10  A    between atoms: C_22  and  C_23
REMARK   11  A    between atoms: C_23  and  C_24
REMARK   12  A    between atoms: N_26  and  C_27
REMARK   13  A    between atoms: C_30  and  N_33
REMARK                            x       y       z     vdW  Elec       q    Type
REMARK                         _______ _______ _______ _____ _____    ______ ____
ROOT
ATOM      1  C   UNL     1       2.055   3.324  -1.312  0.00  0.00    +0.028 C 
ATOM      2  C   UNL     1       1.805   2.014  -1.567  0.00  0.00    +0.077 C 
ATOM      3  C   UNL     1       2.663   0.832  -1.352  0.00  0.00    +0.258 C 
ATOM      4  O   UNL     1       3.780   0.931  -0.880  0.00  0.00    -0.269 OA
ATOM      5  N   UNL     1       2.156  -0.339  -1.698  0.00  0.00    -0.255 N 
ATOM      6  C   UNL     1       0.917  -0.444  -2.220  0.00  0.00    +0.121 C 
ATOM      7  S   UNL     1       0.092  -1.857  -2.725  0.00  0.00    -0.027 S 
ATOM      8  S   UNL     1       0.345   1.247  -2.258  0.00  0.00    -0.061 S 
ENDROOT
BRANCH   1  12
ATOM      9  C   UNL     1      -0.639   6.309  -2.667  0.00  0.00    +0.162 A 
ATOM     10  C   UNL     1       0.396   6.648  -1.805  0.00  0.00    +0.050 A 
ATOM     11  C   UNL     1       1.273   5.682  -1.362  0.00  0.00    +0.012 A 
ATOM     12  C   UNL     1       1.122   4.355  -1.782  0.00  0.00    -0.020 A 
ATOM     13  C   UNL     1       0.081   4.015  -2.655  0.00  0.00    +0.057 A 
ATOM     14  C   UNL     1      -0.796   4.989  -3.090  0.00  0.00    +0.162 A 
BRANCH   9  16
ATOM     15  C   UNL     1      -1.282   8.597  -2.629  0.00  0.00    +0.277 C 
ATOM     16  O   UNL     1      -1.500   7.266  -3.100  0.00  0.00    -0.491 OA
ENDBRANCH   9  16
BRANCH  14  17
ATOM     17  O   UNL     1      -1.810   4.662  -3.935  0.00  0.00    -0.491 OA
ATOM     18  C   UNL     1      -1.911   3.292  -4.327  0.00  0.00    +0.277 C 
ENDBRANCH  14  17
ENDBRANCH   1  12
BRANCH   5  19
ATOM     19  C   UNL     1       2.958  -1.550  -1.509  0.00  0.00    +0.115 C 
BRANCH  19  20
ATOM     20  C   UNL     1       3.784  -1.817  -2.769  0.00  0.00    +0.019 C 
BRANCH  20  21
ATOM     21  C   UNL     1       4.622  -3.082  -2.572  0.00  0.00    +0.002 C 
BRANCH  21  22
ATOM     22  C   UNL     1       5.447  -3.348  -3.833  0.00  0.00    +0.009 C 
BRANCH  22  23
ATOM     23  C   UNL     1       6.285  -4.613  -3.635  0.00  0.00    +0.096 C 
BRANCH  23  24
ATOM     24  C   UNL     1       7.098  -4.876  -4.877  0.00  0.00    +0.217 C 
ATOM     25  O   UNL     1       7.016  -4.125  -5.826  0.00  0.00    -0.275 OA
ATOM     26  N   UNL     1       7.917  -5.944  -4.933  0.00  0.00    -0.285 N 
ATOM     27  H   UNL     1       7.923  -6.589  -4.208  0.00  0.00    +0.155 HD
BRANCH  26  28
ATOM     28  C   UNL     1       8.759  -6.124  -6.036  0.00  0.00    +0.034 A 
ATOM     29  C   UNL     1       9.134  -7.404  -6.423  0.00  0.00    +0.025 A 
ATOM     30  C   UNL     1       9.962  -7.578  -7.516  0.00  0.00    +0.034 A 
ATOM     31  C   UNL     1      10.425  -6.479  -8.216  0.00  0.00    +0.126 A 
ATOM     32  C   UNL     1      10.057  -5.204  -7.830  0.00  0.00    +0.034 A 
ATOM     33  C   UNL     1       9.226  -5.023  -6.742  0.00  0.00    +0.025 A 
BRANCH  31  34
ATOM     34  N   UNL     1      11.315  -6.670  -9.383  0.00  0.00    +0.056 N 
ATOM     35  O   UNL     1      11.723  -5.703 -10.002  0.00  0.00    -0.126 OA
ATOM     36  O   UNL     1      11.640  -7.793  -9.725  0.00  0.00    -0.126 OA
ENDBRANCH  31  34
ENDBRANCH  26  28
ENDBRANCH  23  24
ENDBRANCH  22  23
ENDBRANCH  21  22
ENDBRANCH  20  21
ENDBRANCH  19  20
ENDBRANCH   5  19
TORSDOF 11
