REMARK  Name = ZINC44876326
REMARK  9 active torsions:
REMARK  status: ('A' for Active; 'I' for Inactive)
REMARK    1  A    between atoms: C_1  and  C_2
REMARK    2  A    between atoms: C_2  and  C_3
REMARK    3  A    between atoms: C_3  and  C_4
REMARK    4  A    between atoms: C_4  and  C_6
REMARK    5  A    between atoms: C_4  and  C_10
REMARK    6  A    between atoms: N_7  and  O_8
REMARK    7  A    between atoms: N_12  and  C_13
REMARK    8  A    between atoms: C_13  and  C_15
REMARK    9  A    between atoms: C_13  and  C_16
REMARK                            x       y       z     vdW  Elec       q    Type
REMARK                         _______ _______ _______ _____ _____    ______ ____
ROOT
ATOM      1  C   UNL     1      -2.820  -2.586   0.139  0.00  0.00    +0.224 C 
ATOM      2  O   UNL     1      -3.748  -1.811   0.232  0.00  0.00    -0.275 OA
ATOM      3  N   UNL     1      -3.047  -3.914   0.155  0.00  0.00    -0.308 N 
ATOM      4  H   UNL     1      -2.305  -4.534   0.081  0.00  0.00    +0.149 HD
ENDROOT
BRANCH   3   5
ATOM      5  C   UNL     1      -4.415  -4.422   0.286  0.00  0.00    +0.100 C 
ATOM      6  C   UNL     1      -5.073  -4.475  -1.094  0.00  0.00    +0.033 C 
BRANCH   5   7
ATOM      7  C   UNL     1      -4.382  -5.806   0.880  0.00  0.00    -0.027 A 
ATOM      8  C   UNL     1      -3.404  -6.702   0.492  0.00  0.00    +0.006 A 
ATOM      9  C   UNL     1      -3.373  -7.972   1.037  0.00  0.00    +0.015 A 
ATOM     10  C   UNL     1      -4.322  -8.346   1.972  0.00  0.00    +0.018 A 
ATOM     11  C   UNL     1      -5.301  -7.449   2.360  0.00  0.00    +0.015 A 
ATOM     12  C   UNL     1      -5.327  -6.178   1.818  0.00  0.00    +0.006 A 
ATOM     13 BR   UNL     1      -4.281 -10.083   2.717  0.00  0.00    -0.050 Br
ENDBRANCH   5   7
ENDBRANCH   3   5
BRANCH   1  14
ATOM     14  C   UNL     1      -1.413  -2.063   0.004  0.00  0.00    +0.141 C 
BRANCH  14  15
ATOM     15  C   UNL     1      -0.818  -2.551  -1.292  0.00  0.00    +0.144 C 
ATOM     16  N   UNL     1      -1.589  -2.863  -2.280  0.00  0.00    -0.076 NA
ATOM     17  N   UNL     1       0.549  -2.663  -1.423  0.00  0.00    -0.343 N 
ATOM     18  H   UNL     1       1.128  -2.429  -0.681  0.00  0.00    +0.144 HD
ATOM     19  H   UNL     1       0.932  -2.977  -2.257  0.00  0.00    +0.144 HD
BRANCH  16  20
ATOM     20  O   UNL     1      -1.030  -3.321  -3.497  0.00  0.00    -0.408 OA
ATOM     21  H   UNL     1      -1.686  -3.530  -4.177  0.00  0.00    +0.328 HD
ENDBRANCH  16  20
ENDBRANCH  14  15
BRANCH  14  22
ATOM     22  C   UNL     1      -1.433  -0.534   0.013  0.00  0.00    +0.020 C 
BRANCH  22  24
ATOM     23  C   UNL     1      -0.019   1.526   0.010  0.00  0.00    +0.004 C 
ATOM     24  C   UNL     1       0.002  -0.004   0.002  0.00  0.00    -0.002 C 
ENDBRANCH  22  24
ENDBRANCH  14  22
ENDBRANCH   1  14
TORSDOF 7
