REMARK  Name = ZINC45064396
REMARK  8 active torsions:
REMARK  status: ('A' for Active; 'I' for Inactive)
REMARK    1  A    between atoms: C_1  and  C_2
REMARK    2  A    between atoms: C_2  and  C_3
REMARK    3  A    between atoms: C_3  and  N_4
REMARK    4  A    between atoms: C_5  and  C_7
REMARK    5  A    between atoms: C_7  and  C_8
REMARK    6  A    between atoms: C_8  and  N_9
REMARK    7  A    between atoms: C_10  and  C_12
REMARK    8  A    between atoms: C_14  and  N_20
REMARK                            x       y       z     vdW  Elec       q    Type
REMARK                         _______ _______ _______ _____ _____    ______ ____
ROOT
ATOM      1  N   UNL     1      -3.966  -6.189   0.007  0.00  0.00    -0.311 N 
ATOM      2  C   UNL     1      -5.124  -6.879   0.014  0.00  0.00    +0.244 C 
ATOM      3  O   UNL     1      -6.185  -6.286   0.027  0.00  0.00    -0.270 OA
ATOM      4  H   UNL     1      -3.120  -6.663  -0.004  0.00  0.00    +0.149 HD
ENDROOT
BRANCH   2   5
ATOM      5  C   UNL     1      -5.104  -8.357   0.006  0.00  0.00    +0.040 A 
ATOM      6  C   UNL     1      -6.302  -9.073   0.008  0.00  0.00    +0.037 A 
ATOM      7  C   UNL     1      -6.277 -10.458   0.000  0.00  0.00    +0.045 A 
ATOM      8  C   UNL     1      -5.059 -11.132  -0.009  0.00  0.00    +0.080 A 
ATOM      9  C   UNL     1      -3.871 -10.421  -0.010  0.00  0.00    +0.062 A 
ATOM     10  C   UNL     1      -3.887  -9.040  -0.009  0.00  0.00    +0.034 A 
ATOM     11 CL   UNL     1      -2.356 -11.269  -0.021  0.00  0.00    -0.082 Cl
ATOM     12 CL   UNL     1      -5.030 -12.867  -0.018  0.00  0.00    -0.080 Cl
BRANCH   7  13
ATOM     13  N   UNL     1      -7.474 -11.180   0.002  0.00  0.00    -0.357 N 
ATOM     14  H   UNL     1      -8.323 -10.710   0.009  0.00  0.00    +0.142 HD
ATOM     15  H   UNL     1      -7.456 -12.149  -0.003  0.00  0.00    +0.142 HD
ENDBRANCH   7  13
ENDBRANCH   2   5
BRANCH   1  16
ATOM     16  C   UNL     1      -3.986  -4.725   0.015  0.00  0.00    +0.113 C 
BRANCH  16  17
ATOM     17  C   UNL     1      -2.551  -4.195   0.004  0.00  0.00    +0.114 C 
BRANCH  17  19
ATOM     18  N   UNL     1      -1.413  -1.998   0.005  0.00  0.00    -0.315 N 
ATOM     19  C   UNL     1      -2.571  -2.688   0.012  0.00  0.00    +0.215 C 
ATOM     20  O   UNL     1      -3.630  -2.096   0.025  0.00  0.00    -0.276 OA
ATOM     21  H   UNL     1      -0.567  -2.472  -0.006  0.00  0.00    +0.149 HD
BRANCH  18  22
ATOM     22  C   UNL     1      -1.433  -0.534   0.013  0.00  0.00    +0.104 C 
BRANCH  22  24
ATOM     23  C   UNL     1      -0.019   1.526   0.010  0.00  0.00    +0.005 C 
ATOM     24  C   UNL     1       0.002  -0.004   0.002  0.00  0.00    +0.015 C 
ENDBRANCH  22  24
ENDBRANCH  18  22
ENDBRANCH  17  19
ENDBRANCH  16  17
ENDBRANCH   1  16
TORSDOF 7
