REMARK  Name = ZINC03772937
REMARK  13 active torsions:
REMARK  status: ('A' for Active; 'I' for Inactive)
REMARK    1  A    between atoms: C_1  and  C_2
REMARK    2  A    between atoms: C_2  and  C_3
REMARK    3  A    between atoms: C_2  and  C_4
REMARK    4  A    between atoms: C_4  and  C_6
REMARK    5  A    between atoms: C_4  and  N_18
REMARK    6  A    between atoms: N_8  and  C_9
REMARK    7  A    between atoms: C_12  and  N_15
REMARK    8  A    between atoms: N_15  and  C_16
REMARK    9  A    between atoms: N_15  and  C_17
REMARK   10  A    between atoms: N_18  and  C_19
REMARK   11  A    between atoms: C_19  and  C_20
REMARK   12  A    between atoms: C_27  and  C_29
REMARK   13  A    between atoms: C_29  and  N_30
REMARK                            x       y       z     vdW  Elec       q    Type
REMARK                         _______ _______ _______ _____ _____    ______ ____
ROOT
ATOM      1  N   UNL     1      -0.451  -2.149  -0.225  0.00  0.00    -0.284 N 
ATOM      2  C   UNL     1      -0.336  -3.172   0.644  0.00  0.00    +0.238 C 
ATOM      3  O   UNL     1      -0.696  -3.035   1.794  0.00  0.00    -0.274 OA
ENDROOT
BRANCH   1   4
ATOM      4  C   UNL     1      -0.975  -0.858   0.229  0.00  0.00    +0.165 C 
BRANCH   4   5
ATOM      5  C   UNL     1      -2.149  -0.463  -0.629  0.00  0.00    +0.238 C 
ATOM      6  O   UNL     1      -2.401  -1.089  -1.637  0.00  0.00    -0.273 OA
ATOM      7  N   UNL     1      -2.918   0.586  -0.277  0.00  0.00    -0.284 N 
ATOM      8  H   UNL     1      -2.685   1.120   0.499  0.00  0.00    +0.155 HD
BRANCH   7   9
ATOM      9  C   UNL     1      -4.055   0.906  -1.032  0.00  0.00    +0.034 A 
ATOM     10  C   UNL     1      -4.793  -0.102  -1.638  0.00  0.00    +0.025 A 
ATOM     11  C   UNL     1      -5.913   0.213  -2.381  0.00  0.00    +0.025 A 
ATOM     12  C   UNL     1      -6.302   1.539  -2.523  0.00  0.00    +0.029 A 
ATOM     13  C   UNL     1      -5.564   2.547  -1.916  0.00  0.00    +0.025 A 
ATOM     14  C   UNL     1      -4.447   2.232  -1.169  0.00  0.00    +0.025 A 
BRANCH  12  15
ATOM     15  N   UNL     1      -7.436   1.858  -3.276  0.00  0.00    -0.336 N 
ATOM     16  C   UNL     1      -8.279   0.790  -3.820  0.00  0.00    +0.129 C 
ATOM     17  C   UNL     1      -7.782   3.261  -3.521  0.00  0.00    +0.129 C 
ENDBRANCH  12  15
ENDBRANCH   7   9
ENDBRANCH   4   5
BRANCH   4  19
ATOM     18  C   UNL     1      -0.450   1.567   0.519  0.00  0.00    +0.009 C 
ATOM     19  C   UNL     1       0.119   0.205   0.117  0.00  0.00    +0.012 C 
ATOM     20  C   UNL     1       1.279  -0.158   1.047  0.00  0.00    +0.009 C 
ENDBRANCH   4  19
ENDBRANCH   1   4
BRANCH   1  21
ATOM     21  C   UNL     1      -0.053  -2.326  -1.623  0.00  0.00    +0.146 C 
BRANCH  21  22
ATOM     22  C   UNL     1       1.207  -1.543  -1.890  0.00  0.00    +0.005 A 
ATOM     23  C   UNL     1       1.172  -0.443  -2.727  0.00  0.00    +0.008 A 
ATOM     24  C   UNL     1       2.327   0.276  -2.972  0.00  0.00    +0.000 A 
ATOM     25  C   UNL     1       3.518  -0.104  -2.381  0.00  0.00    +0.003 A 
ATOM     26  C   UNL     1       3.555  -1.203  -1.544  0.00  0.00    +0.038 A 
ATOM     27  C   UNL     1       2.397  -1.921  -1.293  0.00  0.00    +0.128 A 
ATOM     28  F   UNL     1       2.431  -2.993  -0.472  0.00  0.00    -0.205 F 
ENDBRANCH  21  22
ENDBRANCH   1  21
BRANCH   2  29
ATOM     29  C   UNL     1       0.241  -4.488   0.187  0.00  0.00    +0.241 C 
BRANCH  29  30
ATOM     30  N   UNL     1       0.337  -5.402   1.328  0.00  0.00    -0.235 N 
ATOM     31  C   UNL     1       1.405  -5.540   2.183  0.00  0.00    +0.090 A 
ATOM     32  C   UNL     1       2.653  -4.933   2.277  0.00  0.00    +0.029 A 
ATOM     33  C   UNL     1       3.514  -5.302   3.271  0.00  0.00    +0.002 A 
ATOM     34  C   UNL     1       3.155  -6.280   4.191  0.00  0.00    +0.002 A 
ATOM     35  C   UNL     1       1.938  -6.890   4.120  0.00  0.00    +0.032 A 
ATOM     36  C   UNL     1       1.035  -6.529   3.111  0.00  0.00    +0.113 A 
ATOM     37  N   UNL     1      -0.207  -6.944   2.793  0.00  0.00    -0.129 NA
ATOM     38  N   UNL     1      -0.643  -6.304   1.766  0.00  0.00    -0.064 NA
ENDBRANCH  29  30
ENDBRANCH   2  29
TORSDOF 9
