REMARK  Name = ZINC13063916
REMARK  11 active torsions:
REMARK  status: ('A' for Active; 'I' for Inactive)
REMARK    1  A    between atoms: C_1  and  C_2
REMARK    2  A    between atoms: C_2  and  C_3
REMARK    3  A    between atoms: C_3  and  C_5
REMARK    4  A    between atoms: C_3  and  N_69
REMARK    5  A    between atoms: N_9  and  C_10
REMARK    6  A    between atoms: C_15  and  C_16
REMARK    7  A    between atoms: C_15  and  N_69
REMARK    8  A    between atoms: C_19  and  C_22
REMARK    9  A    between atoms: C_23  and  C_24
REMARK   10  A    between atoms: C_23  and  N_69
REMARK   11  A    between atoms: C_29  and  C_36
REMARK                            x       y       z     vdW  Elec       q    Type
REMARK                         _______ _______ _______ _____ _____    ______ ____
ROOT
ATOM      1  N   UNL     1      -0.131  -0.119   0.063  0.00  0.00    +0.392 N 
ATOM      2  H   UNL     1       0.520  -0.580   0.709  0.00  0.00    -0.080 HD
ENDROOT
BRANCH   1   3
ATOM      3  C   UNL     1      -0.313   1.286   0.485  0.00  0.00    +0.003 C 
BRANCH   3   4
ATOM      4  C   UNL     1       0.950   1.750   1.163  0.00  0.00    +0.138 A 
ATOM      5  N   UNL     1       2.177   1.420   0.843  0.00  0.00    -0.115 NA
ATOM      6  N   UNL     1       2.976   2.021   1.655  0.00  0.00    -0.023 NA
ATOM      7  N   UNL     1       2.290   2.720   2.490  0.00  0.00    -0.044 NA
ATOM      8  N   UNL     1       1.037   2.579   2.220  0.00  0.00    -0.228 N 
BRANCH   8   9
ATOM      9  C   UNL     1      -0.082   3.204   2.929  0.00  0.00    +0.111 C 
ATOM     10  C   UNL     1       0.003   4.739   2.802  0.00  0.00    +0.027 C 
ATOM     11  C   UNL     1      -0.475   5.261   4.181  0.00  0.00    +0.002 C 
ATOM     12  C   UNL     1       0.133   4.232   5.166  0.00  0.00    +0.002 C 
ATOM     13  C   UNL     1      -0.000   2.882   4.432  0.00  0.00    +0.027 C 
ENDBRANCH   8   9
ENDBRANCH   3   4
BRANCH   3  15
ATOM     14  C   UNL     1      -1.954   1.800  -1.327  0.00  0.00    +0.002 C 
ATOM     15  C   UNL     1      -0.597   2.174  -0.728  0.00  0.00    -0.011 C 
ENDBRANCH   3  15
ENDBRANCH   1   3
BRANCH   1  16
ATOM     16  C   UNL     1       0.433  -0.167  -1.303  0.00  0.00    -0.042 C 
BRANCH  16  17
ATOM     17  C   UNL     1       1.911   0.114  -1.224  0.00  0.00    -0.064 A 
ATOM     18  C   UNL     1       2.405   1.339  -1.632  0.00  0.00    +0.002 A 
ATOM     19  C   UNL     1       3.760   1.598  -1.556  0.00  0.00    +0.003 A 
ATOM     20  C   UNL     1       4.624   0.628  -1.082  0.00  0.00    -0.050 A 
ATOM     21  C   UNL     1       4.131  -0.599  -0.678  0.00  0.00    +0.003 A 
ATOM     22  C   UNL     1       2.775  -0.856  -0.750  0.00  0.00    +0.002 A 
ATOM     23  C   UNL     1       6.102   0.909  -1.003  0.00  0.00    +0.044 C 
ENDBRANCH  16  17
ENDBRANCH   1  16
BRANCH   1  24
ATOM     24  C   UNL     1      -1.427  -0.830   0.100  0.00  0.00    -0.036 C 
BRANCH  24  25
ATOM     25  C   UNL     1      -1.725  -1.214   1.526  0.00  0.00    +0.001 A 
ATOM     26  C   UNL     1      -2.518  -0.421   2.288  0.00  0.00    +0.017 A 
ATOM     27  C   UNL     1      -2.788  -0.823   3.670  0.00  0.00    -0.001 A 
ATOM     28  C   UNL     1      -3.598  -0.045   4.504  0.00  0.00    +0.010 A 
ATOM     29  C   UNL     1      -3.832  -0.448   5.788  0.00  0.00    +0.004 A 
ATOM     30  C   UNL     1      -3.272  -1.623   6.273  0.00  0.00    -0.048 A 
ATOM     31  C   UNL     1      -2.472  -2.404   5.469  0.00  0.00    +0.029 A 
ATOM     32  C   UNL     1      -2.219  -2.014   4.157  0.00  0.00    +0.049 A 
ATOM     33  N   UNL     1      -1.422  -2.777   3.331  0.00  0.00    -0.322 N 
ATOM     34  H   UNL     1      -1.031  -3.598   3.668  0.00  0.00    +0.169 HD
ATOM     35  C   UNL     1      -1.184  -2.403   2.062  0.00  0.00    +0.251 A 
ATOM     36  O   UNL     1      -0.478  -3.104   1.358  0.00  0.00    -0.268 OA
ATOM     37  C   UNL     1      -3.544  -2.047   7.693  0.00  0.00    +0.044 C 
ENDBRANCH  24  25
ENDBRANCH   1  24
TORSDOF 8
