REMARK  Name = ZINC12980862
REMARK  11 active torsions:
REMARK  status: ('A' for Active; 'I' for Inactive)
REMARK    1  A    between atoms: C_1  and  S_2
REMARK    2  A    between atoms: S_2  and  C_3
REMARK    3  A    between atoms: C_3  and  C_4
REMARK    4  A    between atoms: C_4  and  C_5
REMARK    5  A    between atoms: C_5  and  C_7
REMARK    6  A    between atoms: C_5  and  N_24
REMARK    7  A    between atoms: N_12  and  C_15
REMARK    8  A    between atoms: C_15  and  C_16
REMARK    9  A    between atoms: C_17  and  C_18
REMARK   10  A    between atoms: C_25  and  C_27
REMARK   11  A    between atoms: C_31  and  N_33
REMARK                            x       y       z     vdW  Elec       q    Type
REMARK                         _______ _______ _______ _____ _____    ______ ____
ROOT
ATOM      1  C   UNL     1      -3.355  -2.382   0.021  0.00  0.00    +0.160 C 
ENDROOT
BRANCH   1   2
ATOM      2  C   UNL     1      -3.522  -3.880   0.022  0.00  0.00    +0.236 C 
ATOM      3  O   UNL     1      -4.039  -4.433  -0.926  0.00  0.00    -0.274 OA
ATOM      4  N   UNL     1      -3.096  -4.605   1.075  0.00  0.00    -0.298 N 
ATOM      5  C   UNL     1      -2.574  -3.947   2.282  0.00  0.00    +0.123 C 
ATOM      6  C   UNL     1      -3.302  -4.519   3.503  0.00  0.00    +0.103 C 
ATOM      7  N   UNL     1      -3.189  -5.983   3.495  0.00  0.00    -0.296 NA
ATOM      8  C   UNL     1      -3.849  -6.563   2.318  0.00  0.00    +0.103 C 
ATOM      9  C   UNL     1      -3.148  -6.074   1.051  0.00  0.00    +0.123 C 
BRANCH   7  10
ATOM     10  C   UNL     1      -3.725  -6.559   4.736  0.00  0.00    +0.111 C 
BRANCH  10  11
ATOM     11  C   UNL     1      -3.373  -8.023   4.803  0.00  0.00    -0.011 C 
ATOM     12  C   UNL     1      -2.727  -8.502   5.856  0.00  0.00    +0.005 C 
BRANCH  12  13
ATOM     13  C   UNL     1      -2.382  -9.938   5.922  0.00  0.00    -0.025 A 
ATOM     14  C   UNL     1      -2.731 -10.791   4.874  0.00  0.00    +0.008 A 
ATOM     15  C   UNL     1      -2.406 -12.130   4.941  0.00  0.00    +0.001 A 
ATOM     16  C   UNL     1      -1.737 -12.628   6.045  0.00  0.00    +0.000 A 
ATOM     17  C   UNL     1      -1.389 -11.788   7.088  0.00  0.00    +0.001 A 
ATOM     18  C   UNL     1      -1.702 -10.445   7.029  0.00  0.00    +0.008 A 
ENDBRANCH  12  13
ENDBRANCH  10  11
ENDBRANCH   7  10
ENDBRANCH   1   2
BRANCH   1  19
ATOM     19  N   UNL     1      -4.329  -1.783  -0.895  0.00  0.00    -0.300 N 
ATOM     20  C   UNL     1      -4.730  -0.509  -0.714  0.00  0.00    +0.245 C 
ATOM     21  O   UNL     1      -4.283   0.143   0.210  0.00  0.00    -0.270 OA
ATOM     22  H   UNL     1      -4.686  -2.303  -1.632  0.00  0.00    +0.150 HD
BRANCH  20  23
ATOM     23  C   UNL     1      -5.712   0.095  -1.638  0.00  0.00    +0.039 A 
ATOM     24  C   UNL     1      -6.232  -0.653  -2.696  0.00  0.00    +0.014 A 
ATOM     25  C   UNL     1      -7.148  -0.084  -3.555  0.00  0.00    +0.023 A 
ATOM     26  C   UNL     1      -7.553   1.228  -3.369  0.00  0.00    +0.071 A 
ATOM     27  C   UNL     1      -7.041   1.975  -2.322  0.00  0.00    +0.145 A 
ATOM     28  C   UNL     1      -6.129   1.415  -1.452  0.00  0.00    +0.047 A 
ATOM     29 CL   UNL     1      -8.707   1.938  -4.455  0.00  0.00    -0.081 Cl
BRANCH  27  30
ATOM     30  N   UNL     1      -7.479   3.376  -2.131  0.00  0.00    +0.058 N 
ATOM     31  O   UNL     1      -7.033   4.030  -1.217  0.00  0.00    -0.126 OA
ATOM     32  O   UNL     1      -8.283   3.867  -2.889  0.00  0.00    -0.126 OA
ENDBRANCH  27  30
ENDBRANCH  20  23
ENDBRANCH   1  19
BRANCH   1  33
ATOM     33  C   UNL     1      -1.939  -2.027  -0.437  0.00  0.00    +0.042 C 
BRANCH  33  34
ATOM     34  C   UNL     1      -1.722  -0.519  -0.296  0.00  0.00    +0.071 C 
BRANCH  34  36
ATOM     35  C   UNL     1       0.053   1.700  -0.613  0.00  0.00    +0.084 C 
ATOM     36  S   UNL     1      -0.043  -0.097  -0.839  0.00  0.00    -0.164 S 
ENDBRANCH  34  36
ENDBRANCH  33  34
ENDBRANCH   1  33
TORSDOF 10
