REMARK  Name = ZINC09982516
REMARK  9 active torsions:
REMARK  status: ('A' for Active; 'I' for Inactive)
REMARK    1  A    between atoms: C_1  and  C_2
REMARK    2  A    between atoms: C_7  and  N_8
REMARK    3  A    between atoms: C_11  and  C_18
REMARK    4  A    between atoms: C_13  and  C_16
REMARK    5  A    between atoms: C_14  and  N_15
REMARK    6  A    between atoms: C_20  and  C_25
REMARK    7  A    between atoms: C_22  and  S_23
REMARK    8  A    between atoms: S_23  and  C_24
REMARK    9  A    between atoms: C_29  and  C_32
REMARK                            x       y       z     vdW  Elec       q    Type
REMARK                         _______ _______ _______ _____ _____    ______ ____
ROOT
ATOM      1  N   UNL     1      -1.468  -1.016   0.714  0.00  0.00    -0.260 N 
ATOM      2  C   UNL     1      -2.046  -1.298  -0.496  0.00  0.00    +0.025 C 
ATOM      3  C   UNL     1      -2.998  -2.250  -0.599  0.00  0.00    +0.025 C 
ATOM      4  C   UNL     1      -3.446  -3.031   0.611  0.00  0.00    +0.099 C 
ATOM      5  C   UNL     1      -3.051  -2.337   1.881  0.00  0.00    +0.077 C 
ATOM      6  C   UNL     1      -2.088  -1.381   1.887  0.00  0.00    +0.107 C 
ATOM      7  C   UNL     1      -3.597  -2.546  -1.836  0.00  0.00    +0.162 C 
ATOM      8  O   UNL     1      -4.464  -3.395  -1.890  0.00  0.00    -0.292 OA
ATOM      9  C   UNL     1      -3.184  -1.831  -3.093  0.00  0.00    +0.088 C 
ATOM     10  C   UNL     1      -1.723  -1.387  -2.957  0.00  0.00    +0.032 C 
ATOM     11  C   UNL     1      -1.596  -0.516  -1.706  0.00  0.00    +0.060 C 
ENDROOT
BRANCH   1  18
ATOM     12  C   UNL     1      -1.468   1.821   0.949  0.00  0.00    +0.045 C 
ATOM     13  C   UNL     1      -0.189   1.028   0.872  0.00  0.00    -0.029 A 
ATOM     14  C   UNL     1       1.030   1.676   0.914  0.00  0.00    +0.005 A 
ATOM     15  C   UNL     1       2.204   0.949   0.842  0.00  0.00    +0.000 A 
ATOM     16  C   UNL     1       2.162  -0.429   0.728  0.00  0.00    +0.002 A 
ATOM     17  C   UNL     1       0.947  -1.083   0.685  0.00  0.00    +0.024 A 
ATOM     18  C   UNL     1      -0.234  -0.355   0.757  0.00  0.00    +0.043 A 
ENDBRANCH   1  18
BRANCH   4  19
ATOM     19  C   UNL     1      -2.815  -4.399   0.578  0.00  0.00    -0.014 A 
ATOM     20  C   UNL     1      -1.440  -4.539   0.501  0.00  0.00    +0.016 A 
ATOM     21  C   UNL     1      -0.905  -5.782   0.478  0.00  0.00    -0.012 A 
ATOM     22  S   UNL     1      -2.359  -6.816   0.552  0.00  0.00    -0.087 S 
ATOM     23  C   UNL     1      -3.587  -5.521   0.616  0.00  0.00    +0.049 A 
ATOM     24  C   UNL     1       0.543  -6.189   0.403  0.00  0.00    +0.051 C 
BRANCH  23  25
ATOM     25  S   UNL     1      -5.341  -5.659   0.706  0.00  0.00    -0.121 S 
ATOM     26  C   UNL     1      -5.641  -7.447   0.721  0.00  0.00    +0.090 C 
ENDBRANCH  23  25
ENDBRANCH   4  19
BRANCH  10  27
ATOM     27  C   UNL     1      -1.321  -0.591  -4.172  0.00  0.00    -0.044 A 
ATOM     28  C   UNL     1      -1.996   0.572  -4.491  0.00  0.00    +0.004 A 
ATOM     29  C   UNL     1      -1.624   1.304  -5.603  0.00  0.00    +0.000 A 
ATOM     30  C   UNL     1      -0.583   0.869  -6.401  0.00  0.00    +0.000 A 
ATOM     31  C   UNL     1       0.090  -0.297  -6.084  0.00  0.00    +0.000 A 
ATOM     32  C   UNL     1      -0.279  -1.027  -4.970  0.00  0.00    +0.004 A 
ENDBRANCH  10  27
BRANCH   6  33
ATOM     33  N   UNL     1      -1.736  -0.772   3.068  0.00  0.00    -0.345 N 
ATOM     34  H   UNL     1      -1.051  -0.086   3.074  0.00  0.00    +0.144 HD
ATOM     35  H   UNL     1      -2.173  -1.030   3.895  0.00  0.00    +0.144 HD
ENDBRANCH   6  33
BRANCH   5  36
ATOM     36  C   UNL     1      -3.696  -2.695   3.109  0.00  0.00    +0.099 C 
ATOM     37  N   UNL     1      -4.207  -2.979   4.082  0.00  0.00    -0.191 NA
ENDBRANCH   5  36
TORSDOF 6
