REMARK  Name = ZINC35028950
REMARK  14 active torsions:
REMARK  status: ('A' for Active; 'I' for Inactive)
REMARK    1  A    between atoms: C_1  and  C_2
REMARK    2  A    between atoms: C_2  and  C_3
REMARK    3  A    between atoms: C_3  and  C_4
REMARK    4  A    between atoms: C_4  and  N_5
REMARK    5  A    between atoms: N_5  and  C_6
REMARK    6  A    between atoms: C_6  and  C_8
REMARK    7  A    between atoms: C_6  and  C_10
REMARK    8  A    between atoms: C_8  and  C_9
REMARK    9  A    between atoms: N_20  and  C_21
REMARK   10  A    between atoms: C_21  and  C_22
REMARK   11  A    between atoms: C_22  and  O_23
REMARK   12  A    between atoms: O_23  and  C_24
REMARK   13  A    between atoms: N_27  and  C_28
REMARK   14  A    between atoms: C_33  and  C_34
REMARK                            x       y       z     vdW  Elec       q    Type
REMARK                         _______ _______ _______ _____ _____    ______ ____
ROOT
ATOM      1  N   UNL     1      -3.617  -1.909  -0.005  0.00  0.00    -0.275 N 
ATOM      2  C   UNL     1      -4.164  -2.209   1.190  0.00  0.00    +0.307 C 
ATOM      3  O   UNL     1      -5.058  -3.030   1.260  0.00  0.00    -0.252 OA
ATOM      4  N   UNL     1      -3.719  -1.600   2.307  0.00  0.00    -0.269 N 
ATOM      5  H   UNL     1      -3.053  -0.897   2.243  0.00  0.00    +0.156 HD
ENDROOT
BRANCH   4   6
ATOM      6  C   UNL     1      -4.217  -1.981   3.557  0.00  0.00    +0.046 A 
ATOM      7  C   UNL     1      -5.501  -2.500   3.666  0.00  0.00    +0.024 A 
ATOM      8  C   UNL     1      -5.990  -2.876   4.902  0.00  0.00    +0.002 A 
ATOM      9  C   UNL     1      -5.202  -2.736   6.030  0.00  0.00    +0.001 A 
ATOM     10  C   UNL     1      -3.924  -2.219   5.925  0.00  0.00    +0.014 A 
ATOM     11  C   UNL     1      -3.427  -1.847   4.691  0.00  0.00    +0.076 A 
BRANCH  11  12
ATOM     12  C   UNL     1      -2.032  -1.290   4.577  0.00  0.00    +0.419 C 
ATOM     13  F   UNL     1      -1.439  -1.253   5.844  0.00  0.00    -0.166 F 
ATOM     14  F   UNL     1      -1.272  -2.106   3.731  0.00  0.00    -0.166 F 
ATOM     15  F   UNL     1      -2.088   0.004   4.050  0.00  0.00    -0.166 F 
ENDBRANCH  11  12
ENDBRANCH   4   6
BRANCH   1  16
ATOM     16  C   UNL     1      -2.539  -0.920  -0.090  0.00  0.00    +0.110 C 
BRANCH  16  17
ATOM     17  C   UNL     1      -3.139   0.472  -0.302  0.00  0.00    +0.019 C 
BRANCH  17  19
ATOM     18  C   UNL     1      -2.614   2.896  -0.603  0.00  0.00    +0.004 C 
ATOM     19  C   UNL     1      -2.014   1.504  -0.391  0.00  0.00    -0.002 C 
ENDBRANCH  17  19
ENDBRANCH  16  17
ENDBRANCH   1  16
BRANCH   1  20
ATOM     20  C   UNL     1      -4.100  -2.571  -1.219  0.00  0.00    +0.143 C 
BRANCH  20  21
ATOM     21  C   UNL     1      -2.966  -3.323  -1.867  0.00  0.00    +0.134 A 
ATOM     22  N   UNL     1      -1.971  -2.642  -2.348  0.00  0.00    -0.232 NA
ATOM     23  C   UNL     1      -0.916  -3.250  -2.945  0.00  0.00    +0.078 A 
ATOM     24  C   UNL     1       0.155  -2.518  -3.463  0.00  0.00    +0.028 A 
ATOM     25  C   UNL     1       1.206  -3.177  -4.060  0.00  0.00    +0.002 A 
ATOM     26  C   UNL     1       1.215  -4.563  -4.155  0.00  0.00    +0.001 A 
ATOM     27  C   UNL     1       0.171  -5.307  -3.651  0.00  0.00    +0.015 A 
ATOM     28  C   UNL     1      -0.903  -4.659  -3.043  0.00  0.00    +0.065 A 
ATOM     29  C   UNL     1      -2.045  -5.400  -2.487  0.00  0.00    +0.262 A 
ATOM     30  O   UNL     1      -2.095  -6.615  -2.539  0.00  0.00    -0.267 OA
ATOM     31  N   UNL     1      -3.035  -4.679  -1.912  0.00  0.00    -0.292 N 
BRANCH  31  32
ATOM     32  C   UNL     1      -4.194  -5.367  -1.337  0.00  0.00    +0.154 C 
BRANCH  32  33
ATOM     33  C   UNL     1      -5.330  -5.395  -2.361  0.00  0.00    +0.181 C 
BRANCH  33  34
ATOM     34  O   UNL     1      -4.950  -6.212  -3.471  0.00  0.00    -0.381 OA
ATOM     35  C   UNL     1      -5.946  -6.306  -4.491  0.00  0.00    +0.194 C 
ENDBRANCH  33  34
ENDBRANCH  32  33
ENDBRANCH  31  32
ENDBRANCH  20  21
BRANCH  20  36
ATOM     36  C   UNL     1      -4.638  -1.521  -2.193  0.00  0.00    +0.027 C 
ATOM     37  C   UNL     1      -5.860  -0.834  -1.580  0.00  0.00    +0.006 C 
ENDBRANCH  20  36
ENDBRANCH   1  20
TORSDOF 11
