REMARK  Name = ZINC23634935
REMARK  9 active torsions:
REMARK  status: ('A' for Active; 'I' for Inactive)
REMARK    1  A    between atoms: C_1  and  C_2
REMARK    2  A    between atoms: C_8  and  N_10
REMARK    3  A    between atoms: C_14  and  C_16
REMARK    4  A    between atoms: C_16  and  S_17
REMARK    5  A    between atoms: S_17  and  C_18
REMARK    6  A    between atoms: C_21  and  C_24
REMARK    7  A    between atoms: N_22  and  N_23
REMARK    8  A    between atoms: C_27  and  O_30
REMARK    9  A    between atoms: O_30  and  C_31
REMARK                            x       y       z     vdW  Elec       q    Type
REMARK                         _______ _______ _______ _____ _____    ______ ____
ROOT
ATOM      1  C   UNL     1      -8.366   1.873   4.858  0.00  0.00    +0.209 A 
ATOM      2  N   UNL     1      -7.738   2.188   5.968  0.00  0.00    -0.121 NA
ATOM      3  N   UNL     1      -8.584   2.361   6.920  0.00  0.00    -0.127 NA
ATOM      4  C   UNL     1      -9.803   2.159   6.478  0.00  0.00    +0.182 A 
ATOM      5  N   UNL     1      -9.701   1.840   5.144  0.00  0.00    -0.224 N 
ENDROOT
BRANCH   4   6
ATOM      6  C   UNL     1     -11.050   2.254   7.266  0.00  0.00    +0.021 A 
ATOM      7  C   UNL     1     -11.052   2.916   8.495  0.00  0.00    +0.015 A 
ATOM      8  C   UNL     1     -12.219   3.007   9.225  0.00  0.00    +0.046 A 
ATOM      9  C   UNL     1     -13.388   2.433   8.743  0.00  0.00    +0.127 A 
ATOM     10  C   UNL     1     -13.389   1.770   7.523  0.00  0.00    +0.046 A 
ATOM     11  C   UNL     1     -12.228   1.679   6.785  0.00  0.00    +0.015 A 
BRANCH   9  12
ATOM     12  O   UNL     1     -14.534   2.521   9.467  0.00  0.00    -0.434 OA
BRANCH  12  13
ATOM     13  C   UNL     1     -14.462   3.217  10.713  0.00  0.00    +0.541 C 
ATOM     14  F   UNL     1     -13.537   2.583  11.549  0.00  0.00    -0.166 F 
ATOM     15  F   UNL     1     -14.059   4.537  10.487  0.00  0.00    -0.166 F 
ENDBRANCH  12  13
ENDBRANCH   9  12
ENDBRANCH   4   6
BRANCH   5  16
ATOM     16  N   UNL     1     -10.723   1.551   4.284  0.00  0.00    -0.295 N 
ATOM     17  H   UNL     1     -11.762   1.559   4.642  0.00  0.00    +0.163 HD
ATOM     18  H   UNL     1     -10.505   1.311   3.232  0.00  0.00    +0.163 HD
ENDBRANCH   5  16
BRANCH   1  19
ATOM     19  S   UNL     1      -7.623   1.547   3.293  0.00  0.00    -0.075 S 
BRANCH  19  20
ATOM     20  C   UNL     1      -5.880   1.786   3.717  0.00  0.00    +0.173 C 
BRANCH  20  25
ATOM     21  N   UNL     1      -1.589   1.589   1.559  0.00  0.00    -0.296 N 
ATOM     22  C   UNL     1      -2.929   1.466   1.481  0.00  0.00    +0.306 C 
ATOM     23  O   UNL     1      -3.451   1.167   0.425  0.00  0.00    -0.252 OA
ATOM     24  N   UNL     1      -3.689   1.675   2.573  0.00  0.00    -0.239 N 
ATOM     25  C   UNL     1      -5.029   1.552   2.495  0.00  0.00    +0.231 C 
ATOM     26  O   UNL     1      -5.550   1.254   1.442  0.00  0.00    -0.274 OA
ATOM     27  H   UNL     1      -1.116   1.859   2.514  0.00  0.00    +0.151 HD
ATOM     28  H   UNL     1      -3.216   1.946   3.529  0.00  0.00    +0.159 HD
BRANCH  21  35
ATOM     29  C   UNL     1       0.263   3.622   0.652  0.00  0.00    +0.009 C 
ATOM     30  C   UNL     1       0.555   2.127   0.512  0.00  0.00    +0.006 C 
ATOM     31  C   UNL     1       1.301   1.635   1.754  0.00  0.00    +0.005 C 
ATOM     32  C   UNL     1       1.593   0.139   1.615  0.00  0.00    +0.000 C 
ATOM     33  C   UNL     1       0.276  -0.626   1.473  0.00  0.00    +0.002 C 
ATOM     34  C   UNL     1      -0.470  -0.134   0.231  0.00  0.00    +0.022 C 
ATOM     35  C   UNL     1      -0.762   1.361   0.371  0.00  0.00    +0.077 C 
ENDBRANCH  21  35
ENDBRANCH  20  25
ENDBRANCH  19  20
ENDBRANCH   1  19
TORSDOF 8
