REMARK  Name = ZINC64491990
REMARK  11 active torsions:
REMARK  status: ('A' for Active; 'I' for Inactive)
REMARK    1  A    between atoms: C_1  and  C_2
REMARK    2  A    between atoms: C_2  and  O_3
REMARK    3  A    between atoms: O_3  and  C_4
REMARK    4  A    between atoms: C_4  and  C_6
REMARK    5  A    between atoms: C_8  and  C_37
REMARK    6  A    between atoms: C_9  and  C_13
REMARK    7  A    between atoms: C_11  and  C_12
REMARK    8  A    between atoms: C_19  and  C_22
REMARK    9  A    between atoms: N_24  and  C_25
REMARK   10  A    between atoms: C_25  and  C_26
REMARK   11  A    between atoms: C_26  and  C_27
REMARK                            x       y       z     vdW  Elec       q    Type
REMARK                         _______ _______ _______ _____ _____    ______ ____
ROOT
ATOM      1  C   UNL     1       0.429  -5.584  -4.066  0.00  0.00    +0.265 C 
ATOM      2  O   UNL     1       0.898  -6.517  -3.443  0.00  0.00    -0.268 OA
ATOM      3  N   UNL     1      -0.352  -5.816  -5.140  0.00  0.00    -0.296 N 
ATOM      4  C   UNL     1      -0.817  -4.704  -5.981  0.00  0.00    +0.108 C 
ATOM      5  C   UNL     1      -2.343  -4.782  -6.100  0.00  0.00    +0.020 C 
ATOM      6  C   UNL     1      -2.740  -6.168  -6.614  0.00  0.00    +0.016 C 
ATOM      7  C   UNL     1      -2.279  -7.234  -5.618  0.00  0.00    +0.092 C 
ATOM      8  C   UNL     1      -0.748  -7.185  -5.497  0.00  0.00    +0.120 C 
ENDROOT
BRANCH   1  11
ATOM      9  C   UNL     1       1.539  -2.352  -2.604  0.00  0.00    +0.169 C 
ATOM     10  C   UNL     1       1.585  -3.867  -2.675  0.00  0.00    -0.023 C 
ATOM     11  C   UNL     1       0.714  -4.197  -3.645  0.00  0.00    +0.126 C 
ATOM     12  N   UNL     1       0.127  -3.096  -4.194  0.00  0.00    -0.250 NA
ATOM     13  C   UNL     1       0.529  -1.985  -3.673  0.00  0.00    +0.034 C 
ATOM     14  C   UNL     1       0.082  -0.596  -4.050  0.00  0.00    +0.062 C 
ATOM     15  C   UNL     1       2.424  -4.800  -1.840  0.00  0.00    +0.042 C 
BRANCH   9  16
ATOM     16  C   UNL     1       1.068  -1.896  -1.247  0.00  0.00    +0.320 C 
ATOM     17  O   UNL     1       0.831  -2.710  -0.386  0.00  0.00    -0.250 OA
BRANCH  16  18
ATOM     18  O   UNL     1       0.912  -0.587  -0.996  0.00  0.00    -0.464 OA
BRANCH  18  20
ATOM     19  C   UNL     1       0.346   1.295   0.410  0.00  0.00    +0.048 C 
ATOM     20  C   UNL     1       0.463  -0.227   0.312  0.00  0.00    +0.229 C 
ENDBRANCH  18  20
ENDBRANCH  16  18
ENDBRANCH   9  16
ENDBRANCH   1  11
BRANCH   7  21
ATOM     21  C   UNL     1      -2.699  -8.596  -6.109  0.00  0.00    +0.218 C 
ATOM     22  O   UNL     1      -3.308  -8.703  -7.152  0.00  0.00    -0.275 OA
ATOM     23  N   UNL     1      -2.399  -9.694  -5.388  0.00  0.00    -0.315 N 
ATOM     24  H   UNL     1      -1.911  -9.609  -4.554  0.00  0.00    +0.149 HD
BRANCH  23  25
ATOM     25  C   UNL     1      -2.808 -11.018  -5.865  0.00  0.00    +0.108 C 
BRANCH  25  26
ATOM     26  C   UNL     1      -2.346 -12.084  -4.869  0.00  0.00    +0.052 C 
BRANCH  26  27
ATOM     27  C   UNL     1      -2.767 -13.445  -5.359  0.00  0.00    -0.040 C 
ATOM     28  C   UNL     1      -2.022 -14.317  -6.077  0.00  0.00    +0.000 A 
ATOM     29  C   UNL     1      -0.650 -14.260  -6.596  0.00  0.00    +0.030 A 
ATOM     30  C   UNL     1      -0.170 -15.313  -7.297  0.00  0.00    +0.042 A 
ATOM     31  C   UNL     1      -0.949 -16.455  -7.539  0.00  0.00    +0.022 A 
ATOM     32  C   UNL     1      -2.217 -16.580  -7.094  0.00  0.00    +0.027 A 
ATOM     33  C   UNL     1      -2.823 -15.533  -6.346  0.00  0.00    +0.043 A 
ATOM     34  N   UNL     1      -4.016 -15.417  -5.815  0.00  0.00    -0.380 N 
ATOM     35  C   UNL     1      -4.105 -14.116  -5.143  0.00  0.00    +0.144 C 
ATOM     36 CL   UNL     1       1.452 -15.250  -7.913  0.00  0.00    -0.084 Cl
ATOM     37  H   UNL     1      -4.721 -16.082  -5.857  0.00  0.00    +0.160 HD
ENDBRANCH  26  27
ENDBRANCH  25  26
ENDBRANCH  23  25
ENDBRANCH   7  21
TORSDOF 8
