REMARK  Name = ZINC09597093
REMARK  9 active torsions:
REMARK  status: ('A' for Active; 'I' for Inactive)
REMARK    1  A    between atoms: C_4  and  O_30
REMARK    2  A    between atoms: C_5  and  N_7
REMARK    3  A    between atoms: C_8  and  C_10
REMARK    4  A    between atoms: C_10  and  O_11
REMARK    5  A    between atoms: O_11  and  C_12
REMARK    6  A    between atoms: C_12  and  C_14
REMARK    7  A    between atoms: C_18  and  S_20
REMARK    8  A    between atoms: S_20  and  N_23
REMARK    9  A    between atoms: O_30  and  C_31
REMARK                            x       y       z     vdW  Elec       q    Type
REMARK                         _______ _______ _______ _____ _____    ______ ____
ROOT
ATOM      1  C   UNL     1      -7.220  -0.449  -0.351  0.00  0.00    +0.340 C 
ATOM      2  O   UNL     1      -7.394   0.753  -0.357  0.00  0.00    -0.245 OA
ENDROOT
BRANCH   1   3
ATOM      3  C   UNL     1      -8.376  -1.363  -0.447  0.00  0.00    +0.061 A 
ATOM      4  C   UNL     1      -8.178  -2.746  -0.447  0.00  0.00    +0.015 A 
ATOM      5  C   UNL     1      -9.262  -3.594  -0.531  0.00  0.00    +0.003 A 
ATOM      6  C   UNL     1     -10.543  -3.078  -0.628  0.00  0.00    +0.028 A 
ATOM      7  C   UNL     1     -10.745  -1.710  -0.634  0.00  0.00    +0.106 A 
ATOM      8  C   UNL     1      -9.670  -0.850  -0.544  0.00  0.00    +0.043 A 
BRANCH   7   9
ATOM      9  S   UNL     1     -12.380  -1.064  -0.757  0.00  0.00    +0.061 S 
ATOM     10  O   UNL     1     -13.254  -2.077  -0.279  0.00  0.00    -0.153 OA
ATOM     11  O   UNL     1     -12.345   0.240  -0.193  0.00  0.00    -0.153 OA
BRANCH   9  12
ATOM     12  N   UNL     1     -12.712  -0.874  -2.368  0.00  0.00    -0.177 NA
ATOM     13  C   UNL     1     -12.392   0.388  -2.997  0.00  0.00    +0.109 C 
ATOM     14  C   UNL     1     -13.590   1.353  -2.876  0.00  0.00    +0.017 C 
ATOM     15  C   UNL     1     -14.688   0.916  -3.751  0.00  0.00    +0.001 C 
ATOM     16  C   UNL     1     -15.266  -0.452  -3.399  0.00  0.00    +0.001 C 
ATOM     17  C   UNL     1     -14.438  -1.528  -4.057  0.00  0.00    +0.017 C 
ATOM     18  C   UNL     1     -13.326  -1.998  -3.101  0.00  0.00    +0.109 C 
ENDBRANCH   9  12
ENDBRANCH   7   9
ENDBRANCH   1   3
BRANCH   1  19
ATOM     19  O   UNL     1      -5.972  -0.948  -0.258  0.00  0.00    -0.452 OA
BRANCH  19  20
ATOM     20  C   UNL     1      -4.884   0.010  -0.167  0.00  0.00    +0.328 C 
BRANCH  20  22
ATOM     21  N   UNL     1      -2.418  -0.038   0.025  0.00  0.00    -0.280 N 
ATOM     22  C   UNL     1      -3.573  -0.727  -0.069  0.00  0.00    +0.255 C 
ATOM     23  O   UNL     1      -3.557  -1.940  -0.076  0.00  0.00    -0.272 OA
ATOM     24  H   UNL     1      -2.436   0.928   0.111  0.00  0.00    +0.155 HD
BRANCH  21  29
ATOM     25  C   UNL     1       0.111  -2.626  -0.642  0.00  0.00    +0.002 A 
ATOM     26  C   UNL     1       1.229  -2.061  -0.056  0.00  0.00    +0.004 A 
ATOM     27  C   UNL     1       1.143  -0.823   0.554  0.00  0.00    +0.048 A 
ATOM     28  C   UNL     1      -0.067  -0.149   0.589  0.00  0.00    +0.148 A 
ATOM     29  C   UNL     1      -1.193  -0.718  -0.002  0.00  0.00    +0.076 A 
ATOM     30  C   UNL     1      -1.099  -1.958  -0.616  0.00  0.00    +0.027 A 
BRANCH  28  31
ATOM     31  O   UNL     1      -0.153   1.066   1.192  0.00  0.00    -0.432 OA
BRANCH  31  32
ATOM     32  C   UNL     1       1.042   1.587   1.776  0.00  0.00    +0.541 C 
ATOM     33  F   UNL     1       1.500   0.708   2.764  0.00  0.00    -0.166 F 
ATOM     34  F   UNL     1       2.022   1.727   0.787  0.00  0.00    -0.166 F 
ENDBRANCH  31  32
ENDBRANCH  28  31
ENDBRANCH  21  29
ENDBRANCH  20  22
ENDBRANCH  19  20
ENDBRANCH   1  19
TORSDOF 9
