REMARK  Name = ZINC32727318
REMARK  6 active torsions:
REMARK  status: ('A' for Active; 'I' for Inactive)
REMARK    1  A    between atoms: C_1  and  C_2
REMARK    2  A    between atoms: C_6  and  C_15
REMARK    3  A    between atoms: N_17  and  C_18
REMARK    4  A    between atoms: C_18  and  C_19
REMARK    5  A    between atoms: C_19  and  C_21
REMARK    6  A    between atoms: C_19  and  C_27
REMARK                            x       y       z     vdW  Elec       q    Type
REMARK                         _______ _______ _______ _____ _____    ______ ____
ROOT
ATOM      1  C   UNL     1       8.297   2.784  -0.415  0.00  0.00    +0.117 C 
ENDROOT
BRANCH   1   4
ATOM      2  C   UNL     1       5.909   2.332  -0.242  0.00  0.00    +0.255 C 
ATOM      3  O   UNL     1       5.788   3.367   0.379  0.00  0.00    -0.272 OA
ATOM      4  N   UNL     1       7.123   1.950  -0.685  0.00  0.00    -0.311 N 
ATOM      5  H   UNL     1       7.233   1.011  -1.248  0.00  0.00    +0.149 HD
BRANCH   2  11
ATOM      6  C   UNL     1       5.026  -2.651  -0.449  0.00  0.00    +0.109 C 
ATOM      7  C   UNL     1       3.688  -1.969  -0.324  0.00  0.00    +0.217 C 
ATOM      8  O   UNL     1       2.666  -2.607  -0.470  0.00  0.00    -0.276 OA
ATOM      9  N   UNL     1       3.626  -0.651  -0.050  0.00  0.00    -0.264 N 
ATOM     10  C   UNL     1       4.847   0.131   0.210  0.00  0.00    +0.168 C 
ATOM     11  C   UNL     1       4.702   1.474  -0.519  0.00  0.00    +0.276 C 
ATOM     12  O   UNL     1       3.526   2.133  -0.043  0.00  0.00    -0.476 OA
ATOM     13  C   UNL     1       2.371   1.417  -0.003  0.00  0.00    +0.143 A 
ATOM     14  C   UNL     1       2.395   0.025  -0.003  0.00  0.00    +0.078 A 
ATOM     15  C   UNL     1       1.210  -0.692   0.042  0.00  0.00    +0.027 A 
ATOM     16  C   UNL     1       0.001  -0.022   0.085  0.00  0.00    +0.002 A 
ATOM     17  C   UNL     1      -0.025   1.360   0.083  0.00  0.00    +0.004 A 
ATOM     18  C   UNL     1       1.154   2.080   0.039  0.00  0.00    +0.047 A 
ENDBRANCH   2  11
ENDBRANCH   1   4
BRANCH   1  19
ATOM     19  C   UNL     1       9.539   2.128  -1.022  0.00  0.00    +0.068 C 
BRANCH  19  20
ATOM     20  C   UNL     1      10.724   3.044  -0.852  0.00  0.00    -0.013 A 
ATOM     21  C   UNL     1      11.229   3.491   0.309  0.00  0.00    +0.088 A 
ATOM     22  N   UNL     1      12.305   4.301   0.069  0.00  0.00    -0.360 N 
ATOM     23  H   UNL     1      12.846   4.759   0.909  0.00  0.00    +0.165 HD
ATOM     24  C   UNL     1      12.525   4.397  -1.287  0.00  0.00    +0.047 A 
ATOM     25  C   UNL     1      11.548   3.609  -1.923  0.00  0.00    +0.003 A 
ATOM     26  C   UNL     1      11.530   3.513  -3.316  0.00  0.00    +0.010 A 
ATOM     27  C   UNL     1      12.464   4.183  -4.055  0.00  0.00    +0.001 A 
ATOM     28  C   UNL     1      13.432   4.958  -3.432  0.00  0.00    +0.002 A 
ATOM     29  C   UNL     1      13.464   5.074  -2.059  0.00  0.00    +0.026 A 
ENDBRANCH  19  20
BRANCH  19  30
ATOM     30  C   UNL     1       9.810   0.822  -0.321  0.00  0.00    -0.038 A 
ATOM     31  C   UNL     1      10.059   0.805   1.039  0.00  0.00    +0.004 A 
ATOM     32  C   UNL     1      10.303  -0.394   1.683  0.00  0.00    +0.000 A 
ATOM     33  C   UNL     1      10.307  -1.575   0.965  0.00  0.00    +0.000 A 
ATOM     34  C   UNL     1      10.062  -1.558  -0.395  0.00  0.00    +0.000 A 
ATOM     35  C   UNL     1       9.814  -0.360  -1.038  0.00  0.00    +0.004 A 
ENDBRANCH  19  30
ENDBRANCH   1  19
TORSDOF 5
