REMARK  Name = ZINC06732780
REMARK  5 active torsions:
REMARK  status: ('A' for Active; 'I' for Inactive)
REMARK    1  A    between atoms: C_1  and  C_2
REMARK    2  A    between atoms: C_5  and  C_8
REMARK    3  A    between atoms: C_13  and  C_15
REMARK    4  A    between atoms: N_22  and  C_23
REMARK    5  A    between atoms: C_23  and  C_24
REMARK                            x       y       z     vdW  Elec       q    Type
REMARK                         _______ _______ _______ _____ _____    ______ ____
ROOT
ATOM      1  C   UNL     1       0.002  -0.004   0.002  0.00  0.00    +0.281 C 
ATOM      2  O   UNL     1      -1.035  -0.626   0.118  0.00  0.00    -0.265 OA
ATOM      3  N   UNL     1      -0.018   1.343  -0.011  0.00  0.00    -0.162 N 
ATOM      4  C   UNL     1      -1.123   2.145  -0.012  0.00  0.00    +0.222 A 
ATOM      5  N   UNL     1      -0.714   3.393  -0.023  0.00  0.00    -0.193 NA
ATOM      6  C   UNL     1       0.628   3.430  -0.038  0.00  0.00    +0.184 A 
ATOM      7  N   UNL     1       1.093   2.202  -0.031  0.00  0.00    -0.141 NA
ATOM      8  N   UNL     1      -2.435   1.720  -0.000  0.00  0.00    -0.306 N 
ATOM      9  H   UNL     1      -2.638   0.772   0.010  0.00  0.00    +0.149 HD
ENDROOT
BRANCH   1  14
ATOM     10  C   UNL     1       5.000  -2.810  -0.494  0.00  0.00    +0.044 C 
ATOM     11  C   UNL     1       3.691  -2.075  -0.364  0.00  0.00    -0.050 A 
ATOM     12  C   UNL     1       2.502  -2.783  -0.357  0.00  0.00    +0.004 A 
ATOM     13  C   UNL     1       1.300  -2.116  -0.238  0.00  0.00    +0.013 A 
ATOM     14  C   UNL     1       1.285  -0.724  -0.125  0.00  0.00    +0.041 A 
ATOM     15  C   UNL     1       2.489  -0.016  -0.139  0.00  0.00    +0.013 A 
ATOM     16  C   UNL     1       3.684  -0.696  -0.252  0.00  0.00    +0.004 A 
ENDBRANCH   1  14
BRANCH   6  17
ATOM     17  C   UNL     1       1.454   4.662  -0.059  0.00  0.00    +0.021 A 
ATOM     18  C   UNL     1       0.842   5.915  -0.071  0.00  0.00    +0.013 A 
ATOM     19  C   UNL     1       1.615   7.058  -0.086  0.00  0.00    +0.021 A 
ATOM     20  C   UNL     1       2.996   6.962  -0.100  0.00  0.00    +0.041 A 
ATOM     21  C   UNL     1       3.609   5.720  -0.093  0.00  0.00    +0.021 A 
ATOM     22  C   UNL     1       2.845   4.571  -0.073  0.00  0.00    +0.013 A 
ATOM     23 CL   UNL     1       3.963   8.403  -0.125  0.00  0.00    -0.084 Cl
ENDBRANCH   6  17
BRANCH   8  24
ATOM     24  C   UNL     1      -3.523   2.702  -0.003  0.00  0.00    +0.178 C 
BRANCH  24  25
ATOM     25  C   UNL     1      -4.848   1.984   0.011  0.00  0.00    +0.122 A 
ATOM     26  C   UNL     1      -5.533   1.619   1.110  0.00  0.00    +0.046 A 
ATOM     27  C   UNL     1      -6.711   0.978   0.664  0.00  0.00    +0.041 A 
ATOM     28  C   UNL     1      -6.675   0.988  -0.681  0.00  0.00    +0.195 A 
ATOM     29  O   UNL     1      -5.547   1.604  -1.071  0.00  0.00    -0.466 OA
ENDBRANCH  24  25
ENDBRANCH   8  24
TORSDOF 4
