REMARK  Name = ZINC01774539
REMARK  11 active torsions:
REMARK  status: ('A' for Active; 'I' for Inactive)
REMARK    1  A    between atoms: C_1  and  C_2
REMARK    2  A    between atoms: C_2  and  C_4
REMARK    3  A    between atoms: C_2  and  N_12
REMARK    4  A    between atoms: C_4  and  C_5
REMARK    5  A    between atoms: C_5  and  C_6
REMARK    6  A    between atoms: C_13  and  C_15
REMARK    7  A    between atoms: C_15  and  S_16
REMARK    8  A    between atoms: S_16  and  C_17
REMARK    9  A    between atoms: N_33  and  C_34
REMARK   10  A    between atoms: C_34  and  C_35
REMARK   11  A    between atoms: C_35  and  C_36
REMARK                            x       y       z     vdW  Elec       q    Type
REMARK                         _______ _______ _______ _____ _____    ______ ____
ROOT
ATOM      1  C   UNL     1      -5.739  -1.846  -2.652  0.00  0.00    +0.198 A 
ATOM      2  N   UNL     1      -6.320  -2.170  -1.523  0.00  0.00    -0.120 NA
ATOM      3  N   UNL     1      -7.614  -2.619  -1.813  0.00  0.00    -0.109 NA
ATOM      4  C   UNL     1      -7.785  -2.556  -3.113  0.00  0.00    +0.240 A 
ATOM      5  N   UNL     1      -6.630  -2.071  -3.668  0.00  0.00    -0.249 N 
ATOM      6  C   UNL     1      -6.535  -1.896  -5.033  0.00  0.00    +0.102 A 
ATOM      7  C   UNL     1      -7.591  -2.198  -5.884  0.00  0.00    +0.074 A 
ATOM      8  C   UNL     1      -7.343  -1.959  -7.306  0.00  0.00    -0.023 A 
ATOM      9  C   UNL     1      -6.118  -1.478  -7.596  0.00  0.00    -0.004 A 
ATOM     10  S   UNL     1      -5.310  -1.343  -6.028  0.00  0.00    -0.074 S 
ATOM     11  C   UNL     1      -5.579  -1.141  -8.952  0.00  0.00    +0.043 C 
ATOM     12  C   UNL     1      -6.498  -1.776 -10.006  0.00  0.00    +0.005 C 
ATOM     13  C   UNL     1      -7.953  -1.454  -9.655  0.00  0.00    +0.005 C 
ATOM     14  C   UNL     1      -8.369  -2.222  -8.399  0.00  0.00    +0.037 C 
ATOM     15  C   UNL     1      -8.823  -2.718  -5.247  0.00  0.00    +0.264 A 
ATOM     16  O   UNL     1      -9.789  -3.005  -5.930  0.00  0.00    -0.267 OA
ATOM     17  N   UNL     1      -8.867  -2.879  -3.914  0.00  0.00    -0.276 N 
ENDROOT
BRANCH   1  18
ATOM     18  S   UNL     1      -4.100  -1.225  -2.832  0.00  0.00    -0.076 S 
BRANCH  18  19
ATOM     19  C   UNL     1      -3.465  -1.164  -1.134  0.00  0.00    +0.173 C 
BRANCH  19  21
ATOM     20  N   UNL     1      -1.372  -0.511   0.012  0.00  0.00    -0.312 N 
ATOM     21  C   UNL     1      -2.051  -0.643  -1.145  0.00  0.00    +0.224 C 
ATOM     22  O   UNL     1      -1.524  -0.341  -2.194  0.00  0.00    -0.275 OA
ATOM     23  H   UNL     1      -1.794  -0.752   0.852  0.00  0.00    +0.149 HD
BRANCH  20  25
ATOM     24  C   UNL     1      -0.019   1.526   0.010  0.00  0.00    +0.028 C 
ATOM     25  C   UNL     1       0.002  -0.004   0.002  0.00  0.00    +0.070 C 
BRANCH  25  26
ATOM     26  C   UNL     1       0.742  -0.511   1.242  0.00  0.00    +0.026 C 
BRANCH  26  27
ATOM     27  C   UNL     1       0.872  -2.034   1.171  0.00  0.00    +0.037 C 
BRANCH  27  28
ATOM     28  C   UNL     1       1.601  -2.533   2.392  0.00  0.00    -0.047 A 
ATOM     29  C   UNL     1       2.979  -2.641   2.378  0.00  0.00    +0.003 A 
ATOM     30  C   UNL     1       3.647  -3.099   3.498  0.00  0.00    +0.000 A 
ATOM     31  C   UNL     1       2.938  -3.448   4.632  0.00  0.00    +0.000 A 
ATOM     32  C   UNL     1       1.560  -3.340   4.646  0.00  0.00    +0.000 A 
ATOM     33  C   UNL     1       0.892  -2.878   3.527  0.00  0.00    +0.003 A 
ENDBRANCH  27  28
ENDBRANCH  26  27
ENDBRANCH  25  26
ENDBRANCH  20  25
ENDBRANCH  19  21
ENDBRANCH  18  19
ENDBRANCH   1  18
BRANCH  17  34
ATOM     34  C   UNL     1     -10.091  -3.392  -3.294  0.00  0.00    +0.133 C 
BRANCH  34  35
ATOM     35  C   UNL     1     -11.016  -2.223  -2.947  0.00  0.00    +0.057 C 
BRANCH  35  36
ATOM     36  C   UNL     1     -12.275  -2.751  -2.309  0.00  0.00    -0.046 A 
ATOM     37  C   UNL     1     -13.362  -3.083  -3.096  0.00  0.00    +0.004 A 
ATOM     38  C   UNL     1     -14.517  -3.567  -2.510  0.00  0.00    +0.000 A 
ATOM     39  C   UNL     1     -14.584  -3.720  -1.138  0.00  0.00    +0.000 A 
ATOM     40  C   UNL     1     -13.497  -3.389  -0.351  0.00  0.00    +0.000 A 
ATOM     41  C   UNL     1     -12.341  -2.909  -0.937  0.00  0.00    +0.004 A 
ENDBRANCH  35  36
ENDBRANCH  34  35
ENDBRANCH  17  34
TORSDOF 10
