REMARK  Name = ZINC47103244
REMARK  3 active torsions:
REMARK  status: ('A' for Active; 'I' for Inactive)
REMARK    1  A    between atoms: C_1  and  C_2
REMARK    2  A    between atoms: C_2  and  C_3
REMARK    3  A    between atoms: C_10  and  C_12
REMARK                            x       y       z     vdW  Elec       q    Type
REMARK                         _______ _______ _______ _____ _____    ______ ____
ROOT
ATOM      1  C   UNL     1      -5.882  -0.653   1.549  0.00  0.00    +0.039 A 
ATOM      2  C   UNL     1      -6.055  -1.976   1.985  0.00  0.00    +0.014 A 
ATOM      3  C   UNL     1      -7.278  -2.571   1.937  0.00  0.00    +0.016 A 
ATOM      4  C   UNL     1      -8.383  -1.860   1.448  0.00  0.00    +0.065 A 
ATOM      5  C   UNL     1      -8.223  -0.521   1.004  0.00  0.00    +0.080 A 
ATOM      6  C   UNL     1      -6.956   0.077   1.066  0.00  0.00    +0.041 A 
ATOM      7  N   UNL     1      -9.290   0.145   0.539  0.00  0.00    -0.223 NA
ATOM      8  C   UNL     1     -10.481  -0.432   0.493  0.00  0.00    +0.180 A 
ATOM      9  N   UNL     1     -10.684  -1.695   0.901  0.00  0.00    -0.301 N 
ATOM     10  H   UNL     1     -11.575  -2.077   0.849  0.00  0.00    +0.171 HD
ATOM     11  C   UNL     1      -9.667  -2.441   1.383  0.00  0.00    +0.260 A 
ATOM     12  O   UNL     1      -9.873  -3.706   1.792  0.00  0.00    -0.267 OA
ATOM     13  S   UNL     1     -11.809   0.465  -0.109  0.00  0.00    -0.011 S 
ENDROOT
BRANCH   1  20
ATOM     14  C   UNL     1      -1.621  -0.036  -0.375  0.00  0.00    +0.006 C 
ATOM     15  C   UNL     1      -1.631  -1.471  -0.905  0.00  0.00    +0.006 C 
ATOM     16  C   UNL     1      -3.066  -2.003  -0.917  0.00  0.00    +0.019 C 
ATOM     17  C   UNL     1      -3.616  -2.011   0.513  0.00  0.00    +0.108 C 
ATOM     18  N   UNL     1      -3.476  -0.664   1.081  0.00  0.00    -0.297 N 
ATOM     19  C   UNL     1      -2.155  -0.021   1.061  0.00  0.00    +0.111 C 
ATOM     20  C   UNL     1      -4.540  -0.029   1.611  0.00  0.00    +0.247 C 
ATOM     21  O   UNL     1      -4.398   1.056   2.140  0.00  0.00    -0.270 OA
BRANCH  14  23
ATOM     22  C   UNL     1      -0.198   1.979   0.019  0.00  0.00    +0.004 C 
ATOM     23  C   UNL     1      -0.191   0.506  -0.393  0.00  0.00    +0.002 C 
ENDBRANCH  14  23
ENDBRANCH   1  20
TORSDOF 2
