REMARK  Name = ZINC16116408
REMARK  6 active torsions:
REMARK  status: ('A' for Active; 'I' for Inactive)
REMARK    1  A    between atoms: C_3  and  C_29
REMARK    2  A    between atoms: C_6  and  C_7
REMARK    3  A    between atoms: C_7  and  O_8
REMARK    4  A    between atoms: O_8  and  C_9
REMARK    5  A    between atoms: C_9  and  C_11
REMARK    6  A    between atoms: C_17  and  C_19
REMARK                            x       y       z     vdW  Elec       q    Type
REMARK                         _______ _______ _______ _____ _____    ______ ____
ROOT
ATOM      1  C   UNL     1      -4.522  -0.296   2.858  0.00  0.00    +0.185 C 
ATOM      2  C   UNL     1      -3.440  -1.210   3.471  0.00  0.00    +0.035 C 
ATOM      3  C   UNL     1      -4.275  -2.265   4.244  0.00  0.00    +0.021 C 
ATOM      4  C   UNL     1      -5.505  -2.429   3.317  0.00  0.00    +0.109 C 
ATOM      5  N   UNL     1      -5.768  -1.074   2.797  0.00  0.00    -0.288 N 
ATOM      6  C   UNL     1      -6.954  -0.624   2.341  0.00  0.00    +0.222 C 
ATOM      7  O   UNL     1      -7.075   0.536   2.010  0.00  0.00    -0.275 OA
ENDROOT
BRANCH   6   8
ATOM      8  C   UNL     1      -8.129  -1.563   2.244  0.00  0.00    +0.048 C 
ATOM      9  C   UNL     1      -8.613  -1.922   3.650  0.00  0.00    +0.019 C 
ATOM     10  C   UNL     1      -9.806  -2.875   3.551  0.00  0.00    -0.009 C 
ATOM     11  C   UNL     1     -10.939  -2.195   2.779  0.00  0.00    +0.007 C 
ATOM     12  C   UNL     1     -10.454  -1.836   1.373  0.00  0.00    -0.009 C 
ATOM     13  C   UNL     1      -9.262  -0.883   1.472  0.00  0.00    +0.019 C 
ATOM     14  C   UNL     1     -10.030  -3.110   0.639  0.00  0.00    +0.007 C 
ATOM     15  C   UNL     1      -8.897  -3.789   1.411  0.00  0.00    -0.009 C 
ATOM     16  C   UNL     1      -9.382  -4.149   2.817  0.00  0.00    +0.007 C 
ATOM     17  C   UNL     1      -7.704  -2.837   1.510  0.00  0.00    +0.019 C 
ENDBRANCH   6   8
BRANCH   1  18
ATOM     18  C   UNL     1      -4.112   0.124   1.470  0.00  0.00    +0.328 C 
ATOM     19  O   UNL     1      -4.794  -0.180   0.520  0.00  0.00    -0.249 OA
BRANCH  18  20
ATOM     20  O   UNL     1      -2.988   0.836   1.289  0.00  0.00    -0.459 OA
BRANCH  20  21
ATOM     21  C   UNL     1      -2.654   1.205  -0.075  0.00  0.00    +0.267 C 
BRANCH  21  27
ATOM     22  C   UNL     1      -0.159   1.337  -0.208  0.00  0.00    +0.008 A 
ATOM     23  C   UNL     1       1.019   2.054  -0.222  0.00  0.00    +0.013 A 
ATOM     24  C   UNL     1       0.988   3.445  -0.102  0.00  0.00    +0.037 A 
ATOM     25  C   UNL     1      -0.237   4.100   0.031  0.00  0.00    +0.013 A 
ATOM     26  C   UNL     1      -1.408   3.371   0.043  0.00  0.00    +0.008 A 
ATOM     27  C   UNL     1      -1.371   1.994  -0.082  0.00  0.00    -0.010 A 
BRANCH  24  28
ATOM     28  C   UNL     1       2.248   4.219  -0.116  0.00  0.00    +0.242 C 
ATOM     29  O   UNL     1       3.313   3.646  -0.232  0.00  0.00    -0.270 OA
ATOM     30  N   UNL     1       2.214   5.562  -0.000  0.00  0.00    -0.325 N 
ATOM     31  H   UNL     1       1.364   6.019   0.092  0.00  0.00    +0.145 HD
ATOM     32  H   UNL     1       3.040   6.070  -0.009  0.00  0.00    +0.145 HD
ENDBRANCH  24  28
ENDBRANCH  21  27
ENDBRANCH  20  21
ENDBRANCH  18  20
ENDBRANCH   1  18
TORSDOF 6
