REMARK  Name = ZINC12704229
REMARK  9 active torsions:
REMARK  status: ('A' for Active; 'I' for Inactive)
REMARK    1  A    between atoms: C_4  and  C_7
REMARK    2  A    between atoms: C_7  and  N_8
REMARK    3  A    between atoms: N_8  and  C_9
REMARK    4  A    between atoms: C_9  and  C_11
REMARK    5  A    between atoms: C_9  and  C_16
REMARK    6  A    between atoms: N_18  and  C_19
REMARK    7  A    between atoms: C_24  and  C_26
REMARK    8  A    between atoms: C_26  and  N_27
REMARK    9  A    between atoms: C_29  and  C_32
REMARK                            x       y       z     vdW  Elec       q    Type
REMARK                         _______ _______ _______ _____ _____    ______ ____
ROOT
ATOM      1  N   UNL     1       4.905  -1.502  -1.524  0.00  0.00    -0.280 N 
ATOM      2  C   UNL     1       5.081  -0.233  -1.940  0.00  0.00    +0.240 C 
ATOM      3  O   UNL     1       4.456   0.185  -2.891  0.00  0.00    -0.273 OA
ENDROOT
BRANCH   1   4
ATOM      4  C   UNL     1       5.649  -2.003  -0.365  0.00  0.00    +0.144 C 
BRANCH   4   8
ATOM      5  C   UNL     1       3.629  -0.869   3.223  0.00  0.00    +0.000 A 
ATOM      6  C   UNL     1       4.483   0.022   2.600  0.00  0.00    +0.000 A 
ATOM      7  C   UNL     1       5.136  -0.345   1.439  0.00  0.00    +0.005 A 
ATOM      8  C   UNL     1       4.937  -1.603   0.901  0.00  0.00    -0.030 A 
ATOM      9  C   UNL     1       4.083  -2.494   1.524  0.00  0.00    +0.005 A 
ATOM     10  C   UNL     1       3.429  -2.127   2.686  0.00  0.00    +0.000 A 
ENDBRANCH   4   8
ENDBRANCH   1   4
BRANCH   1  11
ATOM     11  C   UNL     1       3.970  -2.382  -2.229  0.00  0.00    +0.199 C 
BRANCH  11  12
ATOM     12  C   UNL     1       4.681  -3.646  -2.639  0.00  0.00    +0.019 A 
ATOM     13  C   UNL     1       4.688  -4.270  -3.842  0.00  0.00    +0.013 A 
ATOM     14  C   UNL     1       5.423  -5.430  -3.992  0.00  0.00    +0.008 A 
ATOM     15  C   UNL     1       6.108  -5.916  -2.928  0.00  0.00    +0.045 A 
ATOM     16  S   UNL     1       5.727  -4.714  -1.664  0.00  0.00    -0.099 S 
ENDBRANCH  11  12
BRANCH  11  17
ATOM     17  C   UNL     1       2.819  -2.726  -1.319  0.00  0.00    +0.239 C 
ATOM     18  O   UNL     1       2.538  -1.994  -0.394  0.00  0.00    -0.273 OA
ATOM     19  N   UNL     1       2.102  -3.847  -1.533  0.00  0.00    -0.311 N 
ATOM     20  H   UNL     1       2.327  -4.432  -2.273  0.00  0.00    +0.149 HD
BRANCH  19  21
ATOM     21  C   UNL     1       0.984  -4.181  -0.648  0.00  0.00    +0.073 C 
ATOM     22  C   UNL     1       1.490  -4.996   0.559  0.00  0.00    +0.022 C 
ATOM     23  C   UNL     1       0.362  -6.024   0.824  0.00  0.00    +0.002 C 
ATOM     24  C   UNL     1      -0.098  -6.402  -0.606  0.00  0.00    +0.002 C 
ATOM     25  C   UNL     1      -0.026  -5.074  -1.389  0.00  0.00    +0.022 C 
ENDBRANCH  19  21
ENDBRANCH  11  17
ENDBRANCH   1  11
BRANCH   2  26
ATOM     26  C   UNL     1       6.054   0.667  -1.223  0.00  0.00    +0.264 C 
BRANCH  26  27
ATOM     27  N   UNL     1       6.500   1.727  -2.132  0.00  0.00    -0.154 N 
ATOM     28  N   UNL     1       7.526   1.660  -2.908  0.00  0.00    -0.130 NA
ATOM     29  C   UNL     1       7.605   2.797  -3.571  0.00  0.00    +0.205 A 
ATOM     30  N   UNL     1       6.583   3.557  -3.152  0.00  0.00    -0.108 NA
ATOM     31  N   UNL     1       5.931   2.873  -2.275  0.00  0.00    -0.045 NA
BRANCH  29  32
ATOM     32  C   UNL     1       8.629   3.166  -4.580  0.00  0.00    +0.023 A 
ATOM     33  C   UNL     1       9.641   2.266  -4.909  0.00  0.00    +0.014 A 
ATOM     34  C   UNL     1      10.588   2.611  -5.851  0.00  0.00    +0.039 A 
ATOM     35  C   UNL     1      10.541   3.854  -6.461  0.00  0.00    +0.123 A 
ATOM     36  C   UNL     1       9.540   4.753  -6.133  0.00  0.00    +0.039 A 
ATOM     37  C   UNL     1       8.585   4.414  -5.196  0.00  0.00    +0.014 A 
ATOM     38  F   UNL     1      11.474   4.189  -7.379  0.00  0.00    -0.205 F 
ENDBRANCH  29  32
ENDBRANCH  26  27
ENDBRANCH   2  26
TORSDOF 9
