REMARK  Name = ZINC39406672
REMARK  10 active torsions:
REMARK  status: ('A' for Active; 'I' for Inactive)
REMARK    1  A    between atoms: C_1  and  C_2
REMARK    2  A    between atoms: C_2  and  C_3
REMARK    3  A    between atoms: C_3  and  C_4
REMARK    4  A    between atoms: C_3  and  C_5
REMARK    5  A    between atoms: C_3  and  C_6
REMARK    6  A    between atoms: C_10  and  N_13
REMARK    7  A    between atoms: N_16  and  C_17
REMARK    8  A    between atoms: N_16  and  C_18
REMARK    9  A    between atoms: C_18  and  C_19
REMARK   10  A    between atoms: C_24  and  C_25
REMARK                            x       y       z     vdW  Elec       q    Type
REMARK                         _______ _______ _______ _____ _____    ______ ____
ROOT
ATOM      1  N   UNL     1      -1.229  -5.385  -1.903  0.00  0.00    -0.274 N 
ATOM      2  C   UNL     1      -1.912  -6.491  -2.259  0.00  0.00    +0.304 C 
ATOM      3  O   UNL     1      -3.097  -6.415  -2.521  0.00  0.00    -0.253 OA
ATOM      4  N   UNL     1      -1.282  -7.681  -2.325  0.00  0.00    -0.288 N 
ATOM      5  C   UNL     1       0.146  -7.772  -2.010  0.00  0.00    +0.133 C 
ATOM      6  H   UNL     1      -0.283  -5.445  -1.695  0.00  0.00    +0.153 HD
ENDROOT
BRANCH   1  10
ATOM      7  C   UNL     1      -1.413  -2.063   0.004  0.00  0.00    +0.135 C 
ATOM      8  N   UNL     1      -2.796  -2.628  -0.089  0.00  0.00    -0.241 NA
ATOM      9  N   UNL     1      -2.743  -3.993  -0.599  0.00  0.00    -0.226 NA
ATOM     10  C   UNL     1      -1.913  -4.092  -1.832  0.00  0.00    +0.218 C 
ATOM     11  S   UNL     1      -0.710  -2.719  -1.571  0.00  0.00    -0.101 S 
ATOM     12  H   UNL     1      -3.261  -2.594   0.805  0.00  0.00    +0.142 HD
ATOM     13  H   UNL     1      -3.671  -4.356  -0.757  0.00  0.00    +0.143 HD
BRANCH   7  14
ATOM     14  C   UNL     1      -1.433  -0.534   0.013  0.00  0.00    -0.009 C 
ATOM     15  C   UNL     1      -2.149  -0.040   1.272  0.00  0.00    +0.013 C 
ATOM     16  C   UNL     1      -2.173  -0.027  -1.227  0.00  0.00    +0.013 C 
BRANCH  14  18
ATOM     17  C   UNL     1      -0.019   1.526   0.010  0.00  0.00    +0.004 C 
ATOM     18  C   UNL     1       0.002  -0.004   0.002  0.00  0.00    +0.005 C 
ENDBRANCH  14  18
ENDBRANCH   7  14
ENDBRANCH   1  10
BRANCH   4  19
ATOM     19  C   UNL     1      -2.025  -8.883  -2.711  0.00  0.00    +0.124 C 
BRANCH  19  20
ATOM     20  C   UNL     1      -1.962  -9.054  -4.230  0.00  0.00    +0.100 C 
ATOM     21  C   UNL     1      -2.755  -7.965  -4.924  0.00  0.00    +0.119 C 
ATOM     22  N   UNL     1      -3.693  -8.566  -5.581  0.00  0.00    -0.161 NA
ATOM     23  N   UNL     1      -3.650  -9.947  -5.427  0.00  0.00    -0.153 NA
ATOM     24  C   UNL     1      -2.666 -10.329  -4.653  0.00  0.00    +0.080 C 
BRANCH  24  25
ATOM     25  C   UNL     1      -2.315 -11.706  -4.271  0.00  0.00    -0.001 A 
ATOM     26  C   UNL     1      -1.228 -11.944  -3.424  0.00  0.00    +0.010 A 
ATOM     27  C   UNL     1      -0.905 -13.238  -3.070  0.00  0.00    +0.001 A 
ATOM     28  C   UNL     1      -1.653 -14.298  -3.552  0.00  0.00    +0.000 A 
ATOM     29  C   UNL     1      -2.729 -14.070  -4.392  0.00  0.00    +0.001 A 
ATOM     30  C   UNL     1      -3.069 -12.782  -4.749  0.00  0.00    +0.010 A 
ENDBRANCH  24  25
ENDBRANCH  19  20
ENDBRANCH   4  19
TORSDOF 6
