REMARK  Name = ZINC57998141
REMARK  6 active torsions:
REMARK  status: ('A' for Active; 'I' for Inactive)
REMARK    1  A    between atoms: C_3  and  N_11
REMARK    2  A    between atoms: C_6  and  C_7
REMARK    3  A    between atoms: C_7  and  C_8
REMARK    4  A    between atoms: N_11  and  C_12
REMARK    5  A    between atoms: C_12  and  C_13
REMARK    6  A    between atoms: C_16  and  O_20
REMARK                            x       y       z     vdW  Elec       q    Type
REMARK                         _______ _______ _______ _____ _____    ______ ____
ROOT
ATOM      1  C   UNL     1      -0.017   1.379   0.010  0.00  0.00    +0.006 A 
ATOM      2  C   UNL     1       1.169   2.087   0.002  0.00  0.00    +0.023 A 
ATOM      3  C   UNL     1       2.381   1.409  -0.013  0.00  0.00    +0.027 A 
ATOM      4  C   UNL     1       2.396   0.020  -0.021  0.00  0.00    +0.023 A 
ATOM      5  C   UNL     1       1.207  -0.682  -0.013  0.00  0.00    +0.006 A 
ATOM      6  C   UNL     1       0.002  -0.004   0.002  0.00  0.00    -0.039 A 
ENDROOT
BRANCH   3   7
ATOM      7  N   UNL     1       3.582   2.122  -0.021  0.00  0.00    -0.340 N 
ATOM      8  H   UNL     1       3.570   3.092  -0.016  0.00  0.00    +0.146 HD
BRANCH   7   9
ATOM      9  C   UNL     1       4.860   1.405  -0.037  0.00  0.00    +0.137 C 
BRANCH   9  10
ATOM     10  C   UNL     1       5.993   2.398  -0.043  0.00  0.00    -0.029 A 
ATOM     11  C   UNL     1       6.497   2.864  -1.244  0.00  0.00    +0.009 A 
ATOM     12  C   UNL     1       7.536   3.774  -1.253  0.00  0.00    +0.047 A 
ATOM     13  C   UNL     1       8.074   4.222  -0.055  0.00  0.00    +0.131 A 
ATOM     14  C   UNL     1       7.567   3.754   1.149  0.00  0.00    +0.060 A 
ATOM     15  C   UNL     1       6.523   2.847   1.152  0.00  0.00    +0.024 A 
ATOM     16 BR   UNL     1       8.298   4.362   2.784  0.00  0.00    -0.047 Br
BRANCH  13  17
ATOM     17  O   UNL     1       9.097   5.117  -0.061  0.00  0.00    -0.506 OA
ATOM     18  H   UNL     1       8.811   6.041  -0.050  0.00  0.00    +0.292 HD
ENDBRANCH  13  17
ENDBRANCH   9  10
ENDBRANCH   7   9
ENDBRANCH   3   7
BRANCH   6  19
ATOM     19  C   UNL     1      -1.294  -0.774   0.011  0.00  0.00    +0.130 C 
BRANCH  19  20
ATOM     20  C   UNL     1      -1.740  -1.022  -1.407  0.00  0.00    +0.215 C 
ATOM     21  O   UNL     1      -1.071  -0.615  -2.333  0.00  0.00    -0.276 OA
ATOM     22  N   UNL     1      -2.881  -1.698  -1.646  0.00  0.00    -0.329 N 
ATOM     23  H   UNL     1      -3.416  -2.023  -0.905  0.00  0.00    +0.145 HD
ATOM     24  H   UNL     1      -3.168  -1.858  -2.558  0.00  0.00    +0.145 HD
ENDBRANCH  19  20
ENDBRANCH   6  19
TORSDOF 6
