REMARK  Name = ZINC16109637
REMARK  9 active torsions:
REMARK  status: ('A' for Active; 'I' for Inactive)
REMARK    1  A    between atoms: C_1  and  C_2
REMARK    2  A    between atoms: C_2  and  C_4
REMARK    3  A    between atoms: C_2  and  N_14
REMARK    4  A    between atoms: C_7  and  S_10
REMARK    5  A    between atoms: S_10  and  C_13
REMARK    6  A    between atoms: C_15  and  C_17
REMARK    7  A    between atoms: C_17  and  C_18
REMARK    8  A    between atoms: C_18  and  N_19
REMARK    9  A    between atoms: N_22  and  C_23
REMARK                            x       y       z     vdW  Elec       q    Type
REMARK                         _______ _______ _______ _____ _____    ______ ____
ROOT
ATOM      1  C   UNL     1      -4.462   6.208   5.929  0.00  0.00    +0.114 C 
ENDROOT
BRANCH   1   3
ATOM      2  N   UNL     1      -3.064   4.307   5.187  0.00  0.00    -0.309 N 
ATOM      3  C   UNL     1      -4.077   4.752   5.958  0.00  0.00    +0.215 C 
ATOM      4  O   UNL     1      -4.678   3.979   6.674  0.00  0.00    -0.276 OA
ATOM      5  H   UNL     1      -2.584   4.925   4.614  0.00  0.00    +0.149 HD
BRANCH   2   7
ATOM      6  C   UNL     1      -1.722   2.642   6.373  0.00  0.00    +0.033 C 
ATOM      7  C   UNL     1      -2.690   2.891   5.215  0.00  0.00    +0.100 C 
BRANCH   7   8
ATOM      8  C   UNL     1      -2.022   2.523   3.915  0.00  0.00    -0.027 A 
ATOM      9  C   UNL     1      -2.295   1.306   3.318  0.00  0.00    +0.007 A 
ATOM     10  C   UNL     1      -1.683   0.968   2.126  0.00  0.00    +0.027 A 
ATOM     11  C   UNL     1      -0.798   1.847   1.530  0.00  0.00    +0.088 A 
ATOM     12  C   UNL     1      -0.521   3.062   2.129  0.00  0.00    +0.027 A 
ATOM     13  C   UNL     1      -1.137   3.402   3.319  0.00  0.00    +0.007 A 
BRANCH  11  14
ATOM     14  S   UNL     1      -0.017   1.417   0.010  0.00  0.00    -0.006 S 
ATOM     15  O   UNL     1       0.002  -0.004   0.002  0.00  0.00    -0.170 OA
ATOM     16  O   UNL     1       1.195   2.158   0.002  0.00  0.00    -0.170 OA
ATOM     17  C   UNL     1      -1.135   2.034  -1.279  0.00  0.00    +0.200 C 
ENDBRANCH  11  14
ENDBRANCH   7   8
ENDBRANCH   2   7
ENDBRANCH   1   3
BRANCH   1  18
ATOM     18  C   UNL     1      -5.631   6.446   6.888  0.00  0.00    +0.115 C 
BRANCH  18  19
ATOM     19  N   UNL     1      -6.005   7.862   6.860  0.00  0.00    -0.299 N 
ATOM     20  C   UNL     1      -7.018   8.306   7.631  0.00  0.00    +0.300 C 
ATOM     21  O   UNL     1      -7.620   7.532   8.349  0.00  0.00    -0.253 OA
ATOM     22  N   UNL     1      -7.362   9.609   7.606  0.00  0.00    -0.294 N 
ATOM     23  H   UNL     1      -5.524   8.479   6.287  0.00  0.00    +0.150 HD
ATOM     24  H   UNL     1      -6.881  10.226   7.033  0.00  0.00    +0.151 HD
BRANCH  22  25
ATOM     25  C   UNL     1      -8.463  10.092   8.444  0.00  0.00    +0.037 C 
ATOM     26  C   UNL     1      -9.752   9.361   8.063  0.00  0.00    +0.029 C 
ATOM     27  C   UNL     1     -10.901   9.866   8.938  0.00  0.00    -0.008 C 
ATOM     28  C   UNL     1     -11.084  11.369   8.722  0.00  0.00    +0.007 C 
ATOM     29  C   UNL     1      -9.795  12.100   9.103  0.00  0.00    -0.008 C 
ATOM     30  C   UNL     1      -8.646  11.595   8.228  0.00  0.00    +0.029 C 
ATOM     31  C   UNL     1      -9.472  11.832  10.574  0.00  0.00    +0.007 C 
ATOM     32  C   UNL     1      -9.288  10.328  10.790  0.00  0.00    -0.008 C 
ATOM     33  C   UNL     1     -10.578   9.597  10.409  0.00  0.00    +0.007 C 
ATOM     34  C   UNL     1      -8.139   9.824   9.915  0.00  0.00    +0.029 C 
ENDBRANCH  22  25
ENDBRANCH  18  19
ENDBRANCH   1  18
TORSDOF 7
