REMARK  Name = ZINC22749828
REMARK  8 active torsions:
REMARK  status: ('A' for Active; 'I' for Inactive)
REMARK    1  A    between atoms: C_3  and  C_6
REMARK    2  A    between atoms: C_6  and  N_7
REMARK    3  A    between atoms: C_8  and  C_29
REMARK    4  A    between atoms: C_11  and  S_12
REMARK    5  A    between atoms: S_12  and  C_13
REMARK    6  A    between atoms: C_13  and  C_14
REMARK    7  A    between atoms: C_29  and  C_30
REMARK    8  A    between atoms: C_30  and  C_31
REMARK                            x       y       z     vdW  Elec       q    Type
REMARK                         _______ _______ _______ _____ _____    ______ ____
ROOT
ATOM      1  S   UNL     1       4.733   4.626  -2.159  0.00  0.00    -0.078 S 
ENDROOT
BRANCH   1   6
ATOM      2  N   UNL     1       6.162   6.808  -3.170  0.00  0.00    -0.299 N 
ATOM      3  C   UNL     1       6.915   7.823  -2.646  0.00  0.00    +0.135 A 
ATOM      4  N   UNL     1       6.931   7.664  -1.352  0.00  0.00    -0.133 NA
ATOM      5  N   UNL     1       6.242   6.630  -1.026  0.00  0.00    -0.122 NA
ATOM      6  C   UNL     1       5.744   6.068  -2.102  0.00  0.00    +0.192 A 
BRANCH   2   7
ATOM      7  C   UNL     1       5.865   6.568  -4.584  0.00  0.00    +0.199 C 
BRANCH   7  10
ATOM      8  C   UNL     1       3.161   8.832  -5.654  0.00  0.00    +0.041 A 
ATOM      9  C   UNL     1       4.529   8.556  -5.428  0.00  0.00    +0.046 A 
ATOM     10  C   UNL     1       4.601   7.296  -4.963  0.00  0.00    +0.125 A 
ATOM     11  O   UNL     1       3.356   6.800  -4.887  0.00  0.00    -0.466 OA
ATOM     12  C   UNL     1       2.478   7.727  -5.305  0.00  0.00    +0.195 A 
ENDBRANCH   7  10
ENDBRANCH   2   7
BRANCH   3  13
ATOM     13  C   UNL     1       7.602   8.918  -3.420  0.00  0.00    +0.085 C 
BRANCH  13  14
ATOM     14  C   UNL     1       9.014   8.466  -3.798  0.00  0.00    +0.103 C 
BRANCH  14  15
ATOM     15  C   UNL     1       9.701   9.561  -4.572  0.00  0.00    +0.211 C 
ATOM     16  O   UNL     1       9.119  10.600  -4.800  0.00  0.00    -0.276 OA
ATOM     17  N   UNL     1      10.963   9.385  -5.012  0.00  0.00    -0.329 N 
ATOM     18  H   UNL     1      11.465  10.184  -5.578  0.00  0.00    +0.145 HD
ATOM     19  H   UNL     1      11.491   8.442  -4.806  0.00  0.00    +0.145 HD
ENDBRANCH  14  15
ENDBRANCH  13  14
ENDBRANCH   3  13
ENDBRANCH   1   6
BRANCH   1  20
ATOM     20  C   UNL     1       4.636   4.240  -0.393  0.00  0.00    +0.153 C 
BRANCH  20  21
ATOM     21  C   UNL     1       3.795   3.006  -0.194  0.00  0.00    +0.143 A 
ATOM     22  N   UNL     1       4.377   1.819  -0.201  0.00  0.00    -0.216 NA
ATOM     23  C   UNL     1       3.694   0.699  -0.031  0.00  0.00    +0.128 A 
ATOM     24  C   UNL     1       2.287   0.770   0.166  0.00  0.00    +0.051 A 
ATOM     25  C   UNL     1       1.337  -0.329   0.375  0.00  0.00    -0.025 A 
ATOM     26  C   UNL     1       0.042   0.011   0.534  0.00  0.00    -0.004 A 
ATOM     27  S   UNL     1       0.009   1.782   0.424  0.00  0.00    -0.073 S 
ATOM     28  C   UNL     1       1.739   2.066   0.160  0.00  0.00    +0.114 A 
ATOM     29  N   UNL     1       2.494   3.134  -0.017  0.00  0.00    -0.224 NA
ATOM     30  C   UNL     1      -1.127  -0.900   0.743  0.00  0.00    +0.043 C 
ATOM     31  C   UNL     1      -0.796  -1.905   1.855  0.00  0.00    +0.005 C 
ATOM     32  C   UNL     1      -0.147  -3.129   1.217  0.00  0.00    +0.001 C 
ATOM     33  C   UNL     1       0.675  -2.710  -0.001  0.00  0.00    +0.005 C 
ATOM     34  C   UNL     1       1.808  -1.780   0.416  0.00  0.00    +0.037 C 
ATOM     35  N   UNL     1       4.340  -0.525  -0.044  0.00  0.00    -0.343 N 
ATOM     36  H   UNL     1       3.764  -1.452   0.098  0.00  0.00    +0.144 HD
ATOM     37  H   UNL     1       5.428  -0.571  -0.197  0.00  0.00    +0.144 HD
ENDBRANCH  20  21
ENDBRANCH   1  20
TORSDOF 8
