REMARK  Name = ZINC36637960
REMARK  12 active torsions:
REMARK  status: ('A' for Active; 'I' for Inactive)
REMARK    1  A    between atoms: C_1  and  C_2
REMARK    2  A    between atoms: C_2  and  N_3
REMARK    3  A    between atoms: N_3  and  C_4
REMARK    4  A    between atoms: N_3  and  C_6
REMARK    5  A    between atoms: C_4  and  C_5
REMARK    6  A    between atoms: C_6  and  C_7
REMARK    7  A    between atoms: C_7  and  N_8
REMARK    8  A    between atoms: C_12  and  C_18
REMARK    9  A    between atoms: C_19  and  C_21
REMARK   10  A    between atoms: C_24  and  S_27
REMARK   11  A    between atoms: S_27  and  N_30
REMARK   12  A    between atoms: C_33  and  C_36
REMARK                            x       y       z     vdW  Elec       q    Type
REMARK                         _______ _______ _______ _____ _____    ______ ____
ROOT
ATOM      1  N   UNL     1       1.135  -4.229  -3.058  0.00  0.00    -0.248 N 
ATOM      2  C   UNL     1       0.341  -4.825  -4.023  0.00  0.00    +0.168 A 
ATOM      3  N   UNL     1      -0.153  -6.041  -4.046  0.00  0.00    -0.224 NA
ATOM      4  C   UNL     1      -0.919  -6.494  -5.062  0.00  0.00    +0.083 A 
ATOM      5  C   UNL     1      -1.508  -7.771  -5.210  0.00  0.00    -0.024 A 
ATOM      6  C   UNL     1      -2.264  -8.071  -6.313  0.00  0.00    +0.005 A 
ATOM      7  C   UNL     1      -2.478  -7.140  -7.320  0.00  0.00    +0.001 A 
ATOM      8  C   UNL     1      -1.916  -5.881  -7.209  0.00  0.00    +0.017 A 
ATOM      9  C   UNL     1      -1.158  -5.572  -6.107  0.00  0.00    +0.041 A 
ATOM     10  S   UNL     1      -0.277  -4.133  -5.550  0.00  0.00    -0.052 S 
ATOM     11  C   UNL     1      -1.303  -8.814  -4.142  0.00  0.00    +0.046 C 
ATOM     12  C   UNL     1       1.500  -4.924  -1.963  0.00  0.00    +0.252 C 
ATOM     13  O   UNL     1       1.178  -6.090  -1.847  0.00  0.00    -0.270 OA
ENDROOT
BRANCH  12  14
ATOM     14  C   UNL     1       2.293  -4.268  -0.902  0.00  0.00    +0.037 A 
ATOM     15  C   UNL     1       2.157  -2.898  -0.671  0.00  0.00    +0.015 A 
ATOM     16  C   UNL     1       2.900  -2.291   0.321  0.00  0.00    +0.029 A 
ATOM     17  C   UNL     1       3.778  -3.038   1.086  0.00  0.00    +0.106 A 
ATOM     18  C   UNL     1       3.918  -4.396   0.862  0.00  0.00    +0.029 A 
ATOM     19  C   UNL     1       3.176  -5.016  -0.122  0.00  0.00    +0.015 A 
BRANCH  17  20
ATOM     20  S   UNL     1       4.724  -2.255   2.350  0.00  0.00    +0.061 S 
ATOM     21  O   UNL     1       5.872  -3.066   2.559  0.00  0.00    -0.153 OA
ATOM     22  O   UNL     1       4.816  -0.882   1.997  0.00  0.00    -0.153 OA
BRANCH  20  23
ATOM     23  N   UNL     1       3.833  -2.327   3.744  0.00  0.00    -0.177 NA
ATOM     24  C   UNL     1       2.890  -1.254   4.085  0.00  0.00    +0.110 C 
ATOM     25  C   UNL     1       3.210  -0.747   5.495  0.00  0.00    +0.020 C 
ATOM     26  C   UNL     1       3.201  -1.925   6.471  0.00  0.00    -0.012 C 
ATOM     27  C   UNL     1       4.278  -2.934   6.065  0.00  0.00    +0.020 C 
ATOM     28  C   UNL     1       3.966  -3.469   4.659  0.00  0.00    +0.110 C 
ATOM     29  C   UNL     1       3.487  -1.417   7.886  0.00  0.00    +0.007 C 
ENDBRANCH  20  23
ENDBRANCH  17  20
ENDBRANCH  12  14
BRANCH   1  30
ATOM     30  C   UNL     1       1.577  -2.843  -3.227  0.00  0.00    +0.097 C 
BRANCH  30  31
ATOM     31  C   UNL     1       0.425  -1.895  -2.884  0.00  0.00    -0.059 C 
BRANCH  31  32
ATOM     32  N   UNL     1       0.903  -0.506  -2.933  0.00  0.00    +0.380 N 
ATOM     33  H   UNL     1       1.695  -0.401  -2.316  0.00  0.00    -0.082 HD
BRANCH  32  35
ATOM     34  C   UNL     1       1.918   1.226  -4.335  0.00  0.00    -0.017 C 
ATOM     35  C   UNL     1       1.305  -0.175  -4.307  0.00  0.00    -0.082 C 
ENDBRANCH  32  35
BRANCH  32  36
ATOM     36  C   UNL     1      -0.174   0.397  -2.507  0.00  0.00    -0.082 C 
ATOM     37  C   UNL     1      -0.474   0.168  -1.024  0.00  0.00    -0.017 C 
ENDBRANCH  32  36
ENDBRANCH  31  32
ENDBRANCH  30  31
ENDBRANCH   1  30
TORSDOF 8
