REMARK  Name = ZINC37856292
REMARK  6 active torsions:
REMARK  status: ('A' for Active; 'I' for Inactive)
REMARK    1  A    between atoms: C_1  and  C_2
REMARK    2  A    between atoms: C_3  and  S_8
REMARK    3  A    between atoms: S_8  and  N_11
REMARK    4  A    between atoms: N_11  and  C_12
REMARK    5  A    between atoms: C_17  and  S_18
REMARK    6  A    between atoms: S_18  and  C_19
REMARK                            x       y       z     vdW  Elec       q    Type
REMARK                         _______ _______ _______ _____ _____    ______ ____
ROOT
ATOM      1  S   UNL     1      -0.074  -0.099  -2.918  0.00  0.00    +0.081 S 
ATOM      2  O   UNL     1      -1.397  -0.140  -3.435  0.00  0.00    -0.149 OA
ATOM      3  O   UNL     1       0.711   1.085  -2.929  0.00  0.00    -0.149 OA
ENDROOT
BRANCH   1   6
ATOM      4  C   UNL     1      -0.282   1.624  -0.150  0.00  0.00    +0.068 C 
ATOM      5  C   UNL     1      -0.259   0.118  -0.106  0.00  0.00    +0.076 A 
ATOM      6  C   UNL     1      -0.174  -0.622  -1.238  0.00  0.00    +0.171 A 
ATOM      7  S   UNL     1      -0.190  -2.273  -0.559  0.00  0.00    -0.004 S 
ATOM      8  C   UNL     1      -0.302  -1.854   1.067  0.00  0.00    +0.312 A 
ATOM      9  O   UNL     1      -0.358  -2.673   2.146  0.00  0.00    -0.258 OA
ATOM     10  N   UNL     1      -0.317  -0.540   1.038  0.00  0.00    -0.206 NA
ENDBRANCH   1   6
BRANCH   1  11
ATOM     11  N   UNL     1       0.791  -1.248  -3.738  0.00  0.00    -0.215 N 
ATOM     12  H   UNL     1       1.622  -1.008  -4.177  0.00  0.00    +0.174 HD
BRANCH  11  13
ATOM     13  C   UNL     1       0.323  -2.566  -3.798  0.00  0.00    +0.061 A 
ATOM     14  C   UNL     1      -1.038  -2.818  -3.876  0.00  0.00    +0.025 A 
ATOM     15  C   UNL     1      -1.498  -4.121  -3.934  0.00  0.00    +0.002 A 
ATOM     16  C   UNL     1      -0.604  -5.176  -3.915  0.00  0.00    +0.001 A 
ATOM     17  C   UNL     1       0.755  -4.934  -3.838  0.00  0.00    +0.016 A 
ATOM     18  C   UNL     1       1.226  -3.630  -3.785  0.00  0.00    +0.030 A 
BRANCH  18  19
ATOM     19  S   UNL     1       2.958  -3.319  -3.694  0.00  0.00    -0.127 S 
ATOM     20  C   UNL     1       3.702  -4.973  -3.705  0.00  0.00    +0.090 C 
ENDBRANCH  18  19
ENDBRANCH  11  13
ENDBRANCH   1  11
TORSDOF 4
