REMARK  Name = ZINC13499477
REMARK  11 active torsions:
REMARK  status: ('A' for Active; 'I' for Inactive)
REMARK    1  A    between atoms: C_1  and  C_2
REMARK    2  A    between atoms: C_2  and  C_3
REMARK    3  A    between atoms: C_3  and  C_4
REMARK    4  A    between atoms: C_4  and  C_6
REMARK    5  A    between atoms: C_4  and  N_78
REMARK    6  A    between atoms: N_10  and  C_11
REMARK    7  A    between atoms: C_17  and  C_18
REMARK    8  A    between atoms: C_17  and  N_78
REMARK    9  A    between atoms: C_22  and  C_31
REMARK   10  A    between atoms: C_23  and  C_30
REMARK   11  A    between atoms: C_32  and  N_78
REMARK                            x       y       z     vdW  Elec       q    Type
REMARK                         _______ _______ _______ _____ _____    ______ ____
ROOT
ATOM      1  N   UNL     1      -5.783   4.364  -1.510  0.00  0.00    +0.391 N 
ATOM      2  H   UNL     1      -5.821   3.614  -2.210  0.00  0.00    -0.080 HD
ENDROOT
BRANCH   1   3
ATOM      3  C   UNL     1      -5.046   5.513  -2.077  0.00  0.00    -0.067 C 
ATOM      4  C   UNL     1      -6.004   6.372  -2.903  0.00  0.00    -0.015 C 
ATOM      5  C   UNL     1      -5.238   7.547  -3.514  0.00  0.00    -0.002 C 
ATOM      6  C   UNL     1      -4.124   7.014  -4.417  0.00  0.00    -0.000 C 
ATOM      7  C   UNL     1      -3.165   6.154  -3.591  0.00  0.00    -0.002 C 
ATOM      8  C   UNL     1      -3.931   4.980  -2.980  0.00  0.00    -0.015 C 
ENDBRANCH   1   3
BRANCH   1   9
ATOM      9  C   UNL     1      -7.161   4.769  -1.164  0.00  0.00    +0.003 C 
BRANCH   9  10
ATOM     10  C   UNL     1      -8.027   3.537  -1.110  0.00  0.00    +0.138 A 
ATOM     11  N   UNL     1      -7.745   2.409  -0.504  0.00  0.00    -0.115 NA
ATOM     12  N   UNL     1      -8.734   1.602  -0.685  0.00  0.00    -0.023 NA
ATOM     13  N   UNL     1      -9.635   2.184  -1.397  0.00  0.00    -0.044 NA
ATOM     14  N   UNL     1      -9.236   3.378  -1.678  0.00  0.00    -0.228 N 
BRANCH  14  15
ATOM     15  C   UNL     1      -9.964   4.375  -2.468  0.00  0.00    +0.111 C 
ATOM     16  C   UNL     1     -11.303   4.681  -1.795  0.00  0.00    +0.027 C 
ATOM     17  C   UNL     1     -12.062   5.722  -2.620  0.00  0.00    +0.002 C 
ATOM     18  C   UNL     1     -12.312   5.175  -4.026  0.00  0.00    +0.000 C 
ATOM     19  C   UNL     1     -10.973   4.868  -4.700  0.00  0.00    +0.002 C 
ATOM     20  C   UNL     1     -10.213   3.827  -3.875  0.00  0.00    +0.027 C 
ENDBRANCH  14  15
ENDBRANCH   9  10
BRANCH   9  21
ATOM     21  C   UNL     1      -7.187   5.471   0.196  0.00  0.00    -0.008 C 
BRANCH  21  23
ATOM     22  C   UNL     1      -6.647   7.593   1.398  0.00  0.00    +0.004 C 
ATOM     23  C   UNL     1      -6.490   6.828   0.083  0.00  0.00    -0.005 C 
ENDBRANCH  21  23
ENDBRANCH   9  21
ENDBRANCH   1   9
BRANCH   1  24
ATOM     24  C   UNL     1      -5.087   3.862  -0.306  0.00  0.00    -0.036 C 
BRANCH  24  25
ATOM     25  C   UNL     1      -3.856   3.107  -0.738  0.00  0.00    +0.001 A 
ATOM     26  C   UNL     1      -2.634   3.681  -0.617  0.00  0.00    +0.017 A 
ATOM     27  C   UNL     1      -1.458   2.921  -1.046  0.00  0.00    -0.001 A 
ATOM     28  C   UNL     1      -0.172   3.460  -0.946  0.00  0.00    +0.013 A 
ATOM     29  C   UNL     1       0.904   2.725  -1.355  0.00  0.00    -0.047 A 
ATOM     30  C   UNL     1       0.733   1.447  -1.869  0.00  0.00    -0.046 A 
ATOM     31  C   UNL     1      -0.526   0.895  -1.977  0.00  0.00    +0.030 A 
ATOM     32  C   UNL     1      -1.637   1.628  -1.573  0.00  0.00    +0.049 A 
ATOM     33  N   UNL     1      -2.907   1.098  -1.664  0.00  0.00    -0.322 N 
ATOM     34  H   UNL     1      -3.028   0.205  -2.023  0.00  0.00    +0.169 HD
ATOM     35  C   UNL     1      -3.981   1.804  -1.268  0.00  0.00    +0.251 A 
ATOM     36  O   UNL     1      -5.089   1.307  -1.368  0.00  0.00    -0.268 OA
ATOM     37  C   UNL     1       1.935   0.654  -2.314  0.00  0.00    +0.044 C 
ATOM     38  C   UNL     1       2.291   3.307  -1.247  0.00  0.00    +0.044 C 
ENDBRANCH  24  25
ENDBRANCH   1  24
TORSDOF 8
