REMARK  Name = ZINC01042652
REMARK  3 active torsions:
REMARK  status: ('A' for Active; 'I' for Inactive)
REMARK    1  A    between atoms: C_1  and  C_2
REMARK    2  A    between atoms: C_4  and  C_9
REMARK    3  A    between atoms: C_11  and  C_16
REMARK                            x       y       z     vdW  Elec       q    Type
REMARK                         _______ _______ _______ _____ _____    ______ ____
ROOT
ATOM      1  C   UNL     1       3.659   2.165  -0.023  0.00  0.00    +0.077 A 
ATOM      2  C   UNL     1       4.876   1.496  -0.144  0.00  0.00    +0.057 A 
ATOM      3  C   UNL     1       6.051   2.253  -0.148  0.00  0.00    +0.083 A 
ATOM      4  N   UNL     1       5.967   3.581  -0.036  0.00  0.00    -0.214 NA
ATOM      5  C   UNL     1       4.791   4.178   0.077  0.00  0.00    +0.214 A 
ATOM      6  N   UNL     1       3.657   3.494   0.079  0.00  0.00    -0.215 NA
ATOM      7  N   UNL     1       4.745   5.556   0.191  0.00  0.00    -0.327 N 
ATOM      8  H   UNL     1       5.567   6.071   0.187  0.00  0.00    +0.145 HD
ATOM      9  H   UNL     1       3.890   6.008   0.274  0.00  0.00    +0.145 HD
ENDROOT
BRANCH   1  13
ATOM     10  C   UNL     1      -1.333   2.115   0.020  0.00  0.00    +0.045 C 
ATOM     11  C   UNL     1      -0.017   1.380   0.010  0.00  0.00    -0.032 A 
ATOM     12  C   UNL     1       1.167   2.089   0.002  0.00  0.00    +0.014 A 
ATOM     13  C   UNL     1       2.384   1.408  -0.014  0.00  0.00    +0.001 A 
ATOM     14  C   UNL     1       2.397   0.014  -0.022  0.00  0.00    +0.011 A 
ATOM     15  C   UNL     1       1.208  -0.685  -0.014  0.00  0.00    +0.021 A 
ATOM     16  C   UNL     1       0.002  -0.004   0.002  0.00  0.00    +0.044 A 
ATOM     17 CL   UNL     1      -1.491  -0.889   0.012  0.00  0.00    -0.083 Cl
ENDBRANCH   1  13
BRANCH   3  18
ATOM     18  C   UNL     1       7.366   1.595  -0.275  0.00  0.00    +0.039 A 
ATOM     19  C   UNL     1       8.615   2.159  -0.298  0.00  0.00    +0.033 A 
ATOM     20  C   UNL     1       9.710   1.335  -0.426  0.00  0.00    +0.026 A 
ATOM     21  C   UNL     1       9.521  -0.008  -0.524  0.00  0.00    +0.061 A 
ATOM     22  S   UNL     1       7.743  -0.143  -0.428  0.00  0.00    -0.094 S 
ATOM     23 BR   UNL     1      11.456   2.061  -0.465  0.00  0.00    -0.050 Br
ENDBRANCH   3  18
TORSDOF 2
