REMARK  Name = ZINC05941968
REMARK  2 active torsions:
REMARK  status: ('A' for Active; 'I' for Inactive)
REMARK    1  A    between atoms: C_2  and  C_8
REMARK    2  A    between atoms: N_10  and  N_11
REMARK                            x       y       z     vdW  Elec       q    Type
REMARK                         _______ _______ _______ _____ _____    ______ ____
ROOT
ATOM      1  C   UNL     1      -0.017   1.394   0.010  0.00  0.00    +0.082 A 
ATOM      2  C   UNL     1       1.314   1.779  -0.001  0.00  0.00    +0.136 A 
ATOM      3  N   UNL     1       2.045   0.623  -0.014  0.00  0.00    -0.270 N 
ATOM      4  H   UNL     1       3.013   0.575  -0.023  0.00  0.00    +0.189 HD
ATOM      5  N   UNL     1       1.253  -0.388  -0.012  0.00  0.00    -0.165 NA
ATOM      6  C   UNL     1       0.002  -0.004   0.002  0.00  0.00    +0.142 A 
ATOM      7 BR   UNL     1      -1.511  -1.138   0.011  0.00  0.00    -0.026 Br
ATOM      8 BR   UNL     1      -1.536   2.521   0.037  0.00  0.00    -0.045 Br
ENDROOT
BRANCH   2   9
ATOM      9  C   UNL     1       1.836   3.154   0.002  0.00  0.00    +0.276 C 
ATOM     10  O   UNL     1       1.067   4.096   0.014  0.00  0.00    -0.267 OA
ATOM     11  N   UNL     1       3.166   3.369  -0.010  0.00  0.00    -0.248 N 
ATOM     12  H   UNL     1       3.779   2.618  -0.020  0.00  0.00    +0.169 HD
BRANCH  11  13
ATOM     13  N   UNL     1       3.651   4.646  -0.008  0.00  0.00    -0.254 NA
ATOM     14  H   UNL     1       3.295   5.167   0.780  0.00  0.00    +0.140 HD
ATOM     15  H   UNL     1       4.660   4.650  -0.018  0.00  0.00    +0.140 HD
ENDBRANCH  11  13
ENDBRANCH   2   9
TORSDOF 2
