REMARK  Name = ZINC12833519
REMARK  10 active torsions:
REMARK  status: ('A' for Active; 'I' for Inactive)
REMARK    1  A    between atoms: C_1  and  C_2
REMARK    2  A    between atoms: C_2  and  O_3
REMARK    3  A    between atoms: O_3  and  C_4
REMARK    4  A    between atoms: C_11  and  C_16
REMARK    5  A    between atoms: C_16  and  N_64
REMARK    6  A    between atoms: C_17  and  C_18
REMARK    7  A    between atoms: C_17  and  N_64
REMARK    8  A    between atoms: C_23  and  C_24
REMARK    9  A    between atoms: C_23  and  N_64
REMARK   10  A    between atoms: N_28  and  C_29
REMARK                            x       y       z     vdW  Elec       q    Type
REMARK                         _______ _______ _______ _____ _____    ______ ____
ROOT
ATOM      1  N   UNL     1      -0.708  -2.989  -1.683  0.00  0.00    +0.390 N 
ATOM      2  H   UNL     1      -0.155  -2.953  -0.819  0.00  0.00    -0.080 HD
ENDROOT
BRANCH   1   3
ATOM      3  C   UNL     1       0.189  -3.304  -2.814  0.00  0.00    -0.036 C 
BRANCH   3  11
ATOM      4  C   UNL     1       6.015  -2.066  -1.096  0.00  0.00    +0.121 A 
ATOM      5  C   UNL     1       6.053  -0.774  -1.616  0.00  0.00    +0.047 A 
ATOM      6  C   UNL     1       4.956  -0.243  -2.256  0.00  0.00    +0.030 A 
ATOM      7  C   UNL     1       3.795  -0.998  -2.388  0.00  0.00    +0.049 A 
ATOM      8  C   UNL     1       3.752  -2.303  -1.864  0.00  0.00    +0.002 A 
ATOM      9  C   UNL     1       4.873  -2.832  -1.216  0.00  0.00    +0.055 A 
ATOM     10  C   UNL     1       2.524  -3.087  -2.010  0.00  0.00    +0.017 A 
ATOM     11  C   UNL     1       1.468  -2.524  -2.647  0.00  0.00    +0.001 A 
ATOM     12  C   UNL     1       1.564  -1.213  -3.160  0.00  0.00    +0.251 A 
ATOM     13  O   UNL     1       0.604  -0.728  -3.735  0.00  0.00    -0.268 OA
ATOM     14  N   UNL     1       2.685  -0.483  -3.026  0.00  0.00    -0.322 N 
ATOM     15  H   UNL     1       2.715   0.417  -3.387  0.00  0.00    +0.169 HD
BRANCH   4  16
ATOM     16  O   UNL     1       7.108  -2.575  -0.467  0.00  0.00    -0.492 OA
BRANCH  16  18
ATOM     17  C   UNL     1       9.377  -2.468   0.358  0.00  0.00    +0.048 C 
ATOM     18  C   UNL     1       8.257  -1.729  -0.377  0.00  0.00    +0.225 C 
ENDBRANCH  16  18
ENDBRANCH   4  16
ENDBRANCH   3  11
ENDBRANCH   1   3
BRANCH   1  19
ATOM     19  C   UNL     1      -1.740  -4.039  -1.549  0.00  0.00    -0.035 C 
BRANCH  19  20
ATOM     20  C   UNL     1      -1.097  -5.280  -0.984  0.00  0.00    -0.027 A 
ATOM     21  C   UNL     1      -0.844  -5.596   0.309  0.00  0.00    +0.009 A 
ATOM     22  C   UNL     1      -0.242  -6.807   0.598  0.00  0.00    +0.008 A 
ATOM     23  C   UNL     1       0.087  -7.637  -0.422  0.00  0.00    +0.045 A 
ATOM     24  S   UNL     1      -0.466  -6.711  -1.845  0.00  0.00    -0.103 S 
ENDBRANCH  19  20
ENDBRANCH   1  19
BRANCH   1  25
ATOM     25  C   UNL     1      -1.350  -1.675  -1.898  0.00  0.00    +0.001 C 
BRANCH  25  26
ATOM     26  C   UNL     1      -2.081  -1.280  -0.641  0.00  0.00    +0.135 A 
ATOM     27  N   UNL     1      -3.332  -1.542  -0.348  0.00  0.00    -0.115 NA
ATOM     28  N   UNL     1      -3.582  -1.039   0.812  0.00  0.00    -0.023 NA
ATOM     29  N   UNL     1      -2.522  -0.468   1.268  0.00  0.00    -0.044 NA
ATOM     30  N   UNL     1      -1.577  -0.590   0.399  0.00  0.00    -0.228 N 
BRANCH  30  31
ATOM     31  C   UNL     1      -0.210  -0.078   0.522  0.00  0.00    +0.111 C 
ATOM     32  C   UNL     1      -0.246   1.444   0.673  0.00  0.00    +0.027 C 
ATOM     33  C   UNL     1       1.182   1.978   0.802  0.00  0.00    +0.002 C 
ATOM     34  C   UNL     1       1.848   1.360   2.033  0.00  0.00    +0.000 C 
ATOM     35  C   UNL     1       1.884  -0.163   1.883  0.00  0.00    +0.002 C 
ATOM     36  C   UNL     1       0.456  -0.697   1.753  0.00  0.00    +0.027 C 
ENDBRANCH  30  31
ENDBRANCH  25  26
ENDBRANCH   1  25
TORSDOF 9
