REMARK  Name = ZINC39048939
REMARK  5 active torsions:
REMARK  status: ('A' for Active; 'I' for Inactive)
REMARK    1  A    between atoms: C_1  and  C_2
REMARK    2  A    between atoms: C_2  and  C_5
REMARK    3  A    between atoms: C_6  and  C_7
REMARK    4  A    between atoms: C_7  and  O_8
REMARK    5  A    between atoms: O_8  and  C_9
REMARK                            x       y       z     vdW  Elec       q    Type
REMARK                         _______ _______ _______ _____ _____    ______ ____
ROOT
ATOM      1  C   UNL     1       1.082  -0.624  -0.783  0.00  0.00    -0.063 C 
ATOM      2  C   UNL     1       1.944  -1.118  -1.409  0.00  0.00    -0.071 C 
ENDROOT
BRANCH   1   4
ATOM      3  C   UNL     1      -0.019   1.526   0.010  0.00  0.00    +0.058 C 
ATOM      4  C   UNL     1       0.002  -0.004   0.002  0.00  0.00    +0.150 C 
ATOM      5  C   UNL     1      -1.340  -0.736   0.072  0.00  0.00    +0.209 C 
ATOM      6  O   UNL     1      -0.439  -0.682   1.180  0.00  0.00    -0.355 OA
ENDBRANCH   1   4
BRANCH   2   7
ATOM      7  C   UNL     1       3.024  -1.738  -2.194  0.00  0.00    +0.247 C 
BRANCH   7   8
ATOM      8  O   UNL     1       2.917  -3.161  -2.110  0.00  0.00    -0.371 OA
ATOM      9  C   UNL     1       3.925  -3.863  -2.841  0.00  0.00    +0.195 C 
ENDBRANCH   7   8
ENDBRANCH   2   7
TORSDOF 3
