REMARK  Name = ZINC04261107
REMARK  11 active torsions:
REMARK  status: ('A' for Active; 'I' for Inactive)
REMARK    1  A    between atoms: C_1  and  O_2
REMARK    2  A    between atoms: O_2  and  C_3
REMARK    3  A    between atoms: C_6  and  O_9
REMARK    4  A    between atoms: O_9  and  C_10
REMARK    5  A    between atoms: C_10  and  C_11
REMARK    6  A    between atoms: N_13  and  N_14
REMARK    7  A    between atoms: C_15  and  C_16
REMARK    8  A    between atoms: C_21  and  O_22
REMARK    9  A    between atoms: O_22  and  C_23
REMARK   10  A    between atoms: C_23  and  C_25
REMARK   11  A    between atoms: C_26  and  C_27
REMARK                            x       y       z     vdW  Elec       q    Type
REMARK                         _______ _______ _______ _____ _____    ______ ____
ROOT
ATOM      1  C   UNL     1       1.556   2.037   0.019  0.00  0.00    +0.038 A 
ATOM      2  C   UNL     1       2.867   1.554   0.033  0.00  0.00    +0.028 A 
ATOM      3  C   UNL     1       3.925   2.439   0.064  0.00  0.00    +0.019 A 
ATOM      4  C   UNL     1       3.694   3.804   0.081  0.00  0.00    +0.019 A 
ATOM      5  C   UNL     1       2.402   4.294   0.067  0.00  0.00    +0.048 A 
ATOM      6  C   UNL     1       1.327   3.420   0.030  0.00  0.00    +0.141 A 
ATOM      7 BR   UNL     1       5.699   1.784   0.084  0.00  0.00    -0.050 Br
ENDROOT
BRANCH   1   9
ATOM      8  N   UNL     1      -0.795   1.552  -0.032  0.00  0.00    -0.188 NA
ATOM      9  C   UNL     1       0.421   1.099  -0.014  0.00  0.00    +0.142 C 
BRANCH   8  12
ATOM     10  C   UNL     1      -3.138   1.129  -0.089  0.00  0.00    +0.270 C 
ATOM     11  O   UNL     1      -3.340   2.325  -0.074  0.00  0.00    -0.270 OA
ATOM     12  N   UNL     1      -1.875   0.659  -0.069  0.00  0.00    -0.204 N 
ATOM     13  H   UNL     1      -1.692  -0.425  -0.083  0.00  0.00    +0.177 HD
BRANCH  10  14
ATOM     14  C   UNL     1      -4.299   0.169  -0.129  0.00  0.00    +0.326 C 
BRANCH  14  15
ATOM     15  O   UNL     1      -5.524   0.904  -0.143  0.00  0.00    -0.483 OA
BRANCH  15  19
ATOM     16  C   UNL     1      -9.022  -1.286  -0.252  0.00  0.00    +0.120 A 
ATOM     17  C   UNL     1      -9.072   0.100  -0.231  0.00  0.00    +0.049 A 
ATOM     18  C   UNL     1      -7.901   0.833  -0.194  0.00  0.00    +0.049 A 
ATOM     19  C   UNL     1      -6.676   0.183  -0.178  0.00  0.00    +0.121 A 
ATOM     20  C   UNL     1      -6.626  -1.203  -0.205  0.00  0.00    +0.049 A 
ATOM     21  C   UNL     1      -7.797  -1.936  -0.237  0.00  0.00    +0.049 A 
BRANCH  16  23
ATOM     22  C   UNL     1     -10.048  -3.430  -0.309  0.00  0.00    +0.277 C 
ATOM     23  O   UNL     1     -10.174  -2.007  -0.288  0.00  0.00    -0.495 OA
ENDBRANCH  16  23
ENDBRANCH  15  19
ENDBRANCH  14  15
ENDBRANCH  10  14
ENDBRANCH   8  12
ENDBRANCH   1   9
BRANCH   6  24
ATOM     24  O   UNL     1       0.057   3.901   0.011  0.00  0.00    -0.422 OA
BRANCH  24  25
ATOM     25  C   UNL     1      -0.590   4.027   1.188  0.00  0.00    +0.337 C 
ATOM     26  O   UNL     1      -0.071   3.628   2.213  0.00  0.00    -0.245 OA
BRANCH  25  27
ATOM     27  C   UNL     1      -1.916   4.642   1.231  0.00  0.00    +0.092 C 
ATOM     28  C   UNL     1      -2.563   4.768   2.408  0.00  0.00    +0.015 C 
BRANCH  28  29
ATOM     29  C   UNL     1      -3.898   5.388   2.451  0.00  0.00    -0.025 A 
ATOM     30  C   UNL     1      -4.495   5.852   1.275  0.00  0.00    +0.008 A 
ATOM     31  C   UNL     1      -5.748   6.428   1.323  0.00  0.00    +0.001 A 
ATOM     32  C   UNL     1      -6.409   6.555   2.532  0.00  0.00    +0.000 A 
ATOM     33  C   UNL     1      -5.822   6.102   3.701  0.00  0.00    +0.001 A 
ATOM     34  C   UNL     1      -4.572   5.520   3.669  0.00  0.00    +0.008 A 
ENDBRANCH  28  29
ENDBRANCH  25  27
ENDBRANCH  24  25
ENDBRANCH   6  24
TORSDOF 10
