REMARK  Name = ZINC21598432
REMARK  12 active torsions:
REMARK  status: ('A' for Active; 'I' for Inactive)
REMARK    1  A    between atoms: C_1  and  C_2
REMARK    2  A    between atoms: C_2  and  O_3
REMARK    3  A    between atoms: O_3  and  C_4
REMARK    4  A    between atoms: C_4  and  C_6
REMARK    5  A    between atoms: C_7  and  C_26
REMARK    6  A    between atoms: C_10  and  N_11
REMARK    7  A    between atoms: C_12  and  C_14
REMARK    8  A    between atoms: C_14  and  C_15
REMARK    9  A    between atoms: C_15  and  C_16
REMARK   10  A    between atoms: C_18  and  C_21
REMARK   11  A    between atoms: C_29  and  O_32
REMARK   12  A    between atoms: O_32  and  C_33
REMARK                            x       y       z     vdW  Elec       q    Type
REMARK                         _______ _______ _______ _____ _____    ______ ____
ROOT
ATOM      1  C   UNL     1      -1.248  -2.095   0.003  0.00  0.00    +0.095 A 
ATOM      2  C   UNL     1      -1.290  -2.848  -1.236  0.00  0.00    +0.005 A 
ATOM      3  C   UNL     1      -1.340  -4.200  -1.127  0.00  0.00    +0.056 A 
ATOM      4  S   UNL     1      -1.333  -4.469   0.633  0.00  0.00    -0.080 S 
ATOM      5  C   UNL     1      -1.259  -2.829   1.181  0.00  0.00    +0.086 A 
ENDROOT
BRANCH   2   6
ATOM      6  C   UNL     1      -1.277  -2.175  -2.557  0.00  0.00    -0.016 A 
ATOM      7  C   UNL     1      -2.169  -1.136  -2.820  0.00  0.00    +0.012 A 
ATOM      8  C   UNL     1      -2.152  -0.508  -4.048  0.00  0.00    +0.046 A 
ATOM      9  C   UNL     1      -1.255  -0.917  -5.025  0.00  0.00    +0.120 A 
ATOM     10  C   UNL     1      -0.369  -1.955  -4.769  0.00  0.00    +0.046 A 
ATOM     11  C   UNL     1      -0.378  -2.583  -3.541  0.00  0.00    +0.012 A 
BRANCH   9  12
ATOM     12  O   UNL     1      -1.244  -0.300  -6.236  0.00  0.00    -0.495 OA
ATOM     13  C   UNL     1      -2.182   0.759  -6.433  0.00  0.00    +0.277 C 
ENDBRANCH   9  12
ENDBRANCH   2   6
BRANCH   5  14
ATOM     14  N   UNL     1      -1.222  -2.361   2.485  0.00  0.00    -0.279 N 
ATOM     15  C   UNL     1      -1.240  -3.230   3.514  0.00  0.00    +0.218 C 
ATOM     16  O   UNL     1      -1.290  -4.423   3.300  0.00  0.00    -0.275 OA
ATOM     17  H   UNL     1      -1.177  -1.279   2.680  0.00  0.00    +0.155 HD
BRANCH  15  18
ATOM     18  C   UNL     1      -1.199  -2.721   4.932  0.00  0.00    +0.105 C 
BRANCH  18  19
ATOM     19  C   UNL     1      -1.231  -3.905   5.901  0.00  0.00    +0.108 C 
BRANCH  19  20
ATOM     20  C   UNL     1      -1.190  -3.395   7.318  0.00  0.00    +0.228 A 
ATOM     21  N   UNL     1      -2.222  -3.086   8.064  0.00  0.00    -0.191 NA
ATOM     22  C   UNL     1      -1.707  -2.683   9.248  0.00  0.00    +0.203 A 
ATOM     23  N   UNL     1      -0.404  -2.762   9.149  0.00  0.00    -0.056 NA
ATOM     24  O   UNL     1      -0.094  -3.168   8.049  0.00  0.00    -0.338 OA
BRANCH  22  25
ATOM     25  C   UNL     1      -2.474  -2.230  10.433  0.00  0.00    +0.029 A 
ATOM     26  C   UNL     1      -1.820  -1.837  11.599  0.00  0.00    +0.019 A 
ATOM     27  C   UNL     1      -2.581  -1.431  12.639  0.00  0.00    +0.046 A 
ATOM     28  S   UNL     1      -4.234  -1.609  11.994  0.00  0.00    -0.104 S 
ATOM     29  C   UNL     1      -3.838  -2.193  10.410  0.00  0.00    +0.057 A 
ENDBRANCH  22  25
ENDBRANCH  19  20
ENDBRANCH  18  19
ENDBRANCH  15  18
ENDBRANCH   5  14
BRANCH   1  30
ATOM     30  C   UNL     1      -1.191  -0.633   0.010  0.00  0.00    +0.342 C 
ATOM     31  O   UNL     1      -2.220   0.016   0.023  0.00  0.00    -0.245 OA
BRANCH  30  32
ATOM     32  O   UNL     1       0.002  -0.004   0.002  0.00  0.00    -0.461 OA
BRANCH  32  34
ATOM     33  C   UNL     1       1.418   1.977  -0.001  0.00  0.00    +0.048 C 
ATOM     34  C   UNL     1      -0.018   1.448   0.010  0.00  0.00    +0.229 C 
ENDBRANCH  32  34
ENDBRANCH  30  32
ENDBRANCH   1  30
TORSDOF 10
