REMARK  Name = ZINC49418438
REMARK  5 active torsions:
REMARK  status: ('A' for Active; 'I' for Inactive)
REMARK    1  A    between atoms: C_1  and  C_2
REMARK    2  A    between atoms: C_2  and  C_4
REMARK    3  A    between atoms: C_2  and  S_12
REMARK    4  A    between atoms: S_12  and  C_13
REMARK    5  A    between atoms: C_14  and  N_19
REMARK                            x       y       z     vdW  Elec       q    Type
REMARK                         _______ _______ _______ _____ _____    ______ ____
ROOT
ATOM      1  C   UNL     1      -0.019   1.526   0.010  0.00  0.00    +0.024 C 
ATOM      2  C   UNL     1       0.002  -0.004   0.002  0.00  0.00    +0.080 C 
ENDROOT
BRANCH   2   3
ATOM      3  C   UNL     1      -1.412  -0.526   0.013  0.00  0.00    -0.033 A 
ATOM      4  C   UNL     1      -2.275  -0.202  -1.017  0.00  0.00    +0.006 A 
ATOM      5  C   UNL     1      -3.572  -0.679  -1.009  0.00  0.00    +0.022 A 
ATOM      6  C   UNL     1      -4.007  -1.482   0.031  0.00  0.00    +0.059 A 
ATOM      7  C   UNL     1      -3.142  -1.806   1.062  0.00  0.00    +0.060 A 
ATOM      8  C   UNL     1      -1.843  -1.332   1.049  0.00  0.00    +0.026 A 
ATOM      9 CL   UNL     1      -3.686  -2.813   2.368  0.00  0.00    -0.082 Cl
ATOM     10 CL   UNL     1      -5.636  -2.081   0.043  0.00  0.00    -0.082 Cl
ENDBRANCH   2   3
BRANCH   2  11
ATOM     11  S   UNL     1       0.851  -0.589  -1.490  0.00  0.00    -0.096 S 
BRANCH  11  12
ATOM     12  C   UNL     1       2.509  -0.029  -1.285  0.00  0.00    +0.128 A 
ATOM     13  C   UNL     1       3.456  -0.302  -2.268  0.00  0.00    +0.158 A 
ATOM     14  C   UNL     1       4.753   0.144  -2.094  0.00  0.00    +0.037 A 
ATOM     15  C   UNL     1       5.062   0.851  -0.938  0.00  0.00    +0.022 A 
ATOM     16  C   UNL     1       4.073   1.087  -0.005  0.00  0.00    +0.112 A 
ATOM     17  N   UNL     1       2.841   0.654  -0.200  0.00  0.00    -0.246 NA
BRANCH  13  18
ATOM     18  N   UNL     1       3.080  -1.060  -3.482  0.00  0.00    +0.059 N 
ATOM     19  O   UNL     1       3.910  -1.293  -4.330  0.00  0.00    -0.126 OA
ATOM     20  O   UNL     1       1.944  -1.446  -3.626  0.00  0.00    -0.126 OA
ENDBRANCH  13  18
ENDBRANCH  11  12
ENDBRANCH   2  11
TORSDOF 4
