REMARK  Name = ZINC20704108
REMARK  6 active torsions:
REMARK  status: ('A' for Active; 'I' for Inactive)
REMARK    1  A    between atoms: C_1  and  C_2
REMARK    2  A    between atoms: C_2  and  O_3
REMARK    3  A    between atoms: O_3  and  C_4
REMARK    4  A    between atoms: C_4  and  C_6
REMARK    5  A    between atoms: C_19  and  C_22
REMARK    6  A    between atoms: C_26  and  N_28
REMARK                            x       y       z     vdW  Elec       q    Type
REMARK                         _______ _______ _______ _____ _____    ______ ____
ROOT
ATOM      1  C   UNL     1      -0.870   1.670  -3.606  0.00  0.00    +0.059 A 
ATOM      2  C   UNL     1      -2.025   2.457  -3.539  0.00  0.00    +0.017 A 
ATOM      3  C   UNL     1      -2.636   2.874  -4.685  0.00  0.00    +0.024 A 
ATOM      4  C   UNL     1      -2.129   2.515  -5.933  0.00  0.00    +0.031 A 
ATOM      5  C   UNL     1      -0.969   1.729  -6.004  0.00  0.00    -0.019 A 
ATOM      6  C   UNL     1      -0.348   1.311  -4.852  0.00  0.00    +0.021 A 
ATOM      7  C   UNL     1      -0.452   1.395  -7.349  0.00  0.00    +0.049 C 
ATOM      8  C   UNL     1       0.356   0.173  -7.598  0.00  0.00    -0.023 C 
ATOM      9  C   UNL     1       0.121  -0.246  -8.835  0.00  0.00    -0.030 C 
ATOM     10  C   UNL     1      -0.910   0.663  -9.508  0.00  0.00    +0.033 C 
ATOM     11  C   UNL     1      -1.675   1.211  -8.296  0.00  0.00    +0.029 C 
ATOM     12  C   UNL     1      -2.293   2.591  -8.430  0.00  0.00    +0.105 C 
ATOM     13  N   UNL     1      -2.795   2.935  -7.082  0.00  0.00    -0.336 N 
ATOM     14  H   UNL     1      -3.711   3.534  -6.973  0.00  0.00    +0.147 HD
ENDROOT
BRANCH  12  15
ATOM     15  C   UNL     1      -3.432   2.557  -9.417  0.00  0.00    -0.025 A 
ATOM     16  C   UNL     1      -4.672   2.088  -9.026  0.00  0.00    +0.007 A 
ATOM     17  C   UNL     1      -5.717   2.057  -9.930  0.00  0.00    +0.022 A 
ATOM     18  C   UNL     1      -5.521   2.496 -11.227  0.00  0.00    +0.071 A 
ATOM     19  C   UNL     1      -4.280   2.966 -11.618  0.00  0.00    +0.145 A 
ATOM     20  C   UNL     1      -3.238   3.002 -10.711  0.00  0.00    +0.039 A 
ATOM     21 CL   UNL     1      -6.833   2.458 -12.364  0.00  0.00    -0.081 Cl
BRANCH  19  22
ATOM     22  N   UNL     1      -4.070   3.436 -13.006  0.00  0.00    +0.058 N 
ATOM     23  O   UNL     1      -2.978   3.850 -13.350  0.00  0.00    -0.126 OA
ATOM     24  O   UNL     1      -4.990   3.409 -13.804  0.00  0.00    -0.126 OA
ENDBRANCH  19  22
ENDBRANCH  12  15
BRANCH   1  25
ATOM     25  C   UNL     1      -0.209   1.218  -2.368  0.00  0.00    +0.339 C 
ATOM     26  O   UNL     1       0.791   0.531  -2.429  0.00  0.00    -0.245 OA
BRANCH  25  27
ATOM     27  O   UNL     1      -0.715   1.567  -1.168  0.00  0.00    -0.461 OA
BRANCH  27  29
ATOM     28  C   UNL     1      -0.729   1.579   1.267  0.00  0.00    +0.048 C 
ATOM     29  C   UNL     1      -0.013   1.086   0.008  0.00  0.00    +0.229 C 
ENDBRANCH  27  29
ENDBRANCH  25  27
ENDBRANCH   1  25
TORSDOF 5
