REMARK  Name = ZINC16047801
REMARK  9 active torsions:
REMARK  status: ('A' for Active; 'I' for Inactive)
REMARK    1  A    between atoms: C_1  and  C_2
REMARK    2  A    between atoms: C_2  and  C_3
REMARK    3  A    between atoms: C_9  and  S_11
REMARK    4  A    between atoms: S_11  and  C_12
REMARK    5  A    between atoms: C_12  and  C_13
REMARK    6  A    between atoms: C_17  and  O_20
REMARK    7  A    between atoms: O_20  and  C_21
REMARK    8  A    between atoms: C_21  and  C_23
REMARK    9  A    between atoms: C_23  and  C_28
REMARK                            x       y       z     vdW  Elec       q    Type
REMARK                         _______ _______ _______ _____ _____    ______ ____
ROOT
ATOM      1  C   UNL     1      -0.196  -4.681  -0.723  0.00  0.00    +0.119 A 
ATOM      2  C   UNL     1      -0.212  -5.154   0.540  0.00  0.00    +0.097 A 
ATOM      3  C   UNL     1      -0.119  -6.552   0.752  0.00  0.00    +0.227 A 
ATOM      4  O   UNL     1      -0.134  -7.018   1.881  0.00  0.00    -0.284 OA
ATOM      5  C   UNL     1      -0.004  -7.397  -0.386  0.00  0.00    +0.213 A 
ATOM      6  C   UNL     1       0.008  -6.838  -1.616  0.00  0.00    +0.245 A 
ATOM      7  O   UNL     1      -0.086  -5.510  -1.768  0.00  0.00    -0.463 OA
ENDROOT
BRANCH   1   8
ATOM      8  C   UNL     1      -0.298  -3.197  -0.961  0.00  0.00    +0.150 C 
BRANCH   8   9
ATOM      9  S   UNL     1       1.364  -2.472  -0.980  0.00  0.00    -0.089 S 
BRANCH   9  16
ATOM     10  C   UNL     1       0.100   4.027  -2.071  0.00  0.00    +0.218 C 
ATOM     11  O   UNL     1      -1.012   3.544  -2.058  0.00  0.00    -0.275 OA
ATOM     12  N   UNL     1       1.179   3.241  -1.886  0.00  0.00    -0.263 N 
ATOM     13  C   UNL     1       1.016   1.873  -1.681  0.00  0.00    +0.189 A 
ATOM     14  N   UNL     1      -0.088   1.146  -1.630  0.00  0.00    -0.125 NA
ATOM     15  N   UNL     1      -0.060  -0.099  -1.433  0.00  0.00    -0.133 NA
ATOM     16  C   UNL     1       1.078  -0.757  -1.265  0.00  0.00    +0.160 A 
ATOM     17  S   UNL     1       2.242   0.596  -1.411  0.00  0.00    -0.024 S 
ATOM     18  H   UNL     1       2.068   3.627  -1.896  0.00  0.00    +0.157 HD
BRANCH  10  20
ATOM     19  C   UNL     1      -1.095   6.163  -2.474  0.00  0.00    +0.013 C 
ATOM     20  C   UNL     1       0.276   5.508  -2.293  0.00  0.00    +0.093 C 
ENDBRANCH  10  20
ENDBRANCH   9  16
ENDBRANCH   8   9
ENDBRANCH   1   8
BRANCH   5  21
ATOM     21  O   UNL     1       0.093  -8.747  -0.239  0.00  0.00    -0.418 OA
BRANCH  21  22
ATOM     22  C   UNL     1      -1.051  -9.421  -0.042  0.00  0.00    +0.323 C 
ATOM     23  O   UNL     1      -2.095  -8.819   0.090  0.00  0.00    -0.249 OA
BRANCH  22  24
ATOM     24  C   UNL     1      -1.037 -10.927   0.013  0.00  0.00    +0.093 C 
ATOM     25  C   UNL     1      -0.569 -11.500  -1.336  0.00  0.00    +0.023 C 
ATOM     26  C   UNL     1      -1.730 -12.362  -1.875  0.00  0.00    +0.001 C 
ATOM     27  C   UNL     1      -2.986 -11.787  -1.175  0.00  0.00    +0.001 C 
ATOM     28  C   UNL     1      -2.466 -11.460   0.247  0.00  0.00    +0.023 C 
BRANCH  24  29
ATOM     29  C   UNL     1      -0.125 -11.394   1.118  0.00  0.00    -0.031 A 
ATOM     30  C   UNL     1       0.455 -10.474   1.971  0.00  0.00    +0.006 A 
ATOM     31  C   UNL     1       1.288 -10.902   2.988  0.00  0.00    +0.020 A 
ATOM     32  C   UNL     1       1.549 -12.252   3.145  0.00  0.00    +0.041 A 
ATOM     33  C   UNL     1       0.973 -13.172   2.288  0.00  0.00    +0.020 A 
ATOM     34  C   UNL     1       0.136 -12.743   1.275  0.00  0.00    +0.006 A 
ATOM     35 CL   UNL     1       2.600 -12.790   4.418  0.00  0.00    -0.084 Cl
ENDBRANCH  24  29
ENDBRANCH  22  24
ENDBRANCH  21  22
ENDBRANCH   5  21
TORSDOF 8
