REMARK  Name = ZINC28121149
REMARK  9 active torsions:
REMARK  status: ('A' for Active; 'I' for Inactive)
REMARK    1  A    between atoms: C_1  and  C_2
REMARK    2  A    between atoms: C_2  and  C_3
REMARK    3  A    between atoms: C_4  and  C_25
REMARK    4  A    between atoms: C_10  and  O_24
REMARK    5  A    between atoms: C_11  and  C_14
REMARK    6  A    between atoms: C_14  and  N_15
REMARK    7  A    between atoms: N_18  and  C_21
REMARK    8  A    between atoms: C_21  and  C_22
REMARK    9  A    between atoms: C_22  and  O_23
REMARK                            x       y       z     vdW  Elec       q    Type
REMARK                         _______ _______ _______ _____ _____    ______ ____
ROOT
ATOM      1  C   UNL     1      -2.551   2.849  -0.051  0.00  0.00    +0.119 A 
ATOM      2  C   UNL     1      -2.455   4.208  -0.036  0.00  0.00    +0.092 A 
ATOM      3  C   UNL     1      -1.115   4.821  -0.001  0.00  0.00    +0.202 A 
ATOM      4  O   UNL     1      -0.966   6.031   0.014  0.00  0.00    -0.286 OA
ATOM      5  C   UNL     1       0.036   3.900   0.016  0.00  0.00    +0.065 A 
ATOM      6  C   UNL     1       1.346   4.380   0.049  0.00  0.00    +0.019 A 
ATOM      7  C   UNL     1       2.390   3.499   0.064  0.00  0.00    +0.046 A 
ATOM      8  C   UNL     1       2.152   2.127   0.046  0.00  0.00    +0.122 A 
ATOM      9  C   UNL     1       0.858   1.636   0.013  0.00  0.00    +0.020 A 
ATOM     10  C   UNL     1      -0.214   2.517  -0.008  0.00  0.00    +0.144 A 
ATOM     11  O   UNL     1      -1.480   2.055  -0.035  0.00  0.00    -0.458 OA
ENDROOT
BRANCH   2  12
ATOM     12  C   UNL     1      -3.668   5.049  -0.054  0.00  0.00    +0.116 A 
ATOM     13  N   UNL     1      -4.930   4.677  -0.090  0.00  0.00    -0.239 NA
ATOM     14  C   UNL     1      -5.946   5.563  -0.098  0.00  0.00    +0.079 A 
ATOM     15  C   UNL     1      -7.336   5.300  -0.131  0.00  0.00    +0.029 A 
ATOM     16  C   UNL     1      -8.238   6.317  -0.141  0.00  0.00    +0.002 A 
ATOM     17  C   UNL     1      -7.839   7.646  -0.119  0.00  0.00    +0.001 A 
ATOM     18  C   UNL     1      -6.490   7.947  -0.086  0.00  0.00    +0.017 A 
ATOM     19  C   UNL     1      -5.570   6.927  -0.076  0.00  0.00    +0.040 A 
ATOM     20  S   UNL     1      -3.797   6.832  -0.039  0.00  0.00    -0.067 S 
ENDBRANCH   2  12
BRANCH   1  22
ATOM     21  C   UNL     1      -4.351   2.021  -1.541  0.00  0.00    +0.012 C 
ATOM     22  C   UNL     1      -3.920   2.220  -0.087  0.00  0.00    +0.072 C 
ENDBRANCH   1  22
BRANCH   8  23
ATOM     23  O   UNL     1       3.199   1.262   0.061  0.00  0.00    -0.506 OA
ATOM     24  H   UNL     1       3.017   0.178   0.047  0.00  0.00    +0.292 HD
ENDBRANCH   8  23
BRANCH   9  25
ATOM     25  C   UNL     1       0.615   0.149  -0.006  0.00  0.00    -0.035 C 
BRANCH  25  26
ATOM     26  N   UNL     1       0.505  -0.348   1.372  0.00  0.00    +0.384 N 
ATOM     27  C   UNL     1       1.785  -0.215   2.083  0.00  0.00    -0.063 C 
ATOM     28  C   UNL     1       1.609  -0.668   3.534  0.00  0.00    +0.066 C 
ATOM     29  N   UNL     1       1.138  -2.060   3.557  0.00  0.00    -0.304 NA
ATOM     30  C   UNL     1      -0.141  -2.192   2.846  0.00  0.00    +0.066 C 
ATOM     31  C   UNL     1       0.035  -1.740   1.395  0.00  0.00    -0.063 C 
ATOM     32  H   UNL     1      -0.239   0.271   1.895  0.00  0.00    -0.081 HD
BRANCH  29  33
ATOM     33  C   UNL     1       1.029  -2.556   4.935  0.00  0.00    +0.112 C 
BRANCH  33  34
ATOM     34  C   UNL     1       1.020  -4.086   4.927  0.00  0.00    +0.171 C 
BRANCH  34  35
ATOM     35  O   UNL     1       2.275  -4.568   4.443  0.00  0.00    -0.394 OA
ATOM     36  H   UNL     1       2.456  -5.650   4.365  0.00  0.00    +0.209 HD
ENDBRANCH  34  35
ENDBRANCH  33  34
ENDBRANCH  29  33
ENDBRANCH  25  26
ENDBRANCH   9  25
TORSDOF 8
