REMARK  Name = ZINC44248838
REMARK  4 active torsions:
REMARK  status: ('A' for Active; 'I' for Inactive)
REMARK    1  A    between atoms: C_4  and  C_7
REMARK    2  A    between atoms: C_8  and  C_19
REMARK    3  A    between atoms: C_11  and  C_12
REMARK    4  A    between atoms: C_19  and  N_20
REMARK                            x       y       z     vdW  Elec       q    Type
REMARK                         _______ _______ _______ _____ _____    ______ ____
ROOT
ATOM      1  C   UNL     1       3.692  -0.681  -0.038  0.00  0.00    +0.011 C 
ATOM      2  C   UNL     1       4.626  -0.677   0.932  0.00  0.00    +0.004 C 
ATOM      3  C   UNL     1       5.749  -1.518   0.509  0.00  0.00    +0.210 C 
ATOM      4  O   UNL     1       5.500  -2.032  -0.715  0.00  0.00    -0.464 OA
ATOM      5  C   UNL     1       4.217  -1.565  -1.144  0.00  0.00    +0.236 C 
ATOM      6  N   UNL     1       6.827  -1.736   1.209  0.00  0.00    -0.267 NA
ATOM      7  H   UNL     1       6.929  -1.327   2.083  0.00  0.00    +0.190 HD
ENDROOT
BRANCH   1  11
ATOM      8  C   UNL     1      -0.017   1.380   0.010  0.00  0.00    +0.000 A 
ATOM      9  C   UNL     1       1.168   2.095   0.002  0.00  0.00    +0.001 A 
ATOM     10  C   UNL     1       2.377   1.432  -0.013  0.00  0.00    +0.008 A 
ATOM     11  C   UNL     1       2.405   0.035  -0.021  0.00  0.00    -0.018 A 
ATOM     12  C   UNL     1       1.204  -0.681  -0.013  0.00  0.00    +0.008 A 
ATOM     13  C   UNL     1       0.002  -0.004   0.002  0.00  0.00    +0.001 A 
ENDBRANCH   1  11
BRANCH   5  14
ATOM     14  C   UNL     1       3.286  -2.729  -1.362  0.00  0.00    -0.003 A 
ATOM     15  C   UNL     1       3.335  -3.821  -0.515  0.00  0.00    +0.007 A 
ATOM     16  C   UNL     1       2.480  -4.889  -0.715  0.00  0.00    +0.000 A 
ATOM     17  C   UNL     1       1.576  -4.865  -1.760  0.00  0.00    +0.000 A 
ATOM     18  C   UNL     1       1.526  -3.773  -2.606  0.00  0.00    +0.000 A 
ATOM     19  C   UNL     1       2.378  -2.703  -2.404  0.00  0.00    +0.007 A 
ENDBRANCH   5  14
BRANCH   2  20
ATOM     20  C   UNL     1       4.532   0.069   2.237  0.00  0.00    -0.045 C 
BRANCH  20  21
ATOM     21  N   UNL     1       4.008  -0.827   3.277  0.00  0.00    +0.381 N 
ATOM     22  H   UNL     1       3.092  -1.153   3.009  0.00  0.00    -0.090 HD
ATOM     23  H   UNL     1       4.628  -1.616   3.384  0.00  0.00    -0.090 HD
ATOM     24  H   UNL     1       3.946  -0.327   4.151  0.00  0.00    -0.090 HD
ENDBRANCH  20  21
ENDBRANCH   2  20
TORSDOF 4
