REMARK  Name = ZINC38980893
REMARK  8 active torsions:
REMARK  status: ('A' for Active; 'I' for Inactive)
REMARK    1  A    between atoms: C_1  and  C_2
REMARK    2  A    between atoms: C_5  and  S_9
REMARK    3  A    between atoms: C_6  and  C_8
REMARK    4  A    between atoms: S_9  and  N_12
REMARK    5  A    between atoms: C_14  and  N_24
REMARK    6  A    between atoms: N_24  and  C_25
REMARK    7  A    between atoms: C_28  and  O_31
REMARK    8  A    between atoms: O_31  and  C_32
REMARK                            x       y       z     vdW  Elec       q    Type
REMARK                         _______ _______ _______ _____ _____    ______ ____
ROOT
ATOM      1  N   UNL     1       1.377  -4.676   0.981  0.00  0.00    -0.110 NA
ATOM      2  C   UNL     1       1.671  -5.936   0.844  0.00  0.00    +0.192 C 
ATOM      3  C   UNL     1       3.020  -6.461   1.280  0.00  0.00    +0.237 C 
ATOM      4  N   UNL     1       3.290  -7.896   1.099  0.00  0.00    -0.359 N 
ATOM      5  C   UNL     1       2.359  -8.643   0.574  0.00  0.00    +0.063 A 
ATOM      6  C   UNL     1       2.579 -10.082   0.371  0.00  0.00    +0.027 A 
ATOM      7  C   UNL     1       1.590 -10.824  -0.176  0.00  0.00    +0.002 A 
ATOM      8  C   UNL     1       0.363 -10.254  -0.554  0.00  0.00    +0.002 A 
ATOM      9  C   UNL     1       0.088  -8.941  -0.399  0.00  0.00    +0.030 A 
ATOM     10  C   UNL     1       1.053  -8.068   0.165  0.00  0.00    +0.089 A 
ATOM     11  N   UNL     1       0.778  -6.790   0.318  0.00  0.00    -0.226 NA
ATOM     12  H   UNL     1       4.141  -8.278   1.363  0.00  0.00    +0.162 HD
ENDROOT
BRANCH   1  13
ATOM     13  S   UNL     1      -0.106  -4.115   0.505  0.00  0.00    +0.101 S 
ATOM     14  O   UNL     1      -1.063  -4.715   1.369  0.00  0.00    -0.146 OA
ATOM     15  O   UNL     1      -0.161  -4.257  -0.907  0.00  0.00    -0.146 OA
BRANCH  13  20
ATOM     16  C   UNL     1      -0.228   1.807   1.650  0.00  0.00    +0.044 C 
ATOM     17  C   UNL     1      -0.198   0.328   1.365  0.00  0.00    -0.050 A 
ATOM     18  C   UNL     1      -0.261  -0.125   0.060  0.00  0.00    +0.005 A 
ATOM     19  C   UNL     1      -0.233  -1.482  -0.202  0.00  0.00    +0.029 A 
ATOM     20  C   UNL     1      -0.141  -2.386   0.840  0.00  0.00    +0.115 A 
ATOM     21  C   UNL     1      -0.077  -1.933   2.144  0.00  0.00    -0.023 A 
ATOM     22  C   UNL     1      -0.100  -0.575   2.406  0.00  0.00    +0.008 A 
ATOM     23  C   UNL     1       0.023  -2.918   3.280  0.00  0.00    +0.046 C 
ENDBRANCH  13  20
ENDBRANCH   1  13
BRANCH   3  24
ATOM     24  N   UNL     1       3.181  -6.153   2.703  0.00  0.00    -0.318 N 
ATOM     25  H   UNL     1       2.444  -6.297   3.317  0.00  0.00    +0.148 HD
BRANCH  24  26
ATOM     26  C   UNL     1       4.398  -5.651   3.177  0.00  0.00    +0.029 A 
ATOM     27  C   UNL     1       5.498  -5.585   2.333  0.00  0.00    +0.026 A 
ATOM     28  C   UNL     1       6.699  -5.088   2.801  0.00  0.00    +0.048 A 
ATOM     29  C   UNL     1       6.806  -4.656   4.115  0.00  0.00    +0.130 A 
ATOM     30  C   UNL     1       5.707  -4.722   4.959  0.00  0.00    +0.048 A 
ATOM     31  C   UNL     1       4.504  -5.213   4.491  0.00  0.00    +0.026 A 
BRANCH  29  32
ATOM     32  O   UNL     1       7.989  -4.167   4.575  0.00  0.00    -0.406 OA
BRANCH  32  33
ATOM     33  C   UNL     1       8.027  -3.740   5.938  0.00  0.00    +0.575 C 
ATOM     34  F   UNL     1       7.715  -4.817   6.774  0.00  0.00    -0.133 F 
ATOM     35  F   UNL     1       9.309  -3.269   6.243  0.00  0.00    -0.133 F 
ATOM     36  F   UNL     1       7.096  -2.714   6.132  0.00  0.00    -0.133 F 
ENDBRANCH  32  33
ENDBRANCH  29  32
ENDBRANCH  24  26
ENDBRANCH   3  24
TORSDOF 6
