REMARK  Name = ZINC12886950
REMARK  7 active torsions:
REMARK  status: ('A' for Active; 'I' for Inactive)
REMARK    1  A    between atoms: C_1  and  C_2
REMARK    2  A    between atoms: C_2  and  C_3
REMARK    3  A    between atoms: C_3  and  C_5
REMARK    4  A    between atoms: C_3  and  N_6
REMARK    5  A    between atoms: C_11  and  C_28
REMARK    6  A    between atoms: C_20  and  C_27
REMARK    7  A    between atoms: C_28  and  C_29
REMARK                            x       y       z     vdW  Elec       q    Type
REMARK                         _______ _______ _______ _____ _____    ______ ____
ROOT
ATOM      1  N   UNL     1      -5.480   1.438  -0.420  0.00  0.00    -0.239 N 
ATOM      2  C   UNL     1      -5.012   0.215  -0.145  0.00  0.00    +0.224 C 
ATOM      3  O   UNL     1      -4.959  -0.283   0.959  0.00  0.00    -0.275 OA
ATOM      4  C   UNL     1      -4.562  -0.452  -1.426  0.00  0.00    +0.073 C 
ATOM      5  C   UNL     1      -3.026  -0.600  -1.409  0.00  0.00    -0.053 C 
ATOM      6  C   UNL     1      -3.459   1.026  -3.030  0.00  0.00    +0.050 C 
ATOM      7  C   UNL     1      -4.845   0.629  -2.509  0.00  0.00    +0.088 C 
ATOM      8  C   UNL     1      -5.435   1.773  -1.715  0.00  0.00    +0.225 C 
ATOM      9  O   UNL     1      -5.810   2.828  -2.179  0.00  0.00    -0.275 OA
ATOM     10  C   UNL     1      -3.124   0.311  -4.309  0.00  0.00    -0.027 A 
ATOM     11  C   UNL     1      -3.016  -1.019  -4.651  0.00  0.00    +0.008 A 
ATOM     12  C   UNL     1      -2.683  -1.375  -5.946  0.00  0.00    -0.050 A 
ATOM     13  C   UNL     1      -2.459  -0.394  -6.894  0.00  0.00    +0.005 A 
ATOM     14  C   UNL     1      -2.567   0.939  -6.556  0.00  0.00    +0.024 A 
ATOM     15  C   UNL     1      -2.902   1.307  -5.255  0.00  0.00    +0.036 A 
ATOM     16  N   UNL     1      -3.069   2.568  -4.677  0.00  0.00    -0.286 N 
ATOM     17  C   UNL     1      -3.397   2.489  -3.373  0.00  0.00    +0.211 C 
ATOM     18  O   UNL     1      -3.603   3.418  -2.620  0.00  0.00    -0.277 OA
ATOM     19  C   UNL     1      -2.564  -2.830  -6.321  0.00  0.00    +0.044 C 
ATOM     20  H   UNL     1      -2.962   3.403  -5.159  0.00  0.00    +0.155 HD
ATOM     21  N   UNL     1      -2.539   0.664  -1.966  0.00  0.00    +0.394 N 
ATOM     22  H   UNL     1      -1.591   0.546  -2.341  0.00  0.00    -0.083 HD
ATOM     23  H   UNL     1      -2.532   1.392  -1.241  0.00  0.00    -0.083 HD
ENDROOT
BRANCH   1  24
ATOM     24  C   UNL     1      -5.998   2.339   0.613  0.00  0.00    +0.081 C 
ATOM     25  C   UNL     1      -4.899   2.627   1.637  0.00  0.00    +0.028 C 
BRANCH  24  27
ATOM     26  C   UNL     1      -8.335   1.506   0.316  0.00  0.00    +0.006 C 
ATOM     27  C   UNL     1      -7.188   1.680   1.314  0.00  0.00    +0.019 C 
ENDBRANCH  24  27
ENDBRANCH   1  24
BRANCH   5  28
ATOM     28  C   UNL     1      -2.527  -0.809   0.022  0.00  0.00    +0.022 C 
BRANCH  28  29
ATOM     29  C   UNL     1      -1.037  -1.037   0.006  0.00  0.00    -0.024 A 
ATOM     30  C   UNL     1      -0.411  -2.224  -0.006  0.00  0.00    +0.087 A 
ATOM     31  N   UNL     1       0.945  -2.036  -0.018  0.00  0.00    -0.360 N 
ATOM     32  H   UNL     1       1.605  -2.746  -0.028  0.00  0.00    +0.165 HD
ATOM     33  C   UNL     1       1.231  -0.689  -0.013  0.00  0.00    +0.047 A 
ATOM     34  C   UNL     1       0.002  -0.004   0.002  0.00  0.00    +0.003 A 
ATOM     35  C   UNL     1      -0.017   1.392   0.010  0.00  0.00    +0.010 A 
ATOM     36  C   UNL     1       1.160   2.086   0.002  0.00  0.00    +0.001 A 
ATOM     37  C   UNL     1       2.375   1.415  -0.013  0.00  0.00    +0.002 A 
ATOM     38  C   UNL     1       2.417   0.038  -0.021  0.00  0.00    +0.026 A 
ENDBRANCH  28  29
ENDBRANCH   5  28
TORSDOF 4
