REMARK  Name = ZINC04787605
REMARK  15 active torsions:
REMARK  status: ('A' for Active; 'I' for Inactive)
REMARK    1  A    between atoms: C_1  and  C_2
REMARK    2  A    between atoms: C_7  and  C_20
REMARK    3  A    between atoms: C_9  and  C_13
REMARK    4  A    between atoms: C_10  and  C_12
REMARK    5  A    between atoms: C_13  and  O_15
REMARK    6  A    between atoms: O_15  and  C_16
REMARK    7  A    between atoms: C_16  and  C_17
REMARK    8  A    between atoms: C_17  and  O_18
REMARK    9  A    between atoms: O_18  and  C_19
REMARK   10  A    between atoms: C_22  and  O_28
REMARK   11  A    between atoms: C_23  and  O_27
REMARK   12  A    between atoms: O_28  and  C_29
REMARK   13  A    between atoms: C_32  and  C_34
REMARK   14  A    between atoms: C_34  and  O_36
REMARK   15  A    between atoms: O_36  and  C_37
REMARK                            x       y       z     vdW  Elec       q    Type
REMARK                         _______ _______ _______ _____ _____    ______ ____
ROOT
ATOM      1  C   UNL     1       3.681   2.137  -0.638  0.00  0.00    +0.009 C 
ATOM      2  C   UNL     1       2.352   1.381  -0.696  0.00  0.00    +0.013 C 
ATOM      3  C   UNL     1       2.491   0.039   0.026  0.00  0.00    +0.055 C 
ATOM      4  C   UNL     1       1.168  -0.685   0.009  0.00  0.00    +0.016 C 
ATOM      5  C   UNL     1       0.002  -0.004   0.002  0.00  0.00    +0.025 C 
ATOM      6  C   UNL     1      -1.317  -0.735  -0.018  0.00  0.00    +0.092 C 
ATOM      7  C   UNL     1      -1.145  -2.167   0.393  0.00  0.00    +0.065 C 
ATOM      8  C   UNL     1       0.063  -2.756   0.383  0.00  0.00    +0.016 C 
ATOM      9  N   UNL     1       1.173  -2.054   0.002  0.00  0.00    -0.321 N 
ATOM     10  C   UNL     1       0.196  -4.200   0.794  0.00  0.00    +0.061 C 
ATOM     11  C   UNL     1      -0.017   1.402   0.010  0.00  0.00    +0.176 C 
ATOM     12  O   UNL     1      -1.083   1.984   0.018  0.00  0.00    -0.291 OA
ATOM     13  C   UNL     1       1.260   2.198   0.002  0.00  0.00    +0.171 C 
ATOM     14  H   UNL     1       2.075  -2.599  -0.311  0.00  0.00    +0.152 HD
ENDROOT
BRANCH   6  15
ATOM     15  C   UNL     1      -1.889  -0.686  -1.412  0.00  0.00    -0.030 A 
ATOM     16  C   UNL     1      -3.121  -0.100  -1.631  0.00  0.00    +0.054 A 
ATOM     17  C   UNL     1      -3.646  -0.048  -2.912  0.00  0.00    +0.163 A 
ATOM     18  C   UNL     1      -2.936  -0.598  -3.975  0.00  0.00    +0.177 A 
ATOM     19  C   UNL     1      -1.702  -1.189  -3.748  0.00  0.00    +0.086 A 
ATOM     20  C   UNL     1      -1.182  -1.232  -2.466  0.00  0.00    +0.028 A 
ATOM     21 CL   UNL     1      -0.812  -1.876  -5.070  0.00  0.00    -0.080 Cl
BRANCH  18  22
ATOM     22  O   UNL     1      -3.449  -0.554  -5.234  0.00  0.00    -0.502 OA
ATOM     23  H   UNL     1      -2.886  -0.989  -6.073  0.00  0.00    +0.292 HD
ENDBRANCH  18  22
BRANCH  17  24
ATOM     24  O   UNL     1      -4.856   0.533  -3.130  0.00  0.00    -0.491 OA
ATOM     25  C   UNL     1      -5.529   1.076  -1.992  0.00  0.00    +0.277 C 
ENDBRANCH  17  24
ENDBRANCH   6  15
BRANCH   7  26
ATOM     26  C   UNL     1      -2.277  -2.913   0.799  0.00  0.00    +0.338 C 
ATOM     27  O   UNL     1      -2.151  -4.076   1.135  0.00  0.00    -0.245 OA
BRANCH  26  28
ATOM     28  O   UNL     1      -3.496  -2.335   0.814  0.00  0.00    -0.459 OA
BRANCH  28  29
ATOM     29  C   UNL     1      -4.594  -3.146   1.235  0.00  0.00    +0.260 C 
BRANCH  29  30
ATOM     30  C   UNL     1      -5.884  -2.325   1.186  0.00  0.00    +0.200 C 
BRANCH  30  31
ATOM     31  O   UNL     1      -6.172  -1.971  -0.168  0.00  0.00    -0.380 OA
ATOM     32  C   UNL     1      -7.364  -1.198  -0.325  0.00  0.00    +0.194 C 
ENDBRANCH  30  31
ENDBRANCH  29  30
ENDBRANCH  28  29
ENDBRANCH  26  28
ENDBRANCH   7  26
BRANCH  13  33
ATOM     33  C   UNL     1       1.043   3.491  -0.742  0.00  0.00    +0.318 C 
ATOM     34  O   UNL     1       1.701   3.740  -1.724  0.00  0.00    -0.250 OA
BRANCH  33  35
ATOM     35  O   UNL     1       0.119   4.365  -0.313  0.00  0.00    -0.467 OA
ATOM     36  C   UNL     1      -0.035   5.589  -1.079  0.00  0.00    +0.280 C 
ENDBRANCH  33  35
ENDBRANCH  13  33
TORSDOF 10
