REMARK  Name = ZINC10980427
REMARK  10 active torsions:
REMARK  status: ('A' for Active; 'I' for Inactive)
REMARK    1  A    between atoms: C_1  and  C_2
REMARK    2  A    between atoms: C_5  and  C_9
REMARK    3  A    between atoms: C_7  and  O_8
REMARK    4  A    between atoms: C_9  and  O_11
REMARK    5  A    between atoms: O_11  and  C_12
REMARK    6  A    between atoms: C_12  and  C_14
REMARK    7  A    between atoms: C_12  and  C_15
REMARK    8  A    between atoms: N_17  and  C_18
REMARK    9  A    between atoms: C_20  and  S_25
REMARK   10  A    between atoms: S_25  and  N_28
REMARK                            x       y       z     vdW  Elec       q    Type
REMARK                         _______ _______ _______ _____ _____    ______ ____
ROOT
ATOM      1  C   UNL     1       7.036   0.954  -1.968  0.00  0.00    +0.258 C 
ATOM      2  O   UNL     1       7.051   0.867  -0.759  0.00  0.00    -0.271 OA
ATOM      3  N   UNL     1       6.216   0.166  -2.691  0.00  0.00    -0.281 N 
ATOM      4  H   UNL     1       6.261   0.178  -3.660  0.00  0.00    +0.155 HD
ENDROOT
BRANCH   3   5
ATOM      5  C   UNL     1       5.299  -0.670  -2.044  0.00  0.00    +0.054 A 
ATOM      6  C   UNL     1       4.853  -0.356  -0.767  0.00  0.00    +0.053 A 
ATOM      7  C   UNL     1       3.948  -1.183  -0.131  0.00  0.00    +0.107 A 
ATOM      8  C   UNL     1       3.490  -2.326  -0.762  0.00  0.00    +0.030 A 
ATOM      9  C   UNL     1       3.928  -2.639  -2.035  0.00  0.00    +0.024 A 
ATOM     10  C   UNL     1       4.833  -1.815  -2.678  0.00  0.00    +0.062 A 
ATOM     11 CL   UNL     1       5.387  -2.212  -4.274  0.00  0.00    -0.082 Cl
BRANCH   7  12
ATOM     12  S   UNL     1       3.382  -0.786   1.490  0.00  0.00    +0.061 S 
ATOM     13  O   UNL     1       4.378   0.039   2.078  0.00  0.00    -0.153 OA
ATOM     14  O   UNL     1       2.956  -2.006   2.082  0.00  0.00    -0.153 OA
BRANCH  12  15
ATOM     15  N   UNL     1       2.029   0.154   1.319  0.00  0.00    -0.177 NA
ATOM     16  C   UNL     1       0.696  -0.459   1.245  0.00  0.00    +0.109 C 
ATOM     17  C   UNL     1      -0.008   0.045  -0.019  0.00  0.00    +0.017 C 
ATOM     18  C   UNL     1      -0.019   1.575  -0.016  0.00  0.00    +0.003 C 
ATOM     19  C   UNL     1       1.419   2.097  -0.024  0.00  0.00    +0.017 C 
ATOM     20  C   UNL     1       2.140   1.617   1.240  0.00  0.00    +0.109 C 
ENDBRANCH  12  15
ENDBRANCH   7  12
ENDBRANCH   3   5
BRANCH   1  21
ATOM     21  C   UNL     1       7.936   1.944  -2.663  0.00  0.00    +0.259 C 
ATOM     22  C   UNL     1       8.879   1.199  -3.610  0.00  0.00    +0.062 C 
BRANCH  21  23
ATOM     23  O   UNL     1       8.715   2.667  -1.674  0.00  0.00    -0.449 OA
BRANCH  23  24
ATOM     24  C   UNL     1       9.073   3.929  -1.981  0.00  0.00    +0.340 C 
ATOM     25  O   UNL     1       8.743   4.412  -3.046  0.00  0.00    -0.245 OA
BRANCH  24  30
ATOM     26  C   UNL     1      12.165   7.024   1.762  0.00  0.00    +0.047 C 
ATOM     27  C   UNL     1      11.356   6.215   0.781  0.00  0.00    -0.009 A 
ATOM     28  C   UNL     1      10.987   4.920   1.095  0.00  0.00    +0.008 A 
ATOM     29  C   UNL     1      10.242   4.175   0.205  0.00  0.00    +0.015 A 
ATOM     30  C   UNL     1       9.867   4.726  -1.022  0.00  0.00    +0.062 A 
ATOM     31  C   UNL     1      10.239   6.033  -1.337  0.00  0.00    +0.060 A 
ATOM     32  C   UNL     1      10.982   6.773  -0.434  0.00  0.00    +0.121 A 
BRANCH  32  33
ATOM     33  O   UNL     1      11.347   8.047  -0.737  0.00  0.00    -0.506 OA
ATOM     34  H   UNL     1      10.708   8.716  -0.458  0.00  0.00    +0.292 HD
ENDBRANCH  32  33
ENDBRANCH  24  30
ENDBRANCH  23  24
ENDBRANCH  21  23
ENDBRANCH   1  21
TORSDOF 8
