REMARK  Name = ZINC06149427
REMARK  14 active torsions:
REMARK  status: ('A' for Active; 'I' for Inactive)
REMARK    1  A    between atoms: C_1  and  C_2
REMARK    2  A    between atoms: C_2  and  C_3
REMARK    3  A    between atoms: C_3  and  C_4
REMARK    4  A    between atoms: C_3  and  C_5
REMARK    5  A    between atoms: C_3  and  N_6
REMARK    6  A    between atoms: C_7  and  C_11
REMARK    7  A    between atoms: C_11  and  C_13
REMARK    8  A    between atoms: C_11  and  N_75
REMARK    9  A    between atoms: C_17  and  C_25
REMARK   10  A    between atoms: C_26  and  C_27
REMARK   11  A    between atoms: C_26  and  N_75
REMARK   12  A    between atoms: C_27  and  C_28
REMARK   13  A    between atoms: C_34  and  C_35
REMARK   14  A    between atoms: C_34  and  N_75
REMARK                            x       y       z     vdW  Elec       q    Type
REMARK                         _______ _______ _______ _____ _____    ______ ____
ROOT
ATOM      1  C   UNL     1      -2.017  -1.622   0.698  0.00  0.00    +0.039 C 
ENDROOT
BRANCH   1   2
ATOM      2  C   UNL     1      -3.355  -2.087   0.185  0.00  0.00    +0.011 A 
ATOM      3  C   UNL     1      -4.304  -2.507   1.059  0.00  0.00    +0.017 A 
ATOM      4  C   UNL     1      -5.594  -2.953   0.529  0.00  0.00    -0.001 A 
ATOM      5  C   UNL     1      -6.611  -3.397   1.380  0.00  0.00    +0.013 A 
ATOM      6  C   UNL     1      -7.804  -3.805   0.854  0.00  0.00    -0.050 A 
ATOM      7  C   UNL     1      -8.016  -3.784  -0.518  0.00  0.00    +0.005 A 
ATOM      8  C   UNL     1      -7.028  -3.350  -1.375  0.00  0.00    +0.026 A 
ATOM      9  C   UNL     1      -5.805  -2.929  -0.863  0.00  0.00    +0.049 A 
ATOM     10  N   UNL     1      -4.800  -2.490  -1.697  0.00  0.00    -0.322 N 
ATOM     11  H   UNL     1      -4.950  -2.477  -2.686  0.00  0.00    +0.169 HD
ATOM     12  C   UNL     1      -3.620  -2.078  -1.201  0.00  0.00    +0.251 A 
ATOM     13  O   UNL     1      -2.755  -1.691  -1.968  0.00  0.00    -0.268 OA
ATOM     14  C   UNL     1      -8.900  -4.284   1.772  0.00  0.00    +0.044 C 
ENDBRANCH   1   2
BRANCH   1  16
ATOM     15  N   UNL     1      -0.143  -3.347   0.847  0.00  0.00    -0.225 N 
ATOM     16  C   UNL     1      -0.931  -2.511   0.146  0.00  0.00    +0.143 A 
ATOM     17  N   UNL     1      -0.576  -2.624  -1.111  0.00  0.00    -0.115 NA
ATOM     18  N   UNL     1       0.386  -3.479  -1.177  0.00  0.00    -0.023 NA
ATOM     19  N   UNL     1       0.648  -3.919   0.004  0.00  0.00    -0.043 NA
BRANCH  15  20
ATOM     20  C   UNL     1      -0.176  -3.564   2.295  0.00  0.00    +0.061 C 
ATOM     21  C   UNL     1       0.138  -2.252   3.016  0.00  0.00    +0.036 C 
ATOM     22  C   UNL     1      -1.568  -4.051   2.706  0.00  0.00    +0.036 C 
BRANCH  20  24
ATOM     23  C   UNL     1       0.830  -4.846   4.189  0.00  0.00    +0.006 C 
ATOM     24  C   UNL     1       0.865  -4.618   2.677  0.00  0.00    +0.026 C 
ENDBRANCH  20  24
ENDBRANCH  15  20
ENDBRANCH   1  16
BRANCH   1  25
ATOM     25  N   UNL     1      -1.781  -0.237   0.239  0.00  0.00    +0.392 N 
ATOM     26  H   UNL     1      -1.776  -0.222  -0.788  0.00  0.00    -0.080 HD
BRANCH  25  27
ATOM     27  C   UNL     1      -2.861   0.647   0.726  0.00  0.00    -0.072 C 
BRANCH  27  28
ATOM     28  C   UNL     1      -2.718   2.016   0.058  0.00  0.00    +0.016 C 
BRANCH  28  29
ATOM     29  C   UNL     1      -3.825   2.923   0.529  0.00  0.00    -0.049 A 
ATOM     30  C   UNL     1      -5.020   2.973  -0.165  0.00  0.00    +0.003 A 
ATOM     31  C   UNL     1      -6.038   3.801   0.270  0.00  0.00    +0.000 A 
ATOM     32  C   UNL     1      -5.857   4.587   1.392  0.00  0.00    +0.000 A 
ATOM     33  C   UNL     1      -4.660   4.542   2.082  0.00  0.00    +0.000 A 
ATOM     34  C   UNL     1      -3.644   3.709   1.651  0.00  0.00    +0.003 A 
ENDBRANCH  28  29
ENDBRANCH  27  28
ENDBRANCH  25  27
BRANCH  25  35
ATOM     35  C   UNL     1      -0.473   0.243   0.732  0.00  0.00    -0.042 C 
BRANCH  35  36
ATOM     36  C   UNL     1       0.544   0.070  -0.366  0.00  0.00    -0.064 A 
ATOM     37  C   UNL     1       1.370  -1.038  -0.375  0.00  0.00    +0.002 A 
ATOM     38  C   UNL     1       2.300  -1.200  -1.385  0.00  0.00    +0.000 A 
ATOM     39  C   UNL     1       2.412  -0.246  -2.379  0.00  0.00    +0.000 A 
ATOM     40  C   UNL     1       1.590   0.865  -2.367  0.00  0.00    +0.000 A 
ATOM     41  C   UNL     1       0.656   1.024  -1.361  0.00  0.00    +0.002 A 
ENDBRANCH  35  36
ENDBRANCH  25  35
ENDBRANCH   1  25
TORSDOF 10
