REMARK  Name = ZINC09483259
REMARK  7 active torsions:
REMARK  status: ('A' for Active; 'I' for Inactive)
REMARK    1  A    between atoms: C_1  and  C_2
REMARK    2  A    between atoms: C_2  and  C_3
REMARK    3  A    between atoms: C_8  and  C_12
REMARK    4  A    between atoms: C_8  and  C_13
REMARK    5  A    between atoms: N_21  and  C_22
REMARK    6  A    between atoms: C_22  and  C_23
REMARK    7  A    between atoms: N_25  and  C_26
REMARK                            x       y       z     vdW  Elec       q    Type
REMARK                         _______ _______ _______ _____ _____    ______ ____
ROOT
ATOM      1  C   UNL     1      -0.609   2.942   1.294  0.00  0.00    +0.109 C 
ATOM      2  C   UNL     1      -1.022   3.319   2.693  0.00  0.00    +0.032 C 
ATOM      3  C   UNL     1      -2.206   2.921   3.149  0.00  0.00    +0.017 C 
ATOM      4  C   UNL     1      -2.689   3.276   4.533  0.00  0.00    +0.058 C 
ATOM      5  C   UNL     1      -1.481   3.426   5.463  0.00  0.00    -0.023 C 
ATOM      6  C   UNL     1      -0.536   4.482   4.881  0.00  0.00    +0.086 C 
ATOM      7  C   UNL     1      -0.147   4.083   3.481  0.00  0.00    +0.163 C 
ATOM      8  O   UNL     1       0.930   4.425   3.032  0.00  0.00    -0.292 OA
ATOM      9  C   UNL     1      -0.749   2.087   5.572  0.00  0.00    +0.011 C 
ATOM     10  C   UNL     1      -1.951   3.868   6.850  0.00  0.00    +0.011 C 
ATOM     11  N   UNL     1      -2.991   2.163   2.333  0.00  0.00    -0.316 N 
ATOM     12  C   UNL     1      -3.554   2.682   1.166  0.00  0.00    +0.052 A 
ATOM     13  C   UNL     1      -4.931   2.637   1.006  0.00  0.00    +0.025 A 
ATOM     14  C   UNL     1      -5.513   3.034  -0.181  0.00  0.00    +0.002 A 
ATOM     15  C   UNL     1      -4.711   3.470  -1.221  0.00  0.00    +0.002 A 
ATOM     16  C   UNL     1      -3.347   3.561  -1.055  0.00  0.00    +0.025 A 
ATOM     17  C   UNL     1      -2.743   3.222   0.160  0.00  0.00    +0.052 A 
ATOM     18  N   UNL     1      -1.417   3.610   0.303  0.00  0.00    -0.312 N 
ATOM     19  H   UNL     1      -3.162   1.238   2.569  0.00  0.00    +0.152 HD
ENDROOT
BRANCH   1  21
ATOM     20  C   UNL     1      -0.165   1.010  -0.227  0.00  0.00    +0.006 C 
ATOM     21  C   UNL     1      -0.757   1.429   1.120  0.00  0.00    +0.024 C 
ENDBRANCH   1  21
BRANCH  18  22
ATOM     22  C   UNL     1      -0.737   3.639  -0.999  0.00  0.00    +0.201 C 
BRANCH  22  23
ATOM     23  C   UNL     1       0.596   4.327  -0.853  0.00  0.00    +0.231 C 
ATOM     24  O   UNL     1       0.884   4.878   0.188  0.00  0.00    -0.274 OA
ATOM     25  N   UNL     1       1.468   4.331  -1.881  0.00  0.00    -0.311 N 
ATOM     26  H   UNL     1       1.238   3.890  -2.714  0.00  0.00    +0.149 HD
BRANCH  25  27
ATOM     27  C   UNL     1       2.764   5.000  -1.740  0.00  0.00    +0.073 C 
ATOM     28  C   UNL     1       2.607   6.488  -2.059  0.00  0.00    +0.022 C 
ATOM     29  C   UNL     1       3.961   7.186  -1.912  0.00  0.00    +0.002 C 
ATOM     30  C   UNL     1       4.966   6.560  -2.880  0.00  0.00    +0.000 C 
ATOM     31  C   UNL     1       5.123   5.072  -2.560  0.00  0.00    +0.002 C 
ATOM     32  C   UNL     1       3.769   4.373  -2.708  0.00  0.00    +0.022 C 
ENDBRANCH  25  27
ENDBRANCH  22  23
ENDBRANCH  18  22
TORSDOF 4
