REMARK  Name = ZINC12312247
REMARK  5 active torsions:
REMARK  status: ('A' for Active; 'I' for Inactive)
REMARK    1  A    between atoms: C_8  and  N_9
REMARK    2  A    between atoms: N_9  and  C_10
REMARK    3  A    between atoms: C_15  and  N_16
REMARK    4  A    between atoms: N_21  and  C_24
REMARK    5  A    between atoms: C_28  and  C_30
REMARK                            x       y       z     vdW  Elec       q    Type
REMARK                         _______ _______ _______ _____ _____    ______ ____
ROOT
ATOM      1  C   UNL     1       3.030   7.420  -0.129  0.00  0.00    +0.001 A 
ATOM      2  C   UNL     1       4.174   7.902   0.491  0.00  0.00    +0.001 A 
ATOM      3  C   UNL     1       5.387   7.270   0.321  0.00  0.00    +0.014 A 
ATOM      4  C   UNL     1       5.466   6.133  -0.484  0.00  0.00    +0.046 A 
ATOM      5  C   UNL     1       4.302   5.650  -1.117  0.00  0.00    +0.000 A 
ATOM      6  C   UNL     1       3.087   6.297  -0.929  0.00  0.00    +0.009 A 
ATOM      7  C   UNL     1       4.417   4.440  -1.959  0.00  0.00    +0.059 C 
ATOM      8  C   UNL     1       3.316   3.915  -2.600  0.00  0.00    +0.085 C 
ATOM      9  C   UNL     1       5.739   3.818  -2.095  0.00  0.00    +0.259 C 
ATOM     10  O   UNL     1       5.869   2.824  -2.785  0.00  0.00    -0.269 OA
ATOM     11  N   UNL     1       6.807   4.336  -1.467  0.00  0.00    -0.202 N 
ATOM     12  C   UNL     1       6.738   5.430  -0.691  0.00  0.00    +0.258 C 
ATOM     13  O   UNL     1       7.746   5.845  -0.152  0.00  0.00    -0.269 OA
ENDROOT
BRANCH  11  14
ATOM     14  C   UNL     1       8.049   3.707  -1.629  0.00  0.00    +0.045 A 
ATOM     15  C   UNL     1       8.833   3.990  -2.739  0.00  0.00    +0.024 A 
ATOM     16  C   UNL     1      10.056   3.368  -2.895  0.00  0.00    +0.002 A 
ATOM     17  C   UNL     1      10.500   2.464  -1.947  0.00  0.00    +0.012 A 
ATOM     18  C   UNL     1       9.722   2.181  -0.840  0.00  0.00    +0.057 A 
ATOM     19  C   UNL     1       8.499   2.804  -0.676  0.00  0.00    +0.036 A 
BRANCH  18  20
ATOM     20  C   UNL     1      10.210   1.196   0.192  0.00  0.00    +0.417 C 
ATOM     21  F   UNL     1      11.464   0.707  -0.188  0.00  0.00    -0.166 F 
ATOM     22  F   UNL     1      10.314   1.834   1.432  0.00  0.00    -0.166 F 
ATOM     23  F   UNL     1       9.304   0.134   0.287  0.00  0.00    -0.166 F 
ENDBRANCH  18  20
ENDBRANCH  11  14
BRANCH   8  24
ATOM     24  N   UNL     1       2.075   4.095  -2.076  0.00  0.00    -0.318 N 
ATOM     25  H   UNL     1       1.958   4.550  -1.082  0.00  0.00    +0.152 HD
BRANCH  24  26
ATOM     26  C   UNL     1       0.947   3.700  -2.801  0.00  0.00    +0.062 A 
ATOM     27  C   UNL     1       1.091   3.157  -4.072  0.00  0.00    +0.025 A 
ATOM     28  C   UNL     1      -0.025   2.767  -4.785  0.00  0.00    +0.002 A 
ATOM     29  C   UNL     1      -1.286   2.923  -4.238  0.00  0.00    +0.002 A 
ATOM     30  C   UNL     1      -1.433   3.458  -2.972  0.00  0.00    +0.034 A 
ATOM     31  C   UNL     1      -0.321   3.850  -2.253  0.00  0.00    +0.147 A 
BRANCH  31  32
ATOM     32  N   UNL     1      -0.479   4.429  -0.900  0.00  0.00    +0.058 N 
ATOM     33  O   UNL     1      -1.591   4.680  -0.471  0.00  0.00    -0.126 OA
ATOM     34  O   UNL     1       0.503   4.655  -0.215  0.00  0.00    -0.126 OA
ENDBRANCH  31  32
ENDBRANCH  24  26
ENDBRANCH   8  24
TORSDOF 5
