REMARK  Name = ZINC15722277
REMARK  8 active torsions:
REMARK  status: ('A' for Active; 'I' for Inactive)
REMARK    1  A    between atoms: N_7  and  C_8
REMARK    2  A    between atoms: C_8  and  C_9
REMARK    3  A    between atoms: N_11  and  C_12
REMARK    4  A    between atoms: C_12  and  C_13
REMARK    5  A    between atoms: C_13  and  C_14
REMARK    6  A    between atoms: C_14  and  N_71
REMARK    7  A    between atoms: C_22  and  S_23
REMARK    8  A    between atoms: S_23  and  N_26
REMARK                            x       y       z     vdW  Elec       q    Type
REMARK                         _______ _______ _______ _____ _____    ______ ____
ROOT
ATOM      1  C   UNL     1      -1.882   1.044  -1.950  0.00  0.00    +0.030 A 
ATOM      2  C   UNL     1      -2.629   1.417  -3.047  0.00  0.00    +0.028 A 
ATOM      3  C   UNL     1      -2.445   2.673  -3.613  0.00  0.00    +0.050 A 
ATOM      4  C   UNL     1      -1.498   3.551  -3.052  0.00  0.00    +0.002 A 
ATOM      5  C   UNL     1      -1.545   4.769  -3.864  0.00  0.00    +0.027 A 
ATOM      6  C   UNL     1      -2.467   4.569  -4.819  0.00  0.00    +0.087 A 
ATOM      7  N   UNL     1      -3.015   3.323  -4.685  0.00  0.00    -0.338 N 
ATOM      8  C   UNL     1      -0.757   3.155  -1.938  0.00  0.00    +0.038 A 
ATOM      9  C   UNL     1      -0.954   1.915  -1.397  0.00  0.00    +0.106 A 
ENDROOT
BRANCH   9  10
ATOM     10  S   UNL     1      -0.017   1.417   0.010  0.00  0.00    +0.061 S 
ATOM     11  O   UNL     1       0.002  -0.004   0.002  0.00  0.00    -0.153 OA
ATOM     12  O   UNL     1       1.172   2.195   0.003  0.00  0.00    -0.153 OA
BRANCH  10  13
ATOM     13  N   UNL     1      -0.872   1.871   1.353  0.00  0.00    -0.177 NA
ATOM     14  C   UNL     1      -0.630   3.179   1.919  0.00  0.00    +0.109 C 
ATOM     15  C   UNL     1       0.509   3.100   2.958  0.00  0.00    +0.017 C 
ATOM     16  C   UNL     1       0.051   2.393   4.164  0.00  0.00    +0.001 C 
ATOM     17  C   UNL     1      -0.349   0.940   3.928  0.00  0.00    +0.001 C 
ATOM     18  C   UNL     1      -1.784   0.886   3.465  0.00  0.00    +0.017 C 
ATOM     19  C   UNL     1      -1.846   0.922   1.927  0.00  0.00    +0.109 C 
ENDBRANCH  10  13
ENDBRANCH   9  10
BRANCH   7  20
ATOM     20  C   UNL     1      -4.054   2.762  -5.553  0.00  0.00    +0.217 C 
BRANCH  20  21
ATOM     21  C   UNL     1      -5.407   2.996  -4.932  0.00  0.00    +0.233 C 
ATOM     22  O   UNL     1      -5.495   3.573  -3.869  0.00  0.00    -0.274 OA
ATOM     23  N   UNL     1      -6.519   2.563  -5.558  0.00  0.00    -0.314 N 
ATOM     24  H   UNL     1      -6.449   2.101  -6.408  0.00  0.00    +0.149 HD
BRANCH  23  25
ATOM     25  C   UNL     1      -7.835   2.790  -4.954  0.00  0.00    +0.102 C 
BRANCH  25  26
ATOM     26  C   UNL     1      -8.920   2.204  -5.860  0.00  0.00    +0.000 C 
BRANCH  26  27
ATOM     27  C   UNL     1     -10.293   2.441  -5.230  0.00  0.00    -0.077 C 
BRANCH  27  34
ATOM     28  C   UNL     1     -11.330   2.537  -7.426  0.00  0.00    -0.079 C 
ATOM     29  C   UNL     1     -12.539   2.194  -8.252  0.00  0.00    -0.019 C 
ATOM     30  C   UNL     1     -13.611   3.281  -8.027  0.00  0.00    -0.002 C 
ATOM     31  C   UNL     1     -14.322   3.101  -6.766  0.00  0.00    -0.002 C 
ATOM     32  C   UNL     1     -13.378   3.184  -5.548  0.00  0.00    -0.019 C 
ATOM     33  C   UNL     1     -12.649   1.874  -5.419  0.00  0.00    -0.079 C 
ATOM     34  N   UNL     1     -11.310   1.830  -6.100  0.00  0.00    +0.380 N 
ATOM     35  H   UNL     1     -11.061   0.847  -6.261  0.00  0.00    -0.082 HD
ENDBRANCH  27  34
ENDBRANCH  26  27
ENDBRANCH  25  26
ENDBRANCH  23  25
ENDBRANCH  20  21
ENDBRANCH   7  20
TORSDOF 8
