REMARK  Name = ZINC16908575
REMARK  8 active torsions:
REMARK  status: ('A' for Active; 'I' for Inactive)
REMARK    1  A    between atoms: C_1  and  C_2
REMARK    2  A    between atoms: C_6  and  C_38
REMARK    3  A    between atoms: C_7  and  N_8
REMARK    4  A    between atoms: C_18  and  S_19
REMARK    5  A    between atoms: S_19  and  C_20
REMARK    6  A    between atoms: C_20  and  C_22
REMARK    7  A    between atoms: C_20  and  C_23
REMARK    8  A    between atoms: N_25  and  C_26
REMARK                            x       y       z     vdW  Elec       q    Type
REMARK                         _______ _______ _______ _____ _____    ______ ____
ROOT
ATOM      1  N   UNL     1       0.001   0.399   2.156  0.00  0.00    -0.255 N 
ATOM      2  C   UNL     1      -1.171   0.683   2.769  0.00  0.00    +0.267 A 
ATOM      3  O   UNL     1      -2.237   0.498   2.210  0.00  0.00    -0.267 OA
ATOM      4  C   UNL     1      -1.112   1.223   4.134  0.00  0.00    +0.065 A 
ATOM      5  C   UNL     1      -2.264   1.546   4.849  0.00  0.00    +0.015 A 
ATOM      6  C   UNL     1      -2.152   2.045   6.118  0.00  0.00    +0.001 A 
ATOM      7  C   UNL     1      -0.904   2.232   6.699  0.00  0.00    +0.002 A 
ATOM      8  C   UNL     1       0.241   1.924   6.021  0.00  0.00    +0.028 A 
ATOM      9  C   UNL     1       0.160   1.412   4.723  0.00  0.00    +0.079 A 
ATOM     10  N   UNL     1       1.268   1.093   4.015  0.00  0.00    -0.223 NA
ATOM     11  C   UNL     1       1.190   0.608   2.800  0.00  0.00    +0.177 A 
ENDROOT
BRANCH   1  18
ATOM     12  C   UNL     1       0.078   2.233  -0.019  0.00  0.00    +0.046 C 
ATOM     13  C   UNL     1       0.034   0.742  -0.236  0.00  0.00    -0.026 A 
ATOM     14  C   UNL     1       0.025   0.229  -1.518  0.00  0.00    +0.005 A 
ATOM     15  C   UNL     1      -0.011  -1.139  -1.717  0.00  0.00    +0.001 A 
ATOM     16  C   UNL     1      -0.047  -1.997  -0.634  0.00  0.00    +0.005 A 
ATOM     17  C   UNL     1      -0.043  -1.491   0.651  0.00  0.00    -0.026 A 
ATOM     18  C   UNL     1      -0.003  -0.118   0.854  0.00  0.00    +0.058 A 
ATOM     19  C   UNL     1      -0.084  -2.427   1.831  0.00  0.00    +0.046 C 
ENDBRANCH   1  18
BRANCH  11  20
ATOM     20  S   UNL     1       2.684   0.213   1.955  0.00  0.00    -0.075 S 
BRANCH  20  21
ATOM     21  C   UNL     1       3.893   0.668   3.223  0.00  0.00    +0.137 C 
ATOM     22  C   UNL     1       3.731  -0.252   4.435  0.00  0.00    +0.029 C 
BRANCH  21  23
ATOM     23  C   UNL     1       5.285   0.524   2.665  0.00  0.00    +0.230 C 
ATOM     24  O   UNL     1       5.479  -0.171   1.690  0.00  0.00    -0.274 OA
ATOM     25  N   UNL     1       6.315   1.169   3.248  0.00  0.00    -0.285 N 
ATOM     26  H   UNL     1       6.150   1.785   3.979  0.00  0.00    +0.155 HD
BRANCH  25  27
ATOM     27  C   UNL     1       7.623   0.949   2.799  0.00  0.00    +0.035 A 
ATOM     28  C   UNL     1       8.552   1.984   2.835  0.00  0.00    +0.025 A 
ATOM     29  C   UNL     1       9.843   1.773   2.394  0.00  0.00    +0.029 A 
ATOM     30  C   UNL     1      10.216   0.527   1.914  0.00  0.00    +0.067 A 
ATOM     31  C   UNL     1       9.286  -0.514   1.877  0.00  0.00    +0.069 A 
ATOM     32  C   UNL     1       7.992  -0.301   2.325  0.00  0.00    +0.051 A 
ATOM     33  N   UNL     1       9.944  -1.624   1.354  0.00  0.00    -0.306 N 
ATOM     34  H   UNL     1       9.553  -2.500   1.208  0.00  0.00    +0.170 HD
ATOM     35  C   UNL     1      11.216  -1.276   1.084  0.00  0.00    +0.325 A 
ATOM     36  O   UNL     1      12.062  -2.016   0.616  0.00  0.00    -0.247 OA
ATOM     37  N   UNL     1      11.412   0.016   1.411  0.00  0.00    -0.306 N 
ATOM     38  H   UNL     1      12.243   0.507   1.313  0.00  0.00    +0.170 HD
ENDBRANCH  25  27
ENDBRANCH  21  23
ENDBRANCH  20  21
ENDBRANCH  11  20
TORSDOF 5
