REMARK  Name = ZINC67483772
REMARK  10 active torsions:
REMARK  status: ('A' for Active; 'I' for Inactive)
REMARK    1  A    between atoms: C_1  and  C_2
REMARK    2  A    between atoms: C_2  and  C_3
REMARK    3  A    between atoms: C_2  and  C_4
REMARK    4  A    between atoms: C_4  and  C_5
REMARK    5  A    between atoms: C_5  and  C_7
REMARK    6  A    between atoms: C_5  and  N_24
REMARK    7  A    between atoms: N_9  and  C_10
REMARK    8  A    between atoms: C_10  and  C_11
REMARK    9  A    between atoms: N_16  and  C_17
REMARK   10  A    between atoms: C_17  and  C_18
REMARK                            x       y       z     vdW  Elec       q    Type
REMARK                         _______ _______ _______ _____ _____    ______ ____
ROOT
ATOM      1  C   UNL     1      -3.420  -0.977  -1.415  0.00  0.00    +0.233 C 
ATOM      2  O   UNL     1      -4.404  -0.298  -1.208  0.00  0.00    -0.274 OA
ATOM      3  N   UNL     1      -3.551  -2.292  -1.675  0.00  0.00    -0.315 N 
ATOM      4  H   UNL     1      -2.764  -2.835  -1.840  0.00  0.00    +0.149 HD
ENDROOT
BRANCH   1   5
ATOM      5  C   UNL     1      -2.050  -0.348  -1.381  0.00  0.00    +0.161 C 
BRANCH   5   6
ATOM      6  N   UNL     1      -2.173   1.101  -1.559  0.00  0.00    -0.288 N 
ATOM      7  C   UNL     1      -2.888   1.830  -0.679  0.00  0.00    +0.298 C 
ATOM      8  O   UNL     1      -3.431   1.285   0.262  0.00  0.00    -0.253 OA
ATOM      9  N   UNL     1      -3.001   3.163  -0.843  0.00  0.00    -0.313 N 
ATOM     10  H   UNL     1      -1.740   1.535  -2.310  0.00  0.00    +0.151 HD
ATOM     11  H   UNL     1      -2.568   3.597  -1.595  0.00  0.00    +0.146 HD
ATOM     12  H   UNL     1      -3.515   3.687  -0.210  0.00  0.00    +0.146 HD
ENDBRANCH   5   6
BRANCH   5  13
ATOM     13  C   UNL     1      -1.388  -0.642  -0.033  0.00  0.00    +0.034 C 
BRANCH  13  15
ATOM     14  C   UNL     1       0.646  -0.245   1.363  0.00  0.00    +0.007 C 
ATOM     15  C   UNL     1       0.034  -0.077  -0.029  0.00  0.00    -0.015 C 
ATOM     16  C   UNL     1       0.884  -0.830  -1.055  0.00  0.00    +0.007 C 
ENDBRANCH  13  15
ENDBRANCH   5  13
ENDBRANCH   1   5
BRANCH   3  17
ATOM     17  C   UNL     1      -4.882  -2.903  -1.708  0.00  0.00    +0.089 C 
BRANCH  17  18
ATOM     18  C   UNL     1      -4.752  -4.395  -2.023  0.00  0.00    -0.051 C 
ATOM     19  C   UNL     1      -6.128  -5.081  -1.894  0.00  0.00    -0.016 C 
ATOM     20  C   UNL     1      -5.777  -6.451  -1.256  0.00  0.00    -0.020 C 
ATOM     21  C   UNL     1      -4.613  -6.066  -0.309  0.00  0.00    -0.078 C 
ATOM     22  N   UNL     1      -3.848  -5.035  -1.049  0.00  0.00    +0.383 N 
ATOM     23  H   UNL     1      -3.498  -4.342  -0.404  0.00  0.00    -0.081 HD
BRANCH  22  24
ATOM     24  C   UNL     1      -2.724  -5.662  -1.757  0.00  0.00    -0.075 C 
BRANCH  24  25
ATOM     25  C   UNL     1      -1.726  -6.217  -0.738  0.00  0.00    -0.028 C 
ATOM     26  C   UNL     1      -1.111  -5.061   0.054  0.00  0.00    +0.002 C 
ATOM     27  C   UNL     1      -0.113  -5.615   1.073  0.00  0.00    +0.000 C 
ATOM     28  C   UNL     1       0.994  -6.377   0.341  0.00  0.00    +0.000 C 
ATOM     29  C   UNL     1       0.379  -7.532  -0.452  0.00  0.00    +0.000 C 
ATOM     30  C   UNL     1      -0.619  -6.978  -1.470  0.00  0.00    +0.002 C 
ENDBRANCH  24  25
ENDBRANCH  22  24
ENDBRANCH  17  18
ENDBRANCH   3  17
TORSDOF 8
