REMARK  Name = ZINC12784969
REMARK  14 active torsions:
REMARK  status: ('A' for Active; 'I' for Inactive)
REMARK    1  A    between atoms: C_1  and  C_2
REMARK    2  A    between atoms: C_2  and  C_3
REMARK    3  A    between atoms: C_2  and  C_4
REMARK    4  A    between atoms: C_4  and  C_6
REMARK    5  A    between atoms: C_4  and  N_23
REMARK    6  A    between atoms: N_8  and  C_9
REMARK    7  A    between atoms: C_9  and  C_10
REMARK    8  A    between atoms: C_10  and  C_12
REMARK    9  A    between atoms: C_10  and  N_68
REMARK   10  A    between atoms: C_24  and  C_26
REMARK   11  A    between atoms: C_28  and  O_34
REMARK   12  A    between atoms: C_30  and  O_32
REMARK   13  A    between atoms: O_32  and  C_33
REMARK   14  A    between atoms: O_34  and  C_35
REMARK                            x       y       z     vdW  Elec       q    Type
REMARK                         _______ _______ _______ _____ _____    ______ ____
ROOT
ATOM      1  C   UNL     1      -3.205   3.168  -3.122  0.00  0.00    +0.234 C 
ATOM      2  O   UNL     1      -2.399   2.421  -3.635  0.00  0.00    -0.274 OA
ATOM      3  N   UNL     1      -2.981   3.655  -1.885  0.00  0.00    -0.315 N 
ATOM      4  H   UNL     1      -3.660   4.187  -1.443  0.00  0.00    +0.149 HD
ENDROOT
BRANCH   1   5
ATOM      5  C   UNL     1      -4.456   3.553  -3.868  0.00  0.00    +0.162 C 
BRANCH   5   6
ATOM      6  N   UNL     1      -4.192   3.531  -5.309  0.00  0.00    -0.300 N 
ATOM      7  C   UNL     1      -4.935   4.287  -6.141  0.00  0.00    +0.245 C 
ATOM      8  O   UNL     1      -5.824   4.987  -5.697  0.00  0.00    -0.270 OA
ATOM      9  H   UNL     1      -3.483   2.973  -5.664  0.00  0.00    +0.150 HD
BRANCH   7  10
ATOM     10  C   UNL     1      -4.669   4.266  -7.596  0.00  0.00    +0.044 A 
ATOM     11  C   UNL     1      -3.645   3.468  -8.107  0.00  0.00    +0.059 A 
ATOM     12  C   UNL     1      -3.403   3.446  -9.471  0.00  0.00    +0.124 A 
ATOM     13  C   UNL     1      -4.169   4.225 -10.326  0.00  0.00    +0.091 A 
ATOM     14  C   UNL     1      -5.184   5.024  -9.821  0.00  0.00    +0.124 A 
ATOM     15  C   UNL     1      -5.436   5.048  -8.459  0.00  0.00    +0.059 A 
BRANCH  14  16
ATOM     16  O   UNL     1      -5.931   5.785 -10.663  0.00  0.00    -0.495 OA
ATOM     17  C   UNL     1      -5.616   5.713 -12.055  0.00  0.00    +0.277 C 
ENDBRANCH  14  16
BRANCH  12  18
ATOM     18  O   UNL     1      -2.410   2.664  -9.971  0.00  0.00    -0.495 OA
ATOM     19  C   UNL     1      -2.211   2.695 -11.386  0.00  0.00    +0.277 C 
ENDBRANCH  12  18
ENDBRANCH   7  10
ENDBRANCH   5   6
BRANCH   5  21
ATOM     20  C   UNL     1      -6.902   3.087  -4.081  0.00  0.00    +0.009 C 
ATOM     21  C   UNL     1      -5.572   2.559  -3.539  0.00  0.00    +0.012 C 
ATOM     22  C   UNL     1      -5.258   1.208  -4.185  0.00  0.00    +0.009 C 
ENDBRANCH   5  21
ENDBRANCH   1   5
BRANCH   3  23
ATOM     23  C   UNL     1      -1.711   3.378  -1.208  0.00  0.00    +0.093 C 
BRANCH  23  24
ATOM     24  C   UNL     1      -1.714   4.040   0.171  0.00  0.00    -0.019 C 
BRANCH  24  25
ATOM     25  C   UNL     1      -0.462   3.656   0.916  0.00  0.00    -0.041 A 
ATOM     26  C   UNL     1      -0.522   2.725   1.936  0.00  0.00    +0.003 A 
ATOM     27  C   UNL     1       0.627   2.368   2.616  0.00  0.00    +0.000 A 
ATOM     28  C   UNL     1       1.838   2.941   2.275  0.00  0.00    +0.001 A 
ATOM     29  C   UNL     1       1.900   3.871   1.254  0.00  0.00    +0.020 A 
ATOM     30  C   UNL     1       0.750   4.229   0.574  0.00  0.00    +0.043 A 
ATOM     31 CL   UNL     1       0.827   5.398  -0.707  0.00  0.00    -0.083 Cl
ENDBRANCH  24  25
BRANCH  24  36
ATOM     32  C   UNL     1      -3.011   2.111   0.895  0.00  0.00    -0.078 C 
ATOM     33  C   UNL     1      -3.918   1.802   2.113  0.00  0.00    -0.020 C 
ATOM     34  C   UNL     1      -3.447   2.832   3.165  0.00  0.00    -0.020 C 
ATOM     35  C   UNL     1      -2.774   3.956   2.356  0.00  0.00    -0.078 C 
ATOM     36  N   UNL     1      -2.904   3.577   0.948  0.00  0.00    +0.385 N 
ATOM     37  H   UNL     1      -3.750   4.002   0.551  0.00  0.00    -0.081 HD
ENDBRANCH  24  36
ENDBRANCH  23  24
ENDBRANCH   3  23
TORSDOF 10
