REMARK  Name = ZINC39217804
REMARK  7 active torsions:
REMARK  status: ('A' for Active; 'I' for Inactive)
REMARK    1  A    between atoms: C_1  and  C_2
REMARK    2  A    between atoms: C_4  and  C_16
REMARK    3  A    between atoms: C_6  and  C_14
REMARK    4  A    between atoms: C_7  and  N_13
REMARK    5  A    between atoms: C_18  and  C_21
REMARK    6  A    between atoms: C_21  and  S_22
REMARK    7  A    between atoms: S_22  and  C_23
REMARK                            x       y       z     vdW  Elec       q    Type
REMARK                         _______ _______ _______ _____ _____    ______ ____
ROOT
ATOM      1  C   UNL     1      -0.018   1.503   0.010  0.00  0.00    +0.067 C 
ATOM      2  C   UNL     1       0.002  -0.004   0.002  0.00  0.00    +0.066 C 
ATOM      3  C   UNL     1      -1.064  -0.768   0.003  0.00  0.00    +0.030 C 
ATOM      4  C   UNL     1      -2.537  -0.492  -0.122  0.00  0.00    +0.104 C 
ATOM      5  C   UNL     1      -3.075  -1.565  -1.050  0.00  0.00    +0.098 C 
ATOM      6  C   UNL     1      -2.317  -2.612  -1.438  0.00  0.00    +0.195 C 
ATOM      7  O   UNL     1      -1.033  -2.841  -1.107  0.00  0.00    -0.448 OA
ATOM      8  C   UNL     1      -0.528  -2.199   0.066  0.00  0.00    +0.343 C 
ATOM      9  N   UNL     1       0.921  -1.985   0.002  0.00  0.00    -0.138 NA
ATOM     10  N   UNL     1       1.127  -0.765  -0.013  0.00  0.00    -0.155 NA
ENDROOT
BRANCH   4  11
ATOM     11  C   UNL     1      -3.201  -0.585   1.227  0.00  0.00    +0.003 A 
ATOM     12  C   UNL     1      -3.891   0.364   1.906  0.00  0.00    +0.016 A 
ATOM     13  C   UNL     1      -4.420   0.051   3.144  0.00  0.00    -0.030 A 
ATOM     14  C   UNL     1      -4.233  -1.195   3.643  0.00  0.00    +0.050 A 
ATOM     15  S   UNL     1      -3.290  -1.975   2.343  0.00  0.00    -0.100 S 
BRANCH  13  16
ATOM     16  C   UNL     1      -5.193   1.080   3.928  0.00  0.00    +0.112 C 
BRANCH  16  17
ATOM     17  S   UNL     1      -6.951   0.977   3.494  0.00  0.00    -0.092 S 
BRANCH  17  18
ATOM     18  C   UNL     1      -7.708   2.225   4.480  0.00  0.00    +0.160 A 
ATOM     19  N   UNL     1      -7.156   3.062   5.338  0.00  0.00    -0.133 NA
ATOM     20  N   UNL     1      -7.942   3.970   6.010  0.00  0.00    -0.125 NA
ATOM     21  C   UNL     1      -9.242   3.999   5.794  0.00  0.00    +0.180 A 
ATOM     22  S   UNL     1      -9.427   2.702   4.580  0.00  0.00    -0.025 S 
ATOM     23  N   UNL     1     -10.210   4.822   6.357  0.00  0.00    -0.336 N 
ATOM     24  H   UNL     1      -9.956   5.494   7.009  0.00  0.00    +0.144 HD
ATOM     25  H   UNL     1     -11.140   4.726   6.097  0.00  0.00    +0.144 HD
ENDBRANCH  17  18
ENDBRANCH  16  17
ENDBRANCH  13  16
ENDBRANCH   4  11
BRANCH   6  26
ATOM     26  N   UNL     1      -2.917  -3.538  -2.254  0.00  0.00    -0.329 N 
ATOM     27  H   UNL     1      -3.842  -3.421  -2.523  0.00  0.00    +0.145 HD
ATOM     28  H   UNL     1      -2.417  -4.310  -2.562  0.00  0.00    +0.145 HD
ENDBRANCH   6  26
BRANCH   5  29
ATOM     29  C   UNL     1      -4.422  -1.466  -1.525  0.00  0.00    +0.101 C 
ATOM     30  N   UNL     1      -5.491  -1.387  -1.903  0.00  0.00    -0.191 NA
ENDBRANCH   5  29
TORSDOF 6
