REMARK  Name = ZINC39670912
REMARK  5 active torsions:
REMARK  status: ('A' for Active; 'I' for Inactive)
REMARK    1  A    between atoms: C_3  and  C_6
REMARK    2  A    between atoms: C_6  and  C_7
REMARK    3  A    between atoms: C_7  and  N_8
REMARK    4  A    between atoms: C_9  and  C_11
REMARK    5  A    between atoms: C_22  and  C_24
REMARK                            x       y       z     vdW  Elec       q    Type
REMARK                         _______ _______ _______ _____ _____    ______ ____
ROOT
ATOM      1  C   UNL     1       7.419  -0.070   2.678  0.00  0.00    +0.100 C 
ATOM      2  C   UNL     1       8.177  -1.214   1.967  0.00  0.00    +0.121 C 
ATOM      3  N   UNL     1       9.386  -1.434   2.796  0.00  0.00    -0.296 N 
ATOM      4  C   UNL     1       8.906  -1.291   4.192  0.00  0.00    +0.115 C 
ATOM      5  C   UNL     1       7.899  -0.125   4.138  0.00  0.00    -0.004 C 
ATOM      6  C   UNL     1       6.724  -0.399   5.071  0.00  0.00    -0.010 C 
ATOM      7  C   UNL     1       7.217  -0.391   6.521  0.00  0.00    -0.082 C 
ATOM      8  N   UNL     1       7.818   0.913   6.828  0.00  0.00    +0.379 N 
ATOM      9  C   UNL     1       9.003   1.127   5.989  0.00  0.00    -0.082 C 
ATOM     10  C   UNL     1       8.586   1.183   4.517  0.00  0.00    -0.010 C 
ATOM     11  C   UNL     1      10.638  -1.702   2.376  0.00  0.00    +0.247 C 
ATOM     12  O   UNL     1      10.903  -1.660   1.191  0.00  0.00    -0.270 OA
ATOM     13  H   UNL     1       7.144   1.643   6.649  0.00  0.00    -0.086 HD
ATOM     14  H   UNL     1       8.086   0.937   7.800  0.00  0.00    -0.086 HD
ENDROOT
BRANCH  11  15
ATOM     15  C   UNL     1      11.689  -2.046   3.358  0.00  0.00    +0.042 A 
ATOM     16  C   UNL     1      11.338  -2.515   4.625  0.00  0.00    +0.051 A 
ATOM     17  C   UNL     1      12.324  -2.835   5.538  0.00  0.00    +0.127 A 
ATOM     18  C   UNL     1      13.660  -2.692   5.198  0.00  0.00    +0.076 A 
ATOM     19  C   UNL     1      14.014  -2.227   3.942  0.00  0.00    +0.127 A 
ATOM     20  C   UNL     1      13.036  -1.909   3.019  0.00  0.00    +0.051 A 
ATOM     21  F   UNL     1      15.318  -2.090   3.617  0.00  0.00    -0.205 F 
ATOM     22  F   UNL     1      11.986  -3.288   6.765  0.00  0.00    -0.205 F 
ENDBRANCH  11  15
BRANCH   1  24
ATOM     23  N   UNL     1       5.086   0.747   2.585  0.00  0.00    -0.315 N 
ATOM     24  C   UNL     1       5.932  -0.303   2.606  0.00  0.00    +0.218 C 
ATOM     25  O   UNL     1       5.496  -1.434   2.567  0.00  0.00    -0.275 OA
ATOM     26  H   UNL     1       5.435   1.651   2.617  0.00  0.00    +0.149 HD
BRANCH  23  27
ATOM     27  C   UNL     1       3.640   0.521   2.515  0.00  0.00    +0.112 C 
BRANCH  27  28
ATOM     28  C   UNL     1       2.914   1.867   2.505  0.00  0.00    +0.093 C 
BRANCH  28  31
ATOM     29  C   UNL     1      -0.699   1.297   2.963  0.00  0.00    +0.041 A 
ATOM     30  C   UNL     1       0.600   1.495   3.486  0.00  0.00    +0.044 A 
ATOM     31  C   UNL     1       1.426   1.635   2.433  0.00  0.00    +0.106 A 
ATOM     32  O   UNL     1       0.701   1.533   1.308  0.00  0.00    -0.468 OA
ATOM     33  C   UNL     1      -0.588   1.328   1.623  0.00  0.00    +0.195 A 
ENDBRANCH  28  31
ENDBRANCH  27  28
ENDBRANCH  23  27
ENDBRANCH   1  24
TORSDOF 5
