REMARK  Name = ZINC16503454
REMARK  13 active torsions:
REMARK  status: ('A' for Active; 'I' for Inactive)
REMARK    1  A    between atoms: C_1  and  C_2
REMARK    2  A    between atoms: C_2  and  C_3
REMARK    3  A    between atoms: C_3  and  C_5
REMARK    4  A    between atoms: C_3  and  N_6
REMARK    5  A    between atoms: N_6  and  C_7
REMARK    6  A    between atoms: C_7  and  C_8
REMARK    7  A    between atoms: C_18  and  C_20
REMARK    8  A    between atoms: C_23  and  C_26
REMARK    9  A    between atoms: C_26  and  C_27
REMARK   10  A    between atoms: C_26  and  C_28
REMARK   11  A    between atoms: C_26  and  C_29
REMARK   12  A    between atoms: C_30  and  C_32
REMARK   13  A    between atoms: C_35  and  N_38
REMARK                            x       y       z     vdW  Elec       q    Type
REMARK                         _______ _______ _______ _____ _____    ______ ____
ROOT
ATOM      1  C   UNL     1       0.204   1.342  -0.880  0.00  0.00    +0.234 C 
ATOM      2  O   UNL     1       1.153   2.052  -1.142  0.00  0.00    -0.274 OA
ATOM      3  N   UNL     1       0.283   0.012  -1.079  0.00  0.00    -0.289 N 
ATOM      4  C   UNL     1      -0.859  -0.859  -0.760  0.00  0.00    +0.114 C 
ATOM      5  C   UNL     1      -1.366  -1.482  -2.075  0.00  0.00    +0.062 C 
ATOM      6  C   UNL     1      -0.188  -1.919  -2.883  0.00  0.00    -0.003 A 
ATOM      7  C   UNL     1       1.114  -1.555  -2.728  0.00  0.00    -0.012 A 
ATOM      8  C   UNL     1       2.029  -2.104  -3.626  0.00  0.00    +0.013 A 
ATOM      9  C   UNL     1       1.605  -2.955  -4.588  0.00  0.00    +0.046 A 
ATOM     10  S   UNL     1      -0.152  -3.025  -4.269  0.00  0.00    -0.101 S 
ATOM     11  C   UNL     1       1.512  -0.591  -1.612  0.00  0.00    +0.137 C 
ENDROOT
BRANCH  11  12
ATOM     12  C   UNL     1       2.228  -1.343  -0.519  0.00  0.00    -0.023 A 
ATOM     13  C   UNL     1       1.633  -2.445   0.065  0.00  0.00    +0.006 A 
ATOM     14  C   UNL     1       2.291  -3.138   1.063  0.00  0.00    +0.004 A 
ATOM     15  C   UNL     1       3.539  -2.722   1.486  0.00  0.00    -0.042 A 
ATOM     16  C   UNL     1       4.132  -1.615   0.906  0.00  0.00    +0.004 A 
ATOM     17  C   UNL     1       3.476  -0.926  -0.097  0.00  0.00    +0.006 A 
BRANCH  15  18
ATOM     18  C   UNL     1       4.255  -3.474   2.578  0.00  0.00    -0.013 C 
ATOM     19  C   UNL     1       4.517  -2.534   3.757  0.00  0.00    +0.015 C 
ATOM     20  C   UNL     1       3.388  -4.646   3.043  0.00  0.00    +0.015 C 
ATOM     21  C   UNL     1       5.587  -4.005   2.044  0.00  0.00    +0.015 C 
ENDBRANCH  15  18
ENDBRANCH  11  12
BRANCH   1  22
ATOM     22  C   UNL     1      -1.064   1.950  -0.339  0.00  0.00    +0.204 C 
BRANCH  22  23
ATOM     23  N   UNL     1      -0.851   3.377  -0.082  0.00  0.00    -0.286 N 
ATOM     24  C   UNL     1      -0.975   4.268  -1.086  0.00  0.00    +0.247 C 
ATOM     25  O   UNL     1      -1.164   3.880  -2.223  0.00  0.00    -0.270 OA
BRANCH  24  26
ATOM     26  C   UNL     1      -0.880   5.716  -0.805  0.00  0.00    +0.037 A 
ATOM     27  C   UNL     1      -1.419   6.238   0.373  0.00  0.00    +0.015 A 
ATOM     28  C   UNL     1      -1.322   7.589   0.632  0.00  0.00    +0.033 A 
ATOM     29  C   UNL     1      -0.704   8.429  -0.278  0.00  0.00    +0.126 A 
ATOM     30  C   UNL     1      -0.173   7.919  -1.449  0.00  0.00    +0.033 A 
ATOM     31  C   UNL     1      -0.258   6.568  -1.718  0.00  0.00    +0.015 A 
BRANCH  29  32
ATOM     32  N   UNL     1      -0.610   9.879   0.004  0.00  0.00    +0.056 N 
ATOM     33  O   UNL     1      -0.066  10.620  -0.795  0.00  0.00    -0.126 OA
ATOM     34  O   UNL     1      -1.076  10.331   1.034  0.00  0.00    -0.126 OA
ENDBRANCH  29  32
ENDBRANCH  24  26
BRANCH  23  35
ATOM     35  C   UNL     1      -0.504   3.835   1.265  0.00  0.00    +0.074 C 
ATOM     36  C   UNL     1      -1.534   3.304   2.265  0.00  0.00    +0.028 C 
BRANCH  35  38
ATOM     37  C   UNL     1       1.935   3.976   0.744  0.00  0.00    +0.005 C 
ATOM     38  C   UNL     1       0.885   3.314   1.639  0.00  0.00    +0.019 C 
ENDBRANCH  35  38
ENDBRANCH  23  35
ENDBRANCH  22  23
ENDBRANCH   1  22
TORSDOF 8
