REMARK  Name = ZINC00635310
REMARK  6 active torsions:
REMARK  status: ('A' for Active; 'I' for Inactive)
REMARK    1  A    between atoms: C_1  and  C_2
REMARK    2  A    between atoms: C_2  and  O_3
REMARK    3  A    between atoms: O_3  and  C_4
REMARK    4  A    between atoms: C_7  and  C_10
REMARK    5  A    between atoms: C_18  and  C_19
REMARK    6  A    between atoms: C_22  and  C_25
REMARK                            x       y       z     vdW  Elec       q    Type
REMARK                         _______ _______ _______ _____ _____    ______ ____
ROOT
ATOM      1  C   UNL     1      -0.033   0.279   1.345  0.00  0.00    +0.183 A 
ATOM      2  N   UNL     1       1.228  -0.178   1.334  0.00  0.00    -0.200 NA
ATOM      3  C   UNL     1       2.034   0.793   1.008  0.00  0.00    +0.200 A 
ATOM      4  N   UNL     1       1.317   1.935   0.792  0.00  0.00    -0.169 N 
ATOM      5  N   UNL     1      -0.033   1.550   1.024  0.00  0.00    -0.141 NA
ATOM      6  C   UNL     1       1.968   3.054   0.445  0.00  0.00    +0.288 A 
ATOM      7  O   UNL     1       1.369   4.093   0.242  0.00  0.00    -0.265 OA
ATOM      8  C   UNL     1       3.432   2.980   0.317  0.00  0.00    +0.082 A 
ATOM      9  C   UNL     1       4.319   3.952  -0.017  0.00  0.00    +0.028 C 
ATOM     10  S   UNL     1       3.724   1.264   0.721  0.00  0.00    -0.044 S 
ENDROOT
BRANCH   9  11
ATOM     11  C   UNL     1       5.763   3.693   0.079  0.00  0.00    -0.024 A 
ATOM     12  C   UNL     1       6.229   2.520   0.684  0.00  0.00    +0.008 A 
ATOM     13  C   UNL     1       7.584   2.282   0.765  0.00  0.00    +0.004 A 
ATOM     14  C   UNL     1       8.484   3.205   0.260  0.00  0.00    -0.050 A 
ATOM     15  C   UNL     1       8.032   4.371  -0.335  0.00  0.00    +0.004 A 
ATOM     16  C   UNL     1       6.679   4.621  -0.429  0.00  0.00    +0.008 A 
ATOM     17  C   UNL     1       9.964   2.940   0.358  0.00  0.00    +0.044 C 
ENDBRANCH   9  11
BRANCH   1  21
ATOM     18  C   UNL     1      -3.484  -2.027   2.273  0.00  0.00    +0.121 A 
ATOM     19  C   UNL     1      -2.228  -2.619   2.297  0.00  0.00    +0.046 A 
ATOM     20  C   UNL     1      -1.108  -1.874   1.996  0.00  0.00    +0.015 A 
ATOM     21  C   UNL     1      -1.237  -0.525   1.668  0.00  0.00    +0.021 A 
ATOM     22  C   UNL     1      -2.498   0.068   1.651  0.00  0.00    +0.015 A 
ATOM     23  C   UNL     1      -3.616  -0.684   1.948  0.00  0.00    +0.046 A 
BRANCH  18  24
ATOM     24  O   UNL     1      -4.587  -2.764   2.570  0.00  0.00    -0.492 OA
BRANCH  24  26
ATOM     25  C   UNL     1      -6.962  -3.076   2.886  0.00  0.00    +0.048 C 
ATOM     26  C   UNL     1      -5.847  -2.092   2.526  0.00  0.00    +0.225 C 
ENDBRANCH  24  26
ENDBRANCH  18  24
ENDBRANCH   1  21
TORSDOF 4
