REMARK  Name = ZINC65294130
REMARK  9 active torsions:
REMARK  status: ('A' for Active; 'I' for Inactive)
REMARK    1  A    between atoms: C_1  and  C_2
REMARK    2  A    between atoms: C_6  and  N_8
REMARK    3  A    between atoms: C_11  and  C_13
REMARK    4  A    between atoms: N_17  and  C_18
REMARK    5  A    between atoms: N_17  and  C_19
REMARK    6  A    between atoms: C_19  and  C_20
REMARK    7  A    between atoms: N_22  and  C_23
REMARK    8  A    between atoms: C_23  and  C_24
REMARK    9  A    between atoms: C_24  and  C_25
REMARK                            x       y       z     vdW  Elec       q    Type
REMARK                         _______ _______ _______ _____ _____    ______ ____
ROOT
ATOM      1  N   UNL     1       0.053  -2.798   2.394  0.00  0.00    -0.213 N 
ATOM      2  C   UNL     1      -0.572  -4.016   2.627  0.00  0.00    +0.173 A 
ATOM      3  C   UNL     1      -0.273  -4.316   3.959  0.00  0.00    +0.082 A 
ATOM      4  C   UNL     1       0.505  -3.302   4.492  0.00  0.00    +0.076 A 
ATOM      5  N   UNL     1       0.704  -2.401   3.564  0.00  0.00    -0.169 NA
ATOM      6  C   UNL     1       1.036  -3.247   5.902  0.00  0.00    +0.069 C 
ATOM      7  S   UNL     1      -1.097  -5.873   4.184  0.00  0.00    -0.049 S 
ATOM      8  C   UNL     1      -1.764  -6.011   2.531  0.00  0.00    +0.164 A 
ATOM      9  N   UNL     1      -1.322  -4.906   1.967  0.00  0.00    -0.205 NA
ATOM     10  N   UNL     1      -2.541  -7.017   1.987  0.00  0.00    -0.304 N 
ATOM     11  C   UNL     1      -2.982  -6.928   0.593  0.00  0.00    +0.131 C 
ENDROOT
BRANCH   1  17
ATOM     12  C   UNL     1      -0.018   1.503   0.010  0.00  0.00    +0.044 C 
ATOM     13  C   UNL     1       0.002  -0.004   0.002  0.00  0.00    -0.048 A 
ATOM     14  C   UNL     1       0.006  -0.688  -1.200  0.00  0.00    +0.003 A 
ATOM     15  C   UNL     1       0.025  -2.071  -1.212  0.00  0.00    +0.002 A 
ATOM     16  C   UNL     1       0.040  -2.773  -0.022  0.00  0.00    +0.028 A 
ATOM     17  C   UNL     1       0.037  -2.089   1.186  0.00  0.00    +0.068 A 
ATOM     18  C   UNL     1       0.023  -0.700   1.194  0.00  0.00    +0.031 A 
ENDBRANCH   1  17
BRANCH  10  19
ATOM     19  C   UNL     1      -2.922  -8.171   2.804  0.00  0.00    +0.202 C 
BRANCH  19  20
ATOM     20  C   UNL     1      -4.228  -7.885   3.500  0.00  0.00    +0.230 C 
ATOM     21  O   UNL     1      -4.785  -6.821   3.330  0.00  0.00    -0.274 OA
ATOM     22  N   UNL     1      -4.777  -8.811   4.311  0.00  0.00    -0.314 N 
ATOM     23  H   UNL     1      -4.331  -9.662   4.447  0.00  0.00    +0.149 HD
BRANCH  22  24
ATOM     24  C   UNL     1      -6.046  -8.532   4.988  0.00  0.00    +0.108 C 
BRANCH  24  25
ATOM     25  C   UNL     1      -6.444  -9.738   5.841  0.00  0.00    +0.049 C 
BRANCH  25  26
ATOM     26  C   UNL     1      -7.750  -9.451   6.537  0.00  0.00    -0.072 C 
ATOM     27  C   UNL     1      -8.840  -9.868   5.978  0.00  0.00    -0.028 C 
ATOM     28  C   UNL     1     -10.212  -9.650   6.545  0.00  0.00    +0.027 C 
ATOM     29  C   UNL     1     -10.117  -9.268   8.024  0.00  0.00    +0.004 C 
ATOM     30  C   UNL     1      -9.089  -8.139   8.168  0.00  0.00    +0.005 C 
ATOM     31  C   UNL     1      -7.704  -8.704   7.838  0.00  0.00    +0.030 C 
ENDBRANCH  25  26
ENDBRANCH  24  25
ENDBRANCH  22  24
ENDBRANCH  19  20
ENDBRANCH  10  19
TORSDOF 6
