REMARK  Name = ZINC13117214
REMARK  16 active torsions:
REMARK  status: ('A' for Active; 'I' for Inactive)
REMARK    1  A    between atoms: C_1  and  C_2
REMARK    2  A    between atoms: C_4  and  N_33
REMARK    3  A    between atoms: C_5  and  O_31
REMARK    4  A    between atoms: C_7  and  N_8
REMARK    5  A    between atoms: C_9  and  C_11
REMARK    6  A    between atoms: C_11  and  N_63
REMARK    7  A    between atoms: C_12  and  C_13
REMARK    8  A    between atoms: C_12  and  N_63
REMARK    9  A    between atoms: C_15  and  C_16
REMARK   10  A    between atoms: C_15  and  N_63
REMARK   11  A    between atoms: N_18  and  C_19
REMARK   12  A    between atoms: C_21  and  O_29
REMARK   13  A    between atoms: C_22  and  N_26
REMARK   14  A    between atoms: C_24  and  C_25
REMARK   15  A    between atoms: O_29  and  C_30
REMARK   16  A    between atoms: O_31  and  C_32
REMARK                            x       y       z     vdW  Elec       q    Type
REMARK                         _______ _______ _______ _____ _____    ______ ____
ROOT
ATOM      1  N   UNL     1       1.126   2.414  -0.012  0.00  0.00    +0.393 N 
ATOM      2  H   UNL     1       1.516   2.076  -0.900  0.00  0.00    -0.080 HD
ENDROOT
BRANCH   1   3
ATOM      3  C   UNL     1      -0.333   2.178  -0.009  0.00  0.00    +0.020 C 
BRANCH   3   5
ATOM      4  N   UNL     1      -2.179   2.293  -1.652  0.00  0.00    -0.287 N 
ATOM      5  C   UNL     1      -0.882   2.526  -1.369  0.00  0.00    +0.201 C 
ATOM      6  O   UNL     1      -0.156   3.015  -2.208  0.00  0.00    -0.278 OA
ATOM      7  H   UNL     1      -2.775   1.966  -0.960  0.00  0.00    +0.155 HD
BRANCH   4  14
ATOM      8  C   UNL     1      -4.208   0.567  -2.648  0.00  0.00    +0.046 C 
ATOM      9  C   UNL     1      -3.656   1.704  -3.469  0.00  0.00    -0.027 A 
ATOM     10  C   UNL     1      -4.140   1.934  -4.743  0.00  0.00    +0.041 A 
ATOM     11  C   UNL     1      -3.632   2.971  -5.501  0.00  0.00    +0.168 A 
ATOM     12  C   UNL     1      -2.637   3.789  -4.983  0.00  0.00    +0.152 A 
ATOM     13  C   UNL     1      -2.153   3.565  -3.704  0.00  0.00    +0.071 A 
ATOM     14  C   UNL     1      -2.665   2.522  -2.944  0.00  0.00    +0.040 A 
BRANCH  11  15
ATOM     15  N   UNL     1      -4.149   3.211  -6.867  0.00  0.00    +0.060 N 
ATOM     16  O   UNL     1      -5.021   2.493  -7.322  0.00  0.00    -0.126 OA
ATOM     17  O   UNL     1      -3.701   4.125  -7.536  0.00  0.00    -0.126 OA
ENDBRANCH  11  15
BRANCH  12  18
ATOM     18  O   UNL     1      -2.139   4.809  -5.729  0.00  0.00    -0.493 OA
ATOM     19  C   UNL     1      -1.117   5.611  -5.133  0.00  0.00    +0.277 C 
ENDBRANCH  12  18
ENDBRANCH   4  14
ENDBRANCH   3   5
ENDBRANCH   1   3
BRANCH   1  20
ATOM     20  C   UNL     1       1.759   1.677   1.102  0.00  0.00    -0.050 C 
BRANCH  20  21
ATOM     21  C   UNL     1       1.861   0.222   0.723  0.00  0.00    -0.053 C 
ATOM     22  C   UNL     1       3.023  -0.381   0.746  0.00  0.00    +0.002 C 
ENDBRANCH  20  21
ENDBRANCH   1  20
BRANCH   1  23
ATOM     23  C   UNL     1       1.404   3.860   0.115  0.00  0.00    +0.020 C 
BRANCH  23  24
ATOM     24  C   UNL     1       2.876   4.093  -0.112  0.00  0.00    +0.201 C 
ATOM     25  O   UNL     1       3.611   3.155  -0.337  0.00  0.00    -0.278 OA
ATOM     26  N   UNL     1       3.375   5.344  -0.065  0.00  0.00    -0.287 N 
ATOM     27  H   UNL     1       2.800   6.087   0.179  0.00  0.00    +0.155 HD
BRANCH  26  28
ATOM     28  C   UNL     1       4.722   5.572  -0.368  0.00  0.00    +0.040 A 
ATOM     29  C   UNL     1       5.656   4.562  -0.185  0.00  0.00    +0.071 A 
ATOM     30  C   UNL     1       6.989   4.791  -0.486  0.00  0.00    +0.152 A 
ATOM     31  C   UNL     1       7.387   6.030  -0.970  0.00  0.00    +0.168 A 
ATOM     32  C   UNL     1       6.456   7.034  -1.151  0.00  0.00    +0.041 A 
ATOM     33  C   UNL     1       5.125   6.808  -0.858  0.00  0.00    -0.027 A 
ATOM     34  C   UNL     1       4.111   7.903  -1.064  0.00  0.00    +0.046 C 
BRANCH  31  35
ATOM     35  N   UNL     1       8.811   6.275  -1.292  0.00  0.00    +0.060 N 
ATOM     36  O   UNL     1       9.161   7.361  -1.716  0.00  0.00    -0.126 OA
ATOM     37  O   UNL     1       9.632   5.390  -1.132  0.00  0.00    -0.126 OA
ENDBRANCH  31  35
BRANCH  30  38
ATOM     38  O   UNL     1       7.906   3.804  -0.307  0.00  0.00    -0.493 OA
ATOM     39  C   UNL     1       7.426   2.556   0.195  0.00  0.00    +0.277 C 
ENDBRANCH  30  38
ENDBRANCH  26  28
ENDBRANCH  23  24
ENDBRANCH   1  23
TORSDOF 12
