REMARK  Name = ZINC03846597
REMARK  5 active torsions:
REMARK  status: ('A' for Active; 'I' for Inactive)
REMARK    1  A    between atoms: C_1  and  N_2
REMARK    2  A    between atoms: C_9  and  O_10
REMARK    3  A    between atoms: C_11  and  C_12
REMARK    4  A    between atoms: C_14  and  C_21
REMARK    5  A    between atoms: C_22  and  C_23
REMARK                            x       y       z     vdW  Elec       q    Type
REMARK                         _______ _______ _______ _____ _____    ______ ____
ROOT
ATOM      1  C   UNL     1       2.603  -2.984  -0.182  0.00  0.00    +0.049 C 
ATOM      2  C   UNL     1       3.614  -2.110  -0.203  0.00  0.00    +0.021 C 
ATOM      3  C   UNL     1       5.023  -2.614  -0.109  0.00  0.00    +0.120 C 
ATOM      4  N   UNL     1       5.343  -3.486  -1.221  0.00  0.00    -0.229 NA
ATOM      5  N   UNL     1       4.870  -4.731  -1.165  0.00  0.00    -0.234 N 
ATOM      6  C   UNL     1       3.697  -5.096  -0.656  0.00  0.00    +0.318 C 
ATOM      7  O   UNL     1       3.450  -6.285  -0.710  0.00  0.00    -0.251 OA
ATOM      8  N   UNL     1       2.765  -4.347  -0.096  0.00  0.00    -0.268 N 
ATOM      9  H   UNL     1       5.112  -3.051  -2.101  0.00  0.00    +0.145 HD
ATOM     10  H   UNL     1       5.431  -5.434  -1.528  0.00  0.00    +0.171 HD
ATOM     11  H   UNL     1       2.109  -4.817   0.443  0.00  0.00    +0.156 HD
ENDROOT
BRANCH   1  21
ATOM     12  C   UNL     1      -1.837  -2.511   1.905  0.00  0.00    +0.152 C 
ATOM     13  N   UNL     1      -0.941  -2.227   0.781  0.00  0.00    -0.310 N 
ATOM     14  C   UNL     1      -1.409  -1.484  -0.283  0.00  0.00    +0.055 A 
ATOM     15  C   UNL     1      -2.715  -1.006  -0.297  0.00  0.00    +0.026 A 
ATOM     16  C   UNL     1      -3.162  -0.266  -1.371  0.00  0.00    +0.002 A 
ATOM     17  C   UNL     1      -2.322   0.009  -2.441  0.00  0.00    +0.001 A 
ATOM     18  C   UNL     1      -1.035  -0.450  -2.449  0.00  0.00    +0.013 A 
ATOM     19  C   UNL     1      -0.560  -1.203  -1.370  0.00  0.00    +0.041 A 
ATOM     20  C   UNL     1       0.816  -1.710  -1.349  0.00  0.00    +0.140 A 
ATOM     21  C   UNL     1       1.226  -2.452  -0.248  0.00  0.00    +0.102 A 
ATOM     22  C   UNL     1       0.320  -2.692   0.813  0.00  0.00    +0.264 A 
ATOM     23  O   UNL     1       0.690  -3.340   1.777  0.00  0.00    -0.267 OA
BRANCH  20  24
ATOM     24  O   UNL     1       1.663  -1.462  -2.373  0.00  0.00    -0.505 OA
ATOM     25  H   UNL     1       1.275  -0.936  -3.086  0.00  0.00    +0.292 HD
ENDBRANCH  20  24
ENDBRANCH   1  21
BRANCH   3  26
ATOM     26  C   UNL     1       5.189  -3.377   1.180  0.00  0.00    -0.002 C 
ATOM     27  C   UNL     1       6.108  -3.001   2.058  0.00  0.00    +0.005 C 
BRANCH  27  28
ATOM     28  C   UNL     1       6.348  -3.814   3.269  0.00  0.00    -0.025 A 
ATOM     29  C   UNL     1       5.613  -4.980   3.488  0.00  0.00    +0.008 A 
ATOM     30  C   UNL     1       5.842  -5.734   4.621  0.00  0.00    +0.001 A 
ATOM     31  C   UNL     1       6.797  -5.336   5.539  0.00  0.00    +0.000 A 
ATOM     32  C   UNL     1       7.529  -4.181   5.328  0.00  0.00    +0.001 A 
ATOM     33  C   UNL     1       7.315  -3.421   4.196  0.00  0.00    +0.008 A 
ENDBRANCH  27  28
ENDBRANCH   3  26
TORSDOF 4
