REMARK  Name = ZINC36534326
REMARK  15 active torsions:
REMARK  status: ('A' for Active; 'I' for Inactive)
REMARK    1  A    between atoms: C_1  and  C_2
REMARK    2  A    between atoms: C_2  and  C_3
REMARK    3  A    between atoms: C_2  and  C_4
REMARK    4  A    between atoms: C_2  and  C_5
REMARK    5  A    between atoms: C_5  and  C_6
REMARK    6  A    between atoms: C_6  and  C_7
REMARK    7  A    between atoms: C_6  and  C_8
REMARK    8  A    between atoms: C_6  and  N_9
REMARK    9  A    between atoms: C_10  and  C_12
REMARK   10  A    between atoms: C_12  and  C_14
REMARK   11  A    between atoms: C_12  and  N_24
REMARK   12  A    between atoms: C_17  and  C_20
REMARK   13  A    between atoms: N_24  and  C_25
REMARK   14  A    between atoms: C_26  and  C_28
REMARK   15  A    between atoms: C_28  and  C_29
REMARK                            x       y       z     vdW  Elec       q    Type
REMARK                         _______ _______ _______ _____ _____    ______ ____
ROOT
ATOM      1  C   UNL     1       5.370  -0.496  -4.286  0.00  0.00    +0.192 C 
ENDROOT
BRANCH   1   2
ATOM      2  C   UNL     1       5.336  -1.965  -4.621  0.00  0.00    -0.018 A 
ATOM      3  C   UNL     1       4.873  -2.382  -5.854  0.00  0.00    +0.006 A 
ATOM      4  C   UNL     1       4.841  -3.730  -6.161  0.00  0.00    +0.013 A 
ATOM      5  C   UNL     1       5.273  -4.660  -5.234  0.00  0.00    +0.055 A 
ATOM      6  C   UNL     1       5.737  -4.242  -4.000  0.00  0.00    +0.013 A 
ATOM      7  C   UNL     1       5.773  -2.894  -3.696  0.00  0.00    +0.006 A 
BRANCH   5   8
ATOM      8  C   UNL     1       5.237  -6.129  -5.568  0.00  0.00    +0.417 C 
ATOM      9  F   UNL     1       6.449  -6.502  -6.159  0.00  0.00    -0.166 F 
ATOM     10  F   UNL     1       5.043  -6.869  -4.396  0.00  0.00    -0.166 F 
ATOM     11  F   UNL     1       4.188  -6.380  -6.458  0.00  0.00    -0.166 F 
ENDBRANCH   5   8
ENDBRANCH   1   2
BRANCH   1  13
ATOM     12  N   UNL     1       3.286  -0.568  -2.957  0.00  0.00    -0.308 N 
ATOM     13  C   UNL     1       4.594  -0.251  -3.018  0.00  0.00    +0.238 C 
ATOM     14  O   UNL     1       5.147   0.232  -2.053  0.00  0.00    -0.273 OA
ATOM     15  H   UNL     1       2.843  -0.954  -3.729  0.00  0.00    +0.149 HD
BRANCH  12  16
ATOM     16  C   UNL     1       2.531  -0.330  -1.724  0.00  0.00    +0.030 C 
ATOM     17  C   UNL     1       2.697   1.130  -1.298  0.00  0.00    +0.031 C 
ATOM     18  C   UNL     1       3.058  -1.246  -0.618  0.00  0.00    +0.031 C 
BRANCH  16  19
ATOM     19  C   UNL     1       1.050  -0.625  -1.968  0.00  0.00    +0.031 C 
BRANCH  19  21
ATOM     20  C   UNL     1       1.035  -0.968  -4.442  0.00  0.00    +0.010 C 
ATOM     21  C   UNL     1       0.624  -0.025  -3.309  0.00  0.00    -0.036 C 
ATOM     22  C   UNL     1       1.306   1.331  -3.501  0.00  0.00    +0.010 C 
ATOM     23  C   UNL     1      -0.895   0.161  -3.326  0.00  0.00    +0.010 C 
ENDBRANCH  19  21
ENDBRANCH  16  19
ENDBRANCH  12  16
ENDBRANCH   1  13
BRANCH   1  24
ATOM     24  N   UNL     1       6.759  -0.070  -4.099  0.00  0.00    -0.289 N 
ATOM     25  C   UNL     1       7.599  -0.732  -3.097  0.00  0.00    +0.133 C 
ATOM     26  C   UNL     1       7.265   0.930  -4.847  0.00  0.00    +0.221 C 
ATOM     27  O   UNL     1       6.569   1.478  -5.676  0.00  0.00    -0.275 OA
BRANCH  26  28
ATOM     28  C   UNL     1       8.694   1.368  -4.654  0.00  0.00    +0.131 C 
BRANCH  28  29
ATOM     29  C   UNL     1       9.007   2.493  -5.606  0.00  0.00    -0.035 A 
ATOM     30  C   UNL     1       9.500   2.213  -6.867  0.00  0.00    +0.008 A 
ATOM     31  C   UNL     1       9.789   3.242  -7.744  0.00  0.00    +0.050 A 
ATOM     32  C   UNL     1       9.585   4.558  -7.361  0.00  0.00    +0.166 A 
ATOM     33  C   UNL     1       9.088   4.840  -6.091  0.00  0.00    +0.166 A 
ATOM     34  C   UNL     1       8.796   3.804  -5.219  0.00  0.00    +0.053 A 
ATOM     35  O   UNL     1       8.978   6.194  -5.957  0.00  0.00    -0.453 OA
ATOM     36  C   UNL     1       9.794   6.752  -7.003  0.00  0.00    +0.466 C 
ATOM     37  O   UNL     1       9.786   5.734  -8.022  0.00  0.00    -0.453 OA
ENDBRANCH  28  29
ENDBRANCH  26  28
ENDBRANCH   1  24
TORSDOF 9
