REMARK  Name = ZINC45990870
REMARK  11 active torsions:
REMARK  status: ('A' for Active; 'I' for Inactive)
REMARK    1  A    between atoms: C_1  and  C_2
REMARK    2  A    between atoms: C_5  and  N_8
REMARK    3  A    between atoms: C_11  and  C_29
REMARK    4  A    between atoms: C_13  and  O_15
REMARK    5  A    between atoms: O_15  and  C_16
REMARK    6  A    between atoms: C_16  and  C_17
REMARK    7  A    between atoms: N_19  and  C_20
REMARK    8  A    between atoms: C_23  and  C_26
REMARK    9  A    between atoms: C_26  and  C_27
REMARK   10  A    between atoms: C_26  and  C_28
REMARK   11  A    between atoms: C_30  and  C_32
REMARK                            x       y       z     vdW  Elec       q    Type
REMARK                         _______ _______ _______ _____ _____    ______ ____
ROOT
ATOM      1  N   UNL     1       0.087  -4.170  -0.042  0.00  0.00    -0.214 N 
ATOM      2  C   UNL     1       0.730  -4.961   0.875  0.00  0.00    +0.167 A 
ATOM      3  C   UNL     1       0.484  -6.295   0.496  0.00  0.00    +0.045 A 
ATOM      4  C   UNL     1       1.025  -7.337   1.260  0.00  0.00    -0.033 A 
ATOM      5  C   UNL     1       1.779  -7.013   2.355  0.00  0.00    +0.071 A 
ATOM      6  C   UNL     1       1.986  -5.672   2.677  0.00  0.00    +0.217 A 
ATOM      7  N   UNL     1       1.469  -4.702   1.947  0.00  0.00    -0.193 NA
ATOM      8  C   UNL     1       0.783  -8.777   0.887  0.00  0.00    +0.045 C 
ATOM      9  C   UNL     1      -0.346  -6.239  -0.703  0.00  0.00    +0.070 A 
ATOM     10  N   UNL     1      -0.558  -4.983  -0.979  0.00  0.00    -0.169 NA
ATOM     11  C   UNL     1      -0.868  -7.420  -1.479  0.00  0.00    +0.068 C 
ENDROOT
BRANCH   1  16
ATOM     12  C   UNL     1       0.032   1.504  -0.024  0.00  0.00    +0.044 C 
ATOM     13  C   UNL     1       0.047  -0.003  -0.029  0.00  0.00    -0.050 A 
ATOM     14  C   UNL     1       0.055  -0.689  -1.229  0.00  0.00    +0.005 A 
ATOM     15  C   UNL     1       0.069  -2.070  -1.237  0.00  0.00    +0.028 A 
ATOM     16  C   UNL     1       0.074  -2.769  -0.037  0.00  0.00    +0.068 A 
ATOM     17  C   UNL     1       0.066  -2.077   1.167  0.00  0.00    +0.028 A 
ATOM     18  C   UNL     1       0.058  -0.696   1.168  0.00  0.00    +0.005 A 
ENDBRANCH   1  16
BRANCH   6  19
ATOM     19  O   UNL     1       2.733  -5.359   3.764  0.00  0.00    -0.467 OA
BRANCH  19  20
ATOM     20  C   UNL     1       2.914  -3.970   4.048  0.00  0.00    +0.326 C 
BRANCH  20  21
ATOM     21  C   UNL     1       3.765  -3.816   5.282  0.00  0.00    +0.255 C 
ATOM     22  O   UNL     1       4.177  -4.799   5.861  0.00  0.00    -0.272 OA
ATOM     23  N   UNL     1       4.069  -2.587   5.743  0.00  0.00    -0.283 N 
ATOM     24  H   UNL     1       3.797  -1.801   5.243  0.00  0.00    +0.155 HD
BRANCH  23  25
ATOM     25  C   UNL     1       4.777  -2.443   6.941  0.00  0.00    +0.034 A 
ATOM     26  C   UNL     1       4.499  -1.381   7.791  0.00  0.00    +0.023 A 
ATOM     27  C   UNL     1       5.200  -1.242   8.973  0.00  0.00    +0.006 A 
ATOM     28  C   UNL     1       6.178  -2.160   9.311  0.00  0.00    -0.045 A 
ATOM     29  C   UNL     1       6.457  -3.219   8.466  0.00  0.00    +0.006 A 
ATOM     30  C   UNL     1       5.756  -3.366   7.285  0.00  0.00    +0.023 A 
BRANCH  28  31
ATOM     31  C   UNL     1       6.940  -2.006  10.601  0.00  0.00    +0.013 C 
ATOM     32  C   UNL     1       6.722  -3.243  11.474  0.00  0.00    +0.012 C 
ATOM     33  C   UNL     1       8.432  -1.853  10.297  0.00  0.00    +0.012 C 
ENDBRANCH  28  31
ENDBRANCH  23  25
ENDBRANCH  20  21
ENDBRANCH  19  20
ENDBRANCH   6  19
TORSDOF 6
