REMARK  Name = ZINC36256990
REMARK  13 active torsions:
REMARK  status: ('A' for Active; 'I' for Inactive)
REMARK    1  A    between atoms: C_1  and  C_2
REMARK    2  A    between atoms: N_8  and  C_9
REMARK    3  A    between atoms: C_9  and  C_10
REMARK    4  A    between atoms: C_10  and  C_11
REMARK    5  A    between atoms: C_11  and  N_12
REMARK    6  A    between atoms: C_13  and  C_15
REMARK    7  A    between atoms: C_15  and  C_17
REMARK    8  A    between atoms: C_15  and  N_22
REMARK    9  A    between atoms: C_28  and  C_30
REMARK   10  A    between atoms: C_32  and  O_38
REMARK   11  A    between atoms: C_34  and  O_36
REMARK   12  A    between atoms: O_36  and  C_37
REMARK   13  A    between atoms: O_38  and  C_39
REMARK                            x       y       z     vdW  Elec       q    Type
REMARK                         _______ _______ _______ _____ _____    ______ ____
ROOT
ATOM      1  C   UNL     1       1.035  -1.111   7.859  0.00  0.00    +0.146 C 
ENDROOT
BRANCH   1   2
ATOM      2  N   UNL     1       0.514  -0.514   9.096  0.00  0.00    -0.288 NA
ATOM      3  C   UNL     1       1.316  -0.923  10.257  0.00  0.00    +0.104 C 
ATOM      4  C   UNL     1       0.857  -0.142  11.492  0.00  0.00    +0.123 C 
ATOM      5  N   UNL     1      -0.595  -0.322  11.645  0.00  0.00    -0.295 N 
ATOM      6  C   UNL     1      -1.455  -0.063  10.480  0.00  0.00    +0.123 C 
ATOM      7  C   UNL     1      -0.904  -0.848   9.285  0.00  0.00    +0.104 C 
ATOM      8  C   UNL     1      -1.123  -0.714  12.822  0.00  0.00    +0.247 C 
ATOM      9  O   UNL     1      -2.330  -0.783  12.953  0.00  0.00    -0.270 OA
BRANCH   8  10
ATOM     10  C   UNL     1      -0.235  -1.059  13.952  0.00  0.00    +0.044 A 
ATOM     11  C   UNL     1       0.846  -0.236  14.270  0.00  0.00    +0.059 A 
ATOM     12  C   UNL     1       1.675  -0.563  15.330  0.00  0.00    +0.124 A 
ATOM     13  C   UNL     1       1.432  -1.708  16.076  0.00  0.00    +0.091 A 
ATOM     14  C   UNL     1       0.358  -2.529  15.764  0.00  0.00    +0.124 A 
ATOM     15  C   UNL     1      -0.479  -2.206  14.709  0.00  0.00    +0.059 A 
BRANCH  14  16
ATOM     16  O   UNL     1       0.124  -3.648  16.498  0.00  0.00    -0.495 OA
ATOM     17  C   UNL     1       1.024  -3.918  17.575  0.00  0.00    +0.277 C 
ENDBRANCH  14  16
BRANCH  12  18
ATOM     18  O   UNL     1       2.728   0.238  15.640  0.00  0.00    -0.495 OA
ATOM     19  C   UNL     1       3.542  -0.159  16.745  0.00  0.00    +0.277 C 
ENDBRANCH  12  18
ENDBRANCH   8  10
ENDBRANCH   1   2
BRANCH   1  20
ATOM     20  C   UNL     1       2.511  -0.743   7.697  0.00  0.00    +0.015 C 
ATOM     21  C   UNL     1       2.664   0.787   7.581  0.00  0.00    +0.005 C 
ATOM     22  C   UNL     1       3.805   0.978   6.551  0.00  0.00    +0.000 C 
ATOM     23  C   UNL     1       3.533  -0.152   5.527  0.00  0.00    +0.000 C 
ATOM     24  C   UNL     1       3.063  -1.340   6.391  0.00  0.00    +0.005 C 
ENDBRANCH   1  20
BRANCH   1  26
ATOM     25  N   UNL     1       0.108  -1.347   5.578  0.00  0.00    -0.314 N 
ATOM     26  C   UNL     1       0.254  -0.587   6.681  0.00  0.00    +0.231 C 
ATOM     27  O   UNL     1      -0.242   0.518   6.726  0.00  0.00    -0.274 OA
ATOM     28  H   UNL     1       0.564  -2.201   5.513  0.00  0.00    +0.149 HD
BRANCH  25  29
ATOM     29  C   UNL     1      -0.739  -0.884   4.476  0.00  0.00    +0.102 C 
BRANCH  29  30
ATOM     30  C   UNL     1      -0.733  -1.926   3.355  0.00  0.00    +0.000 C 
BRANCH  30  31
ATOM     31  C   UNL     1      -1.618  -1.442   2.204  0.00  0.00    -0.077 C 
BRANCH  31  38
ATOM     32  C   UNL     1      -1.757  -0.592  -0.468  0.00  0.00    -0.013 C 
ATOM     33  C   UNL     1      -2.362  -1.925  -0.022  0.00  0.00    -0.072 C 
ATOM     34  C   UNL     1      -2.291  -2.928  -1.175  0.00  0.00    -0.016 C 
ATOM     35  C   UNL     1      -2.897  -4.260  -0.724  0.00  0.00    -0.003 C 
ATOM     36  C   UNL     1      -2.155  -4.752   0.521  0.00  0.00    -0.019 C 
ATOM     37  C   UNL     1      -2.232  -3.681   1.611  0.00  0.00    -0.078 C 
ATOM     38  N   UNL     1      -1.612  -2.442   1.128  0.00  0.00    +0.381 N 
ATOM     39  H   UNL     1      -0.660  -2.628   0.851  0.00  0.00    -0.081 HD
ENDBRANCH  31  38
ENDBRANCH  30  31
ENDBRANCH  29  30
ENDBRANCH  25  29
ENDBRANCH   1  26
TORSDOF 10
