REMARK  Name = ZINC39073821
REMARK  0 active torsions:
REMARK  status: ('A' for Active; 'I' for Inactive)
REMARK                            x       y       z     vdW  Elec       q    Type
REMARK                         _______ _______ _______ _____ _____    ______ ____
ROOT
ATOM      1  C   UNL     1      -0.019   1.521   0.010  0.00  0.00    +0.023 C 
ATOM      2  C   UNL     1       1.414   2.062  -0.000  0.00  0.00    +0.028 C 
ATOM      3  C   UNL     1       1.907   2.170   1.419  0.00  0.00    -0.029 C 
ATOM      4  C   UNL     1       2.207   1.102   2.107  0.00  0.00    -0.012 C 
ATOM      5  C   UNL     1       2.080  -0.255   1.445  0.00  0.00    +0.134 C 
ATOM      6  N   UNL     1       0.663  -0.532   1.194  0.00  0.00    -0.300 N 
ATOM      7  C   UNL     1       0.002  -0.004   0.002  0.00  0.00    +0.108 C 
ATOM      8  C   UNL     1      -0.036  -1.280   2.070  0.00  0.00    +0.328 C 
ATOM      9  O   UNL     1       0.507  -1.720   3.061  0.00  0.00    -0.279 OA
ENDROOT
TORSDOF 0
