REMARK  Name = ZINC64349153
REMARK  13 active torsions:
REMARK  status: ('A' for Active; 'I' for Inactive)
REMARK    1  A    between atoms: C_1  and  C_2
REMARK    2  A    between atoms: C_4  and  O_12
REMARK    3  A    between atoms: C_5  and  C_9
REMARK    4  A    between atoms: C_9  and  C_10
REMARK    5  A    between atoms: C_9  and  C_11
REMARK    6  A    between atoms: O_12  and  C_13
REMARK    7  A    between atoms: C_13  and  C_14
REMARK    8  A    between atoms: C_16  and  C_22
REMARK    9  A    between atoms: C_19  and  O_20
REMARK   10  A    between atoms: O_20  and  C_21
REMARK   11  A    between atoms: C_35  and  C_38
REMARK   12  A    between atoms: C_38  and  O_40
REMARK   13  A    between atoms: O_40  and  C_41
REMARK                            x       y       z     vdW  Elec       q    Type
REMARK                         _______ _______ _______ _____ _____    ______ ____
ROOT
ATOM      1  C   UNL     1      -0.174  -2.935  -4.721  0.00  0.00    +0.032 A 
ATOM      2  C   UNL     1      -0.118  -4.306  -4.562  0.00  0.00    +0.015 A 
ATOM      3  C   UNL     1      -0.079  -5.131  -5.671  0.00  0.00    -0.028 A 
ATOM      4  C   UNL     1      -0.097  -4.586  -6.942  0.00  0.00    +0.009 A 
ATOM      5  C   UNL     1      -0.154  -3.216  -7.106  0.00  0.00    +0.046 A 
ATOM      6  C   UNL     1      -0.199  -2.386  -5.995  0.00  0.00    +0.126 A 
ENDROOT
BRANCH   3   7
ATOM      7  C   UNL     1      -0.016  -6.626  -5.495  0.00  0.00    +0.111 C 
ATOM      8  C   UNL     1      -1.408  -7.229  -5.701  0.00  0.00    +0.128 C 
ATOM      9  C   UNL     1      -1.225  -8.742  -5.676  0.00  0.00    -0.035 C 
ATOM     10  C   UNL     1      -2.063  -9.206  -4.761  0.00  0.00    -0.001 A 
ATOM     11  C   UNL     1      -2.403 -10.577  -4.346  0.00  0.00    +0.010 A 
ATOM     12  C   UNL     1      -3.315 -10.691  -3.344  0.00  0.00    +0.001 A 
ATOM     13  C   UNL     1      -3.916  -9.593  -2.721  0.00  0.00    +0.002 A 
ATOM     14  C   UNL     1      -3.667  -8.299  -3.043  0.00  0.00    +0.026 A 
ATOM     15  C   UNL     1      -2.729  -8.050  -4.086  0.00  0.00    +0.043 A 
ATOM     16  N   UNL     1      -2.327  -6.908  -4.611  0.00  0.00    -0.376 N 
ATOM     17  C   UNL     1      -0.175  -9.427  -6.518  0.00  0.00    +0.063 C 
ATOM     18  C   UNL     1       1.130  -8.639  -6.302  0.00  0.00    +0.168 C 
ATOM     19  N   UNL     1       0.893  -7.206  -6.496  0.00  0.00    -0.295 NA
ATOM     20  H   UNL     1       0.568  -7.017  -7.432  0.00  0.00    +0.123 HD
ATOM     21  H   UNL     1      -2.584  -6.016  -4.329  0.00  0.00    +0.160 HD
BRANCH  18  22
ATOM     22  C   UNL     1       1.629  -8.874  -4.900  0.00  0.00    +0.324 C 
ATOM     23  O   UNL     1       1.880  -7.935  -4.183  0.00  0.00    -0.249 OA
BRANCH  22  24
ATOM     24  O   UNL     1       1.795 -10.127  -4.448  0.00  0.00    -0.467 OA
ATOM     25  C   UNL     1       2.271 -10.276  -3.109  0.00  0.00    +0.280 C 
ENDBRANCH  22  24
ENDBRANCH  18  22
ENDBRANCH   3   7
BRANCH   6  26
ATOM     26  O   UNL     1      -0.261  -1.038  -6.154  0.00  0.00    -0.495 OA
ATOM     27  C   UNL     1      -0.282  -0.543  -7.494  0.00  0.00    +0.277 C 
ENDBRANCH   6  26
BRANCH   1  28
ATOM     28  C   UNL     1      -0.216  -2.037  -3.512  0.00  0.00    +0.268 C 
BRANCH  28  29
ATOM     29  O   UNL     1      -0.181  -2.833  -2.326  0.00  0.00    -0.487 OA
BRANCH  29  33
ATOM     30  C   UNL     1      -0.375   1.388   0.118  0.00  0.00    +0.045 C 
ATOM     31  C   UNL     1      -0.306  -0.117   0.093  0.00  0.00    -0.029 A 
ATOM     32  C   UNL     1      -0.275  -0.787  -1.115  0.00  0.00    +0.050 A 
ATOM     33  C   UNL     1      -0.211  -2.172  -1.138  0.00  0.00    +0.125 A 
ATOM     34  C   UNL     1      -0.180  -2.883   0.053  0.00  0.00    -0.002 A 
ATOM     35  C   UNL     1      -0.212  -2.210   1.259  0.00  0.00    +0.027 A 
ATOM     36  C   UNL     1      -0.270  -0.828   1.279  0.00  0.00    +0.044 A 
ATOM     37 CL   UNL     1      -0.302   0.016   2.796  0.00  0.00    -0.083 Cl
BRANCH  34  38
ATOM     38  C   UNL     1      -0.112  -4.388   0.031  0.00  0.00    +0.016 C 
ATOM     39  C   UNL     1       1.159  -4.852   0.746  0.00  0.00    +0.012 C 
ATOM     40  C   UNL     1      -1.337  -4.965   0.744  0.00  0.00    +0.012 C 
ENDBRANCH  34  38
ENDBRANCH  29  33
ENDBRANCH  28  29
ENDBRANCH   1  28
TORSDOF 8
