REMARK  Name = ZINC39710364
REMARK  13 active torsions:
REMARK  status: ('A' for Active; 'I' for Inactive)
REMARK    1  A    between atoms: C_1  and  C_2
REMARK    2  A    between atoms: C_2  and  C_3
REMARK    3  A    between atoms: C_3  and  C_4
REMARK    4  A    between atoms: C_3  and  C_5
REMARK    5  A    between atoms: C_3  and  N_6
REMARK    6  A    between atoms: C_7  and  C_12
REMARK    7  A    between atoms: C_12  and  C_14
REMARK    8  A    between atoms: C_12  and  N_27
REMARK    9  A    between atoms: C_19  and  C_26
REMARK   10  A    between atoms: N_27  and  C_28
REMARK   11  A    between atoms: N_27  and  C_34
REMARK   12  A    between atoms: C_28  and  C_29
REMARK   13  A    between atoms: C_34  and  C_35
REMARK                            x       y       z     vdW  Elec       q    Type
REMARK                         _______ _______ _______ _____ _____    ______ ____
ROOT
ATOM      1  C   UNL     1       0.602  -3.363  -3.392  0.00  0.00    -0.008 C 
ENDROOT
BRANCH   1   2
ATOM      2  C   UNL     1      -0.216  -2.412  -4.267  0.00  0.00    +0.088 C 
ATOM      3  C   UNL     1      -0.939  -3.244  -5.309  0.00  0.00    -0.006 C 
ATOM      4  C   UNL     1      -0.698  -2.952  -6.619  0.00  0.00    -0.007 A 
ATOM      5  C   UNL     1      -1.353  -3.705  -7.688  0.00  0.00    +0.012 A 
ATOM      6  C   UNL     1      -1.083  -3.379  -8.979  0.00  0.00    -0.050 A 
ATOM      7  C   UNL     1      -0.201  -2.347  -9.298  0.00  0.00    +0.005 A 
ATOM      8  C   UNL     1       0.438  -1.610  -8.352  0.00  0.00    +0.024 A 
ATOM      9  C   UNL     1       0.229  -1.867  -6.985  0.00  0.00    +0.040 A 
ATOM     10  N   UNL     1       0.861  -1.137  -6.066  0.00  0.00    -0.285 N 
ATOM     11  C   UNL     1       0.711  -1.327  -4.766  0.00  0.00    +0.223 C 
ATOM     12  O   UNL     1       1.316  -0.629  -3.974  0.00  0.00    -0.275 OA
ATOM     13  C   UNL     1      -1.751  -4.149 -10.089  0.00  0.00    +0.044 C 
ATOM     14  H   UNL     1       1.460  -0.435  -6.364  0.00  0.00    +0.155 HD
ENDBRANCH   1   2
BRANCH   1  16
ATOM     15  N   UNL     1      -0.675  -2.816  -1.349  0.00  0.00    -0.182 NA
ATOM     16  C   UNL     1       0.668  -2.814  -1.965  0.00  0.00    +0.205 C 
ATOM     17  N   UNL     1       1.467  -3.700  -1.108  0.00  0.00    -0.152 NA
ATOM     18  N   UNL     1       0.753  -4.124  -0.197  0.00  0.00    -0.070 NA
ATOM     19  N   UNL     1      -0.554  -3.643  -0.264  0.00  0.00    -0.179 N 
ATOM     20  H   UNL     1      -1.265  -3.860   0.360  0.00  0.00    +0.191 HD
BRANCH  15  21
ATOM     21  C   UNL     1      -1.067  -1.461  -0.937  0.00  0.00    +0.037 C 
ATOM     22  C   UNL     1      -1.435  -0.638  -2.174  0.00  0.00    +0.029 C 
ATOM     23  C   UNL     1       0.099  -0.792  -0.208  0.00  0.00    +0.029 C 
BRANCH  21  25
ATOM     24  C   UNL     1      -2.683  -0.132   0.428  0.00  0.00    +0.006 C 
ATOM     25  C   UNL     1      -2.275  -1.542  -0.002  0.00  0.00    +0.020 C 
ENDBRANCH  21  25
ENDBRANCH  15  21
ENDBRANCH   1  16
BRANCH   1  26
ATOM     26  N   UNL     1       1.962  -3.480  -3.935  0.00  0.00    +0.392 N 
ATOM     27  H   UNL     1       2.438  -2.595  -3.843  0.00  0.00    -0.080 HD
BRANCH  26  28
ATOM     28  C   UNL     1       1.893  -3.854  -5.354  0.00  0.00    -0.002 C 
BRANCH  28  29
ATOM     29  C   UNL     1       3.276  -3.819  -5.951  0.00  0.00    +0.089 A 
ATOM     30  C   UNL     1       4.092  -4.876  -6.108  0.00  0.00    +0.042 A 
ATOM     31  C   UNL     1       5.280  -4.392  -6.703  0.00  0.00    +0.041 A 
ATOM     32  C   UNL     1       5.118  -3.068  -6.874  0.00  0.00    +0.195 A 
ATOM     33  O   UNL     1       3.900  -2.727  -6.422  0.00  0.00    -0.470 OA
ENDBRANCH  28  29
ENDBRANCH  26  28
BRANCH  26  34
ATOM     34  C   UNL     1       2.699  -4.511  -3.192  0.00  0.00    -0.034 C 
BRANCH  34  35
ATOM     35  C   UNL     1       1.879  -5.775  -3.140  0.00  0.00    -0.027 A 
ATOM     36  C   UNL     1       1.935  -6.863  -3.946  0.00  0.00    +0.009 A 
ATOM     37  C   UNL     1       1.076  -7.919  -3.707  0.00  0.00    +0.008 A 
ATOM     38  C   UNL     1       0.203  -7.835  -2.674  0.00  0.00    +0.045 A 
ATOM     39  S   UNL     1       0.587  -6.229  -1.995  0.00  0.00    -0.103 S 
ENDBRANCH  34  35
ENDBRANCH  26  34
ENDBRANCH   1  26
TORSDOF 9
