REMARK  Name = ZINC00743943
REMARK  12 active torsions:
REMARK  status: ('A' for Active; 'I' for Inactive)
REMARK    1  A    between atoms: C_1  and  C_2
REMARK    2  A    between atoms: C_5  and  N_8
REMARK    3  A    between atoms: C_9  and  N_19
REMARK    4  A    between atoms: C_11  and  C_13
REMARK    5  A    between atoms: C_20  and  C_22
REMARK    6  A    between atoms: C_22  and  N_23
REMARK    7  A    between atoms: N_23  and  C_24
REMARK    8  A    between atoms: N_23  and  S_27
REMARK    9  A    between atoms: C_24  and  C_25
REMARK   10  A    between atoms: C_24  and  C_26
REMARK   11  A    between atoms: S_27  and  C_30
REMARK   12  A    between atoms: C_31  and  C_32
REMARK                            x       y       z     vdW  Elec       q    Type
REMARK                         _______ _______ _______ _____ _____    ______ ____
ROOT
ATOM      1  N   UNL     1       1.143   1.898   0.001  0.00  0.00    -0.269 N 
ATOM      2  C   UNL     1      -0.014   1.209   0.009  0.00  0.00    +0.234 C 
ATOM      3  O   UNL     1       0.002  -0.004   0.002  0.00  0.00    -0.274 OA
ATOM      4  H   UNL     1       1.130   2.868   0.007  0.00  0.00    +0.156 HD
ENDROOT
BRANCH   1   6
ATOM      5  N   UNL     1       3.599   1.785  -0.028  0.00  0.00    -0.218 N 
ATOM      6  C   UNL     1       2.361   1.218  -0.014  0.00  0.00    +0.129 A 
ATOM      7  C   UNL     1       2.525  -0.131  -0.023  0.00  0.00    +0.074 A 
ATOM      8  C   UNL     1       3.907  -0.397  -0.038  0.00  0.00    +0.095 A 
ATOM      9  N   UNL     1       4.547   0.754  -0.037  0.00  0.00    -0.165 NA
BRANCH   5  14
ATOM     10  C   UNL     1       4.720   7.348  -0.037  0.00  0.00    +0.044 C 
ATOM     11  C   UNL     1       4.422   5.871  -0.035  0.00  0.00    -0.050 A 
ATOM     12  C   UNL     1       5.256   5.000   0.642  0.00  0.00    +0.005 A 
ATOM     13  C   UNL     1       4.986   3.645   0.646  0.00  0.00    +0.028 A 
ATOM     14  C   UNL     1       3.875   3.158  -0.030  0.00  0.00    +0.067 A 
ATOM     15  C   UNL     1       3.042   4.035  -0.713  0.00  0.00    +0.028 A 
ATOM     16  C   UNL     1       3.315   5.389  -0.710  0.00  0.00    +0.005 A 
ENDBRANCH   5  14
BRANCH   8  17
ATOM     17  C   UNL     1       4.535  -1.741  -0.051  0.00  0.00    +0.002 A 
ATOM     18  C   UNL     1       3.739  -2.885  -0.043  0.00  0.00    +0.010 A 
ATOM     19  C   UNL     1       4.328  -4.133  -0.060  0.00  0.00    +0.001 A 
ATOM     20  C   UNL     1       5.706  -4.250  -0.074  0.00  0.00    +0.000 A 
ATOM     21  C   UNL     1       6.501  -3.118  -0.076  0.00  0.00    +0.001 A 
ATOM     22  C   UNL     1       5.923  -1.865  -0.064  0.00  0.00    +0.010 A 
ENDBRANCH   8  17
ENDBRANCH   1   6
BRANCH   2  23
ATOM     23  C   UNL     1      -1.330   1.944   0.019  0.00  0.00    +0.205 C 
BRANCH  23  24
ATOM     24  N   UNL     1      -2.430   0.977   0.019  0.00  0.00    -0.166 NA
BRANCH  24  25
ATOM     25  C   UNL     1      -2.901   0.404   1.282  0.00  0.00    +0.074 C 
ATOM     26  C   UNL     1      -1.753  -0.343   1.963  0.00  0.00    +0.025 C 
ATOM     27  C   UNL     1      -3.395   1.525   2.199  0.00  0.00    +0.025 C 
ENDBRANCH  24  25
BRANCH  24  28
ATOM     28  S   UNL     1      -3.141   0.532  -1.409  0.00  0.00    +0.055 S 
ATOM     29  O   UNL     1      -4.449   0.079  -1.087  0.00  0.00    -0.153 OA
ATOM     30  O   UNL     1      -2.906   1.591  -2.327  0.00  0.00    -0.153 OA
BRANCH  28  31
ATOM     31  C   UNL     1      -2.259  -0.866  -2.017  0.00  0.00    +0.153 C 
ATOM     32  C   UNL     1      -2.865  -2.041  -2.114  0.00  0.00    +0.028 C 
BRANCH  32  33
ATOM     33  C   UNL     1      -2.125  -3.215  -2.624  0.00  0.00    -0.024 A 
ATOM     34  C   UNL     1      -0.790  -3.088  -3.009  0.00  0.00    +0.008 A 
ATOM     35  C   UNL     1      -0.103  -4.188  -3.479  0.00  0.00    +0.001 A 
ATOM     36  C   UNL     1      -0.738  -5.413  -3.579  0.00  0.00    +0.000 A 
ATOM     37  C   UNL     1      -2.063  -5.544  -3.204  0.00  0.00    +0.001 A 
ATOM     38  C   UNL     1      -2.760  -4.453  -2.727  0.00  0.00    +0.008 A 
ENDBRANCH  32  33
ENDBRANCH  28  31
ENDBRANCH  24  28
ENDBRANCH  23  24
ENDBRANCH   2  23
TORSDOF 9
