REMARK  Name = ZINC01112135
REMARK  7 active torsions:
REMARK  status: ('A' for Active; 'I' for Inactive)
REMARK    1  A    between atoms: C_4  and  C_7
REMARK    2  A    between atoms: C_7  and  N_8
REMARK    3  A    between atoms: C_9  and  C_11
REMARK    4  A    between atoms: C_11  and  N_22
REMARK    5  A    between atoms: C_12  and  C_13
REMARK    6  A    between atoms: C_16  and  N_19
REMARK    7  A    between atoms: C_23  and  C_25
REMARK                            x       y       z     vdW  Elec       q    Type
REMARK                         _______ _______ _______ _____ _____    ______ ____
ROOT
ATOM      1  C   UNL     1       0.091  -2.356   2.965  0.00  0.00    +0.097 C 
ATOM      2  C   UNL     1       0.313  -3.674   3.173  0.00  0.00    +0.036 C 
ENDROOT
BRANCH   2   3
ATOM      3  C   UNL     1       0.401  -4.199   4.545  0.00  0.00    -0.023 A 
ATOM      4  C   UNL     1       0.839  -3.373   5.586  0.00  0.00    +0.010 A 
ATOM      5  C   UNL     1       0.913  -3.871   6.870  0.00  0.00    +0.033 A 
ATOM      6  C   UNL     1       0.567  -5.186   7.127  0.00  0.00    +0.126 A 
ATOM      7  C   UNL     1       0.138  -6.010   6.102  0.00  0.00    +0.033 A 
ATOM      8  C   UNL     1       0.053  -5.526   4.813  0.00  0.00    +0.010 A 
BRANCH   6   9
ATOM      9  N   UNL     1       0.656  -5.714   8.508  0.00  0.00    +0.056 N 
ATOM     10  O   UNL     1       0.352  -6.870   8.738  0.00  0.00    -0.126 OA
ATOM     11  O   UNL     1       1.033  -4.991   9.413  0.00  0.00    -0.126 OA
ENDBRANCH   6   9
ENDBRANCH   2   3
BRANCH   1  13
ATOM     12  N   UNL     1      -0.099  -0.498   1.393  0.00  0.00    -0.306 N 
ATOM     13  C   UNL     1       0.161  -1.804   1.604  0.00  0.00    +0.259 C 
ATOM     14  O   UNL     1       0.453  -2.525   0.669  0.00  0.00    -0.269 OA
ATOM     15  H   UNL     1      -0.392   0.063   2.127  0.00  0.00    +0.149 HD
BRANCH  12  16
ATOM     16  C   UNL     1       0.063   0.073   0.053  0.00  0.00    +0.140 C 
BRANCH  16  20
ATOM     17  C   UNL     1      -0.932   4.226   0.146  0.00  0.00    +0.000 A 
ATOM     18  C   UNL     1       0.368   3.821   0.382  0.00  0.00    +0.000 A 
ATOM     19  C   UNL     1       0.690   2.477   0.352  0.00  0.00    +0.005 A 
ATOM     20  C   UNL     1      -0.288   1.538   0.086  0.00  0.00    -0.030 A 
ATOM     21  C   UNL     1      -1.588   1.943  -0.156  0.00  0.00    +0.005 A 
ATOM     22  C   UNL     1      -1.911   3.287  -0.121  0.00  0.00    +0.000 A 
ENDBRANCH  16  20
ENDBRANCH  12  16
ENDBRANCH   1  13
BRANCH   1  23
ATOM     23  N   UNL     1      -0.205  -1.519   4.045  0.00  0.00    -0.275 N 
ATOM     24  C   UNL     1       0.607  -0.484   4.337  0.00  0.00    +0.284 C 
ATOM     25  O   UNL     1       1.557  -0.233   3.618  0.00  0.00    -0.266 OA
ATOM     26  H   UNL     1      -0.995  -1.683   4.583  0.00  0.00    +0.155 HD
BRANCH  24  27
ATOM     27  C   UNL     1       0.347   0.340   5.520  0.00  0.00    +0.191 A 
ATOM     28  C   UNL     1       1.086   1.413   5.930  0.00  0.00    +0.056 A 
ATOM     29  C   UNL     1       0.482   1.898   7.099  0.00  0.00    +0.058 A 
ATOM     30  C   UNL     1      -0.589   1.109   7.350  0.00  0.00    +0.171 A 
ATOM     31  O   UNL     1      -0.669   0.176   6.393  0.00  0.00    -0.444 OA
ATOM     32 BR   UNL     1      -1.779   1.299   8.808  0.00  0.00    -0.008 Br
ENDBRANCH  24  27
ENDBRANCH   1  23
TORSDOF 7
