REMARK  Name = ZINC16041356
REMARK  7 active torsions:
REMARK  status: ('A' for Active; 'I' for Inactive)
REMARK    1  A    between atoms: C_4  and  N_29
REMARK    2  A    between atoms: C_5  and  C_7
REMARK    3  A    between atoms: N_9  and  C_10
REMARK    4  A    between atoms: C_10  and  C_12
REMARK    5  A    between atoms: C_10  and  O_16
REMARK    6  A    between atoms: O_16  and  C_17
REMARK    7  A    between atoms: C_17  and  C_18
REMARK                            x       y       z     vdW  Elec       q    Type
REMARK                         _______ _______ _______ _____ _____    ______ ____
ROOT
ATOM      1  C   UNL     1       2.486   2.740  -0.305  0.00  0.00    +0.257 C 
ENDROOT
BRANCH   1   4
ATOM      2  C   UNL     1       3.352   1.113   1.288  0.00  0.00    +0.248 C 
ATOM      3  O   UNL     1       3.449   0.315   0.377  0.00  0.00    -0.270 OA
ATOM      4  N   UNL     1       2.882   2.354   1.051  0.00  0.00    -0.283 N 
ATOM      5  H   UNL     1       2.805   2.991   1.779  0.00  0.00    +0.152 HD
BRANCH   2  10
ATOM      6  C   UNL     1       3.884   1.213   5.005  0.00  0.00    +0.001 A 
ATOM      7  C   UNL     1       4.499  -0.007   5.222  0.00  0.00    +0.002 A 
ATOM      8  C   UNL     1       4.743  -0.864   4.163  0.00  0.00    +0.033 A 
ATOM      9  C   UNL     1       4.373  -0.506   2.883  0.00  0.00    +0.138 A 
ATOM     10  C   UNL     1       3.752   0.723   2.657  0.00  0.00    +0.067 A 
ATOM     11  C   UNL     1       3.514   1.585   3.729  0.00  0.00    +0.015 A 
BRANCH   9  12
ATOM     12  N   UNL     1       4.636  -1.423   1.751  0.00  0.00    +0.057 N 
ATOM     13  O   UNL     1       4.284  -2.587   1.816  0.00  0.00    -0.126 OA
ATOM     14  O   UNL     1       5.203  -1.013   0.754  0.00  0.00    -0.126 OA
ENDBRANCH   9  12
ENDBRANCH   2  10
ENDBRANCH   1   4
BRANCH   1  15
ATOM     15  C   UNL     1       2.938   4.176  -0.579  0.00  0.00    +0.233 C 
ATOM     16 CL   UNL     1       2.164   5.287   0.612  0.00  0.00    -0.079 Cl
ATOM     17 CL   UNL     1       4.731   4.282  -0.422  0.00  0.00    -0.079 Cl
ATOM     18 CL   UNL     1       2.451   4.652  -2.248  0.00  0.00    -0.079 Cl
ENDBRANCH   1  15
BRANCH   1  19
ATOM     19  O   UNL     1       1.065   2.656  -0.429  0.00  0.00    -0.354 OA
BRANCH  19  20
ATOM     20  C   UNL     1       0.558   1.320  -0.417  0.00  0.00    +0.164 C 
BRANCH  20  21
ATOM     21  C   UNL     1      -0.965   1.351  -0.555  0.00  0.00    +0.001 C 
ATOM     22  C   UNL     1      -1.340   1.918  -1.925  0.00  0.00    +0.002 C 
ATOM     23  C   UNL     1      -0.779   0.991  -3.009  0.00  0.00    -0.018 C 
ATOM     24  C   UNL     1      -1.361  -0.408  -2.811  0.00  0.00    -0.078 C 
ATOM     25  C   UNL     1      -1.518  -0.071  -0.413  0.00  0.00    -0.063 C 
ATOM     26  C   UNL     1      -1.082  -0.614   0.954  0.00  0.00    -0.015 C 
ATOM     27  C   UNL     1      -1.576  -2.052   1.122  0.00  0.00    -0.003 C 
ATOM     28  C   UNL     1      -1.012  -2.902  -0.021  0.00  0.00    -0.019 C 
ATOM     29  C   UNL     1      -1.475  -2.310  -1.352  0.00  0.00    -0.078 C 
ATOM     30  N   UNL     1      -0.971  -0.930  -1.491  0.00  0.00    +0.382 N 
ATOM     31  H   UNL     1       0.054  -0.938  -1.422  0.00  0.00    -0.081 HD
ENDBRANCH  20  21
ENDBRANCH  19  20
ENDBRANCH   1  19
TORSDOF 7
