REMARK  Name = ZINC33389919
REMARK  11 active torsions:
REMARK  status: ('A' for Active; 'I' for Inactive)
REMARK    1  A    between atoms: C_1  and  C_2
REMARK    2  A    between atoms: C_2  and  C_3
REMARK    3  A    between atoms: C_3  and  C_4
REMARK    4  A    between atoms: C_4  and  C_5
REMARK    5  A    between atoms: C_5  and  N_6
REMARK    6  A    between atoms: C_10  and  C_11
REMARK    7  A    between atoms: C_12  and  N_23
REMARK    8  A    between atoms: C_17  and  C_22
REMARK    9  A    between atoms: C_29  and  O_31
REMARK   10  A    between atoms: O_31  and  C_32
REMARK   11  A    between atoms: C_32  and  C_33
REMARK                            x       y       z     vdW  Elec       q    Type
REMARK                         _______ _______ _______ _____ _____    ______ ____
ROOT
ATOM      1  C   UNL     1       0.319  -2.437   3.441  0.00  0.00    +0.081 A 
ATOM      2  C   UNL     1       0.227  -3.287   4.568  0.00  0.00    +0.136 A 
ATOM      3  N   UNL     1       0.097  -2.758   5.776  0.00  0.00    -0.214 NA
ATOM      4  C   UNL     1       0.050  -1.439   5.961  0.00  0.00    +0.142 A 
ATOM      5  C   UNL     1      -0.088  -0.935   7.267  0.00  0.00    +0.047 A 
ATOM      6  C   UNL     1      -0.139   0.413   7.465  0.00  0.00    +0.008 A 
ATOM      7  C   UNL     1      -0.050   1.278   6.366  0.00  0.00    -0.034 A 
ATOM      8  C   UNL     1       0.083   0.776   5.118  0.00  0.00    +0.099 A 
ATOM      9  N   UNL     1       0.134  -0.570   4.908  0.00  0.00    -0.267 N 
ATOM     10  C   UNL     1       0.274  -1.038   3.649  0.00  0.00    +0.267 A 
ATOM     11  O   UNL     1       0.355  -0.268   2.707  0.00  0.00    -0.267 OA
ATOM     12  C   UNL     1      -0.105   2.769   6.576  0.00  0.00    +0.045 C 
ENDROOT
BRANCH   1  17
ATOM     13  N   UNL     1      -2.633  -2.189   0.336  0.00  0.00    -0.255 N 
ATOM     14  C   UNL     1      -1.831  -2.226   1.385  0.00  0.00    +0.258 C 
ATOM     15  O   UNL     1      -2.183  -1.771   2.459  0.00  0.00    -0.269 OA
ATOM     16  C   UNL     1      -0.543  -2.812   1.225  0.00  0.00    +0.077 C 
ATOM     17  C   UNL     1       0.458  -2.972   2.139  0.00  0.00    +0.037 C 
ATOM     18  S   UNL     1      -0.595  -3.283  -0.499  0.00  0.00    -0.061 S 
ATOM     19  C   UNL     1      -2.245  -2.698  -0.855  0.00  0.00    +0.121 C 
ATOM     20  S   UNL     1      -3.113  -2.764  -2.329  0.00  0.00    -0.027 S 
BRANCH  13  21
ATOM     21  C   UNL     1      -3.965  -1.592   0.466  0.00  0.00    +0.115 C 
BRANCH  21  22
ATOM     22  C   UNL     1      -3.889  -0.099   0.144  0.00  0.00    +0.019 C 
BRANCH  22  23
ATOM     23  C   UNL     1      -5.280   0.524   0.280  0.00  0.00    +0.001 C 
BRANCH  23  25
ATOM     24  C   UNL     1      -6.594   2.641   0.093  0.00  0.00    +0.004 C 
ATOM     25  C   UNL     1      -5.203   2.018  -0.043  0.00  0.00    -0.003 C 
ENDBRANCH  23  25
ENDBRANCH  22  23
ENDBRANCH  21  22
ENDBRANCH  13  21
ENDBRANCH   1  17
BRANCH   2  26
ATOM     26  N   UNL     1       0.273  -4.655   4.411  0.00  0.00    -0.312 N 
ATOM     27  C   UNL     1      -0.891  -5.137   3.655  0.00  0.00    +0.125 C 
ATOM     28  C   UNL     1      -0.713  -6.628   3.346  0.00  0.00    +0.130 C 
ATOM     29  N   UNL     1      -0.453  -7.338   4.607  0.00  0.00    -0.264 N 
ATOM     30  C   UNL     1       0.611  -6.829   5.486  0.00  0.00    +0.130 C 
ATOM     31  C   UNL     1       0.381  -5.331   5.710  0.00  0.00    +0.125 C 
ATOM     32  C   UNL     1      -1.170  -8.428   4.948  0.00  0.00    +0.403 C 
ATOM     33  O   UNL     1      -0.941  -9.003   5.993  0.00  0.00    -0.226 OA
BRANCH  32  34
ATOM     34  O   UNL     1      -2.139  -8.878   4.130  0.00  0.00    -0.451 OA
BRANCH  34  35
ATOM     35  C   UNL     1      -2.871 -10.056   4.561  0.00  0.00    +0.230 C 
ATOM     36  C   UNL     1      -3.924 -10.416   3.510  0.00  0.00    +0.048 C 
ENDBRANCH  34  35
ENDBRANCH  32  34
ENDBRANCH   2  26
TORSDOF 8
