REMARK  Name = ZINC40154302
REMARK  4 active torsions:
REMARK  status: ('A' for Active; 'I' for Inactive)
REMARK    1  A    between atoms: C_1  and  C_2
REMARK    2  A    between atoms: C_7  and  C_8
REMARK    3  A    between atoms: C_8  and  C_9
REMARK    4  A    between atoms: C_8  and  C_10
REMARK                            x       y       z     vdW  Elec       q    Type
REMARK                         _______ _______ _______ _____ _____    ______ ____
ROOT
ATOM      1  C   UNL     1      -0.019   1.526   0.010  0.00  0.00    +0.020 C 
ATOM      2  C   UNL     1       0.002  -0.004   0.002  0.00  0.00    +0.075 C 
ATOM      3  C   UNL     1      -1.405  -0.558   0.103  0.00  0.00    +0.116 C 
ATOM      4  N   UNL     1      -1.438  -1.244   1.198  0.00  0.00    -0.161 NA
ATOM      5  N   UNL     1      -0.220  -1.231   1.869  0.00  0.00    -0.158 NA
ATOM      6  C   UNL     1       0.681  -0.536   1.248  0.00  0.00    +0.052 C 
ENDROOT
BRANCH   6   7
ATOM      7  C   UNL     1       2.108  -0.304   1.675  0.00  0.00    +0.030 C 
ATOM      8  C   UNL     1       2.335  -0.922   3.056  0.00  0.00    +0.013 C 
ATOM      9  C   UNL     1       3.055  -0.953   0.663  0.00  0.00    +0.013 C 
ENDBRANCH   6   7
TORSDOF 1
