REMARK  Name = ZINC11912661
REMARK  15 active torsions:
REMARK  status: ('A' for Active; 'I' for Inactive)
REMARK    1  A    between atoms: C_1  and  C_2
REMARK    2  A    between atoms: C_2  and  C_3
REMARK    3  A    between atoms: C_2  and  C_4
REMARK    4  A    between atoms: C_4  and  C_5
REMARK    5  A    between atoms: C_5  and  C_7
REMARK    6  A    between atoms: C_5  and  N_26
REMARK    7  A    between atoms: C_16  and  C_17
REMARK    8  A    between atoms: C_16  and  N_74
REMARK    9  A    between atoms: C_20  and  N_23
REMARK   10  A    between atoms: N_23  and  C_24
REMARK   11  A    between atoms: N_23  and  C_25
REMARK   12  A    between atoms: C_27  and  C_29
REMARK   13  A    between atoms: C_32  and  C_34
REMARK   14  A    between atoms: C_34  and  O_35
REMARK   15  A    between atoms: O_35  and  C_36
REMARK                            x       y       z     vdW  Elec       q    Type
REMARK                         _______ _______ _______ _____ _____    ______ ____
ROOT
ATOM      1  C   UNL     1      -5.853   3.135   0.109  0.00  0.00    +0.154 A 
ATOM      2  N   UNL     1      -5.529   4.359  -0.220  0.00  0.00    -0.132 NA
ATOM      3  N   UNL     1      -6.443   5.173   0.182  0.00  0.00    -0.134 NA
ATOM      4  C   UNL     1      -7.388   4.506   0.777  0.00  0.00    +0.132 A 
ATOM      5  N   UNL     1      -7.036   3.197   0.757  0.00  0.00    -0.315 N 
ATOM      6  C   UNL     1      -7.785   2.095   1.360  0.00  0.00    +0.106 C 
ATOM      7  C   UNL     1      -9.274   2.456   1.384  0.00  0.00    -0.056 C 
ATOM      8  C   UNL     1      -8.859   4.419   2.761  0.00  0.00    -0.071 C 
ATOM      9  C   UNL     1      -8.660   5.047   1.378  0.00  0.00    +0.058 C 
ATOM     10  N   UNL     1      -9.632   3.164   2.635  0.00  0.00    +0.384 N 
ATOM     11  H   UNL     1     -10.633   3.394   2.610  0.00  0.00    -0.081 HD
ENDROOT
BRANCH   1  12
ATOM     12  C   UNL     1      -5.059   1.889  -0.186  0.00  0.00    +0.142 C 
BRANCH  12  13
ATOM     13  N   UNL     1      -3.657   2.105   0.183  0.00  0.00    -0.299 N 
ATOM     14  C   UNL     1      -2.853   1.050   0.424  0.00  0.00    +0.280 C 
ATOM     15  O   UNL     1      -3.313  -0.076   0.427  0.00  0.00    -0.267 OA
ATOM     16  H   UNL     1      -3.308   3.007   0.253  0.00  0.00    +0.150 HD
BRANCH  14  17
ATOM     17  C   UNL     1      -1.425   1.261   0.683  0.00  0.00    +0.190 A 
ATOM     18  C   UNL     1      -0.505   0.286   0.941  0.00  0.00    +0.055 A 
ATOM     19  C   UNL     1       0.728   0.933   1.120  0.00  0.00    +0.048 A 
ATOM     20  C   UNL     1       0.508   2.257   0.971  0.00  0.00    +0.131 A 
ATOM     21  O   UNL     1      -0.792   2.452   0.712  0.00  0.00    -0.453 OA
BRANCH  20  22
ATOM     22  C   UNL     1       1.552   3.339   1.081  0.00  0.00    +0.233 C 
BRANCH  22  23
ATOM     23  O   UNL     1       2.130   3.574  -0.205  0.00  0.00    -0.375 OA
ATOM     24  C   UNL     1       3.138   4.587  -0.212  0.00  0.00    +0.194 C 
ENDBRANCH  22  23
ENDBRANCH  20  22
ENDBRANCH  14  17
ENDBRANCH  12  13
BRANCH  12  25
ATOM     25  C   UNL     1      -5.150   1.568  -1.679  0.00  0.00    +0.033 C 
BRANCH  25  27
ATOM     26  C   UNL     1      -6.715   1.024  -3.549  0.00  0.00    +0.007 C 
ATOM     27  C   UNL     1      -6.592   1.200  -2.034  0.00  0.00    -0.015 C 
ATOM     28  C   UNL     1      -6.971  -0.108  -1.336  0.00  0.00    +0.007 C 
ENDBRANCH  25  27
ENDBRANCH  12  25
ENDBRANCH   1  12
BRANCH  10  29
ATOM     29  C   UNL     1      -9.370   2.295   3.796  0.00  0.00    -0.043 C 
BRANCH  29  30
ATOM     30  C   UNL     1      -9.972   2.936   5.021  0.00  0.00    -0.064 A 
ATOM     31  C   UNL     1      -9.209   3.786   5.800  0.00  0.00    +0.003 A 
ATOM     32  C   UNL     1      -9.759   4.380   6.919  0.00  0.00    +0.023 A 
ATOM     33  C   UNL     1     -11.077   4.113   7.268  0.00  0.00    +0.029 A 
ATOM     34  C   UNL     1     -11.839   3.255   6.486  0.00  0.00    +0.023 A 
ATOM     35  C   UNL     1     -11.284   2.669   5.365  0.00  0.00    +0.003 A 
BRANCH  33  36
ATOM     36  N   UNL     1     -11.634   4.707   8.403  0.00  0.00    -0.336 N 
ATOM     37  C   UNL     1     -12.976   4.322   8.847  0.00  0.00    +0.129 C 
ATOM     38  C   UNL     1     -10.877   5.715   9.149  0.00  0.00    +0.129 C 
ENDBRANCH  33  36
ENDBRANCH  29  30
ENDBRANCH  10  29
TORSDOF 10
