REMARK  Name = ZINC52949798
REMARK  4 active torsions:
REMARK  status: ('A' for Active; 'I' for Inactive)
REMARK    1  A    between atoms: C_1  and  N_2
REMARK    2  A    between atoms: N_2  and  C_3
REMARK    3  A    between atoms: C_4  and  C_6
REMARK    4  A    between atoms: C_12  and  C_14
REMARK                            x       y       z     vdW  Elec       q    Type
REMARK                         _______ _______ _______ _____ _____    ______ ____
ROOT
ATOM      1  C   UNL     1      -1.345  -1.730   1.104  0.00  0.00    +0.078 C 
ATOM      2  C   UNL     1      -0.485  -2.572   2.049  0.00  0.00    +0.032 C 
ATOM      3  C   UNL     1      -0.431  -4.014   1.534  0.00  0.00    +0.108 C 
ATOM      4  N   UNL     1      -1.805  -4.508   1.366  0.00  0.00    -0.301 N 
ATOM      5  C   UNL     1      -2.742  -3.724   0.549  0.00  0.00    +0.108 C 
ATOM      6  C   UNL     1      -2.770  -2.286   1.075  0.00  0.00    +0.032 C 
ATOM      7  C   UNL     1      -2.197  -5.658   1.948  0.00  0.00    +0.219 C 
ATOM      8  O   UNL     1      -1.391  -6.344   2.540  0.00  0.00    -0.275 OA
ENDROOT
BRANCH   7   9
ATOM      9  C   UNL     1      -3.638  -6.092   1.864  0.00  0.00    +0.079 C 
ATOM     10  C   UNL     1      -3.962  -7.033   3.031  0.00  0.00    +0.017 C 
ATOM     11  C   UNL     1      -5.466  -7.314   3.023  0.00  0.00    +0.027 C 
ATOM     12  C   UNL     1      -5.910  -7.717   1.648  0.00  0.00    -0.031 C 
ATOM     13  C   UNL     1      -5.219  -7.510   0.573  0.00  0.00    -0.030 C 
ATOM     14  C   UNL     1      -3.874  -6.842   0.551  0.00  0.00    +0.039 C 
ENDBRANCH   7   9
BRANCH   1  18
ATOM     15  C   UNL     1      -0.251   1.782   2.167  0.00  0.00    +0.131 C 
ATOM     16  N   UNL     1      -0.224   0.395   1.696  0.00  0.00    -0.307 N 
ATOM     17  C   UNL     1       1.050  -0.234   1.342  0.00  0.00    +0.131 C 
ATOM     18  C   UNL     1      -1.373  -0.303   1.589  0.00  0.00    +0.218 C 
ATOM     19  O   UNL     1      -2.428   0.218   1.882  0.00  0.00    -0.275 OA
ENDBRANCH   1  18
TORSDOF 2
