REMARK  Name = ZINC50322546
REMARK  8 active torsions:
REMARK  status: ('A' for Active; 'I' for Inactive)
REMARK    1  A    between atoms: C_1  and  C_2
REMARK    2  A    between atoms: C_2  and  C_3
REMARK    3  A    between atoms: C_3  and  C_4
REMARK    4  A    between atoms: C_5  and  N_23
REMARK    5  A    between atoms: C_6  and  C_10
REMARK    6  A    between atoms: N_12  and  C_13
REMARK    7  A    between atoms: C_13  and  C_15
REMARK    8  A    between atoms: C_13  and  C_16
REMARK                            x       y       z     vdW  Elec       q    Type
REMARK                         _______ _______ _______ _____ _____    ______ ____
ROOT
ATOM      1  C   UNL     1      -0.465  -5.394  -1.860  0.00  0.00    +0.266 C 
ATOM      2  O   UNL     1      -1.569  -5.353  -2.367  0.00  0.00    -0.268 OA
ATOM      3  N   UNL     1       0.117  -6.583  -1.607  0.00  0.00    -0.303 N 
ATOM      4  H   UNL     1       0.998  -6.615  -1.202  0.00  0.00    +0.150 HD
ENDROOT
BRANCH   1   7
ATOM      5  C   UNL     1       0.739  -2.004  -1.265  0.00  0.00    +0.057 A 
ATOM      6  C   UNL     1      -0.243  -2.823  -1.727  0.00  0.00    +0.078 A 
ATOM      7  C   UNL     1       0.238  -4.142  -1.522  0.00  0.00    +0.168 A 
ATOM      8  N   UNL     1       1.432  -4.037  -0.971  0.00  0.00    -0.167 NA
ATOM      9  N   UNL     1       1.744  -2.801  -0.818  0.00  0.00    -0.279 N 
ATOM     10  H   UNL     1       2.577  -2.482  -0.435  0.00  0.00    +0.189 HD
BRANCH   6  11
ATOM     11  N   UNL     1      -1.472  -2.445  -2.288  0.00  0.00    -0.355 N 
ATOM     12  H   UNL     1      -1.694  -1.505  -2.379  0.00  0.00    +0.142 HD
ATOM     13  H   UNL     1      -2.099  -3.122  -2.585  0.00  0.00    +0.142 HD
ENDBRANCH   6  11
BRANCH   5  14
ATOM     14  C   UNL     1       0.718  -0.497  -1.257  0.00  0.00    +0.056 C 
BRANCH  14  16
ATOM     15  C   UNL     1      -0.019   1.526   0.010  0.00  0.00    +0.004 C 
ATOM     16  C   UNL     1       0.002  -0.004   0.002  0.00  0.00    +0.003 C 
ENDBRANCH  14  16
ENDBRANCH   5  14
ENDBRANCH   1   7
BRANCH   3  17
ATOM     17  C   UNL     1      -0.581  -7.826  -1.943  0.00  0.00    +0.100 C 
ATOM     18  C   UNL     1      -0.321  -8.177  -3.409  0.00  0.00    +0.033 C 
BRANCH  17  19
ATOM     19  C   UNL     1      -0.075  -8.940  -1.062  0.00  0.00    -0.027 A 
ATOM     20  C   UNL     1       1.272  -9.025  -0.762  0.00  0.00    +0.006 A 
ATOM     21  C   UNL     1       1.737 -10.046   0.045  0.00  0.00    +0.015 A 
ATOM     22  C   UNL     1       0.854 -10.983   0.553  0.00  0.00    +0.018 A 
ATOM     23  C   UNL     1      -0.493 -10.897   0.252  0.00  0.00    +0.015 A 
ATOM     24  C   UNL     1      -0.958  -9.872  -0.551  0.00  0.00    +0.006 A 
ATOM     25 BR   UNL     1       1.489 -12.380   1.657  0.00  0.00    -0.050 Br
ENDBRANCH  17  19
ENDBRANCH   3  17
TORSDOF 6
