REMARK  Name = ZINC39656077
REMARK  9 active torsions:
REMARK  status: ('A' for Active; 'I' for Inactive)
REMARK    1  A    between atoms: C_1  and  C_2
REMARK    2  A    between atoms: C_8  and  C_11
REMARK    3  A    between atoms: C_11  and  C_12
REMARK    4  A    between atoms: C_12  and  N_13
REMARK    5  A    between atoms: C_14  and  C_16
REMARK    6  A    between atoms: C_27  and  C_29
REMARK    7  A    between atoms: C_29  and  C_30
REMARK    8  A    between atoms: C_30  and  C_31
REMARK    9  A    between atoms: C_31  and  C_32
REMARK                            x       y       z     vdW  Elec       q    Type
REMARK                         _______ _______ _______ _____ _____    ______ ____
ROOT
ATOM      1  C   UNL     1       4.623  -0.116  -7.496  0.00  0.00    +0.100 C 
ATOM      2  C   UNL     1       4.726   0.718  -8.793  0.00  0.00    +0.121 C 
ATOM      3  N   UNL     1       5.635  -0.059  -9.667  0.00  0.00    -0.300 N 
ATOM      4  C   UNL     1       5.251  -1.473  -9.436  0.00  0.00    +0.115 C 
ATOM      5  C   UNL     1       4.968  -1.553  -7.922  0.00  0.00    -0.004 C 
ATOM      6  C   UNL     1       6.208  -2.041  -7.179  0.00  0.00    -0.010 C 
ATOM      7  C   UNL     1       6.498  -3.491  -7.577  0.00  0.00    -0.082 C 
ATOM      8  N   UNL     1       5.341  -4.332  -7.246  0.00  0.00    +0.379 N 
ATOM      9  C   UNL     1       4.175  -3.914  -8.034  0.00  0.00    -0.082 C 
ATOM     10  C   UNL     1       3.788  -2.482  -7.656  0.00  0.00    -0.010 C 
ATOM     11  C   UNL     1       6.595   0.412 -10.487  0.00  0.00    +0.216 C 
ATOM     12  O   UNL     1       7.263  -0.358 -11.145  0.00  0.00    -0.276 OA
ATOM     13  H   UNL     1       5.557  -5.296  -7.452  0.00  0.00    -0.086 HD
ATOM     14  H   UNL     1       5.131  -4.241  -6.263  0.00  0.00    -0.086 HD
ENDROOT
BRANCH   1  16
ATOM     15  N   UNL     1       3.017  -0.185  -5.617  0.00  0.00    -0.315 N 
ATOM     16  C   UNL     1       3.223  -0.055  -6.942  0.00  0.00    +0.218 C 
ATOM     17  O   UNL     1       2.282   0.111  -7.689  0.00  0.00    -0.275 OA
ATOM     18  H   UNL     1       3.769  -0.318  -5.019  0.00  0.00    +0.149 HD
BRANCH  15  19
ATOM     19  C   UNL     1       1.655  -0.126  -5.078  0.00  0.00    +0.109 C 
BRANCH  19  20
ATOM     20  C   UNL     1       1.700  -0.299  -3.559  0.00  0.00    +0.056 C 
BRANCH  20  28
ATOM     21  C   UNL     1      -1.628  -4.959  -3.407  0.00  0.00    +0.044 C 
ATOM     22  C   UNL     1      -1.683  -3.501  -3.032  0.00  0.00    -0.050 A 
ATOM     23  C   UNL     1      -2.836  -2.980  -2.462  0.00  0.00    +0.005 A 
ATOM     24  C   UNL     1      -2.908  -1.649  -2.112  0.00  0.00    +0.026 A 
ATOM     25  C   UNL     1      -1.815  -0.817  -2.331  0.00  0.00    +0.047 A 
ATOM     26  N   UNL     1      -1.579   0.519  -2.098  0.00  0.00    -0.360 N 
ATOM     27  C   UNL     1      -0.315   0.846  -2.506  0.00  0.00    +0.087 A 
ATOM     28  C   UNL     1       0.300  -0.238  -3.005  0.00  0.00    -0.021 A 
ATOM     29  C   UNL     1      -0.648  -1.350  -2.909  0.00  0.00    +0.003 A 
ATOM     30  C   UNL     1      -0.596  -2.703  -3.251  0.00  0.00    +0.013 A 
ATOM     31  H   UNL     1      -2.215   1.137  -1.705  0.00  0.00    +0.165 HD
ENDBRANCH  20  28
ENDBRANCH  19  20
ENDBRANCH  15  19
ENDBRANCH   1  16
BRANCH  11  32
ATOM     32  C   UNL     1       6.839   1.895 -10.587  0.00  0.00    +0.096 C 
BRANCH  32  33
ATOM     33  C   UNL     1       7.973   2.160 -11.580  0.00  0.00    +0.014 C 
BRANCH  33  34
ATOM     34  C   UNL     1       8.221   3.666 -11.681  0.00  0.00    +0.035 C 
BRANCH  34  35
ATOM     35  C   UNL     1       9.338   3.927 -12.658  0.00  0.00    -0.047 A 
ATOM     36  C   UNL     1      10.648   3.970 -12.216  0.00  0.00    +0.003 A 
ATOM     37  C   UNL     1      11.672   4.209 -13.113  0.00  0.00    +0.000 A 
ATOM     38  C   UNL     1      11.388   4.405 -14.451  0.00  0.00    +0.000 A 
ATOM     39  C   UNL     1      10.079   4.361 -14.894  0.00  0.00    +0.000 A 
ATOM     40  C   UNL     1       9.055   4.118 -13.998  0.00  0.00    +0.003 A 
ENDBRANCH  34  35
ENDBRANCH  33  34
ENDBRANCH  32  33
ENDBRANCH  11  32
TORSDOF 8
