REMARK  Name = ZINC53113487
REMARK  7 active torsions:
REMARK  status: ('A' for Active; 'I' for Inactive)
REMARK    1  A    between atoms: C_1  and  C_2
REMARK    2  A    between atoms: C_7  and  C_9
REMARK    3  A    between atoms: C_7  and  N_11
REMARK    4  A    between atoms: C_9  and  O_10
REMARK    5  A    between atoms: N_11  and  S_12
REMARK    6  A    between atoms: S_12  and  C_15
REMARK    7  A    between atoms: C_20  and  N_21
REMARK                            x       y       z     vdW  Elec       q    Type
REMARK                         _______ _______ _______ _____ _____    ______ ____
ROOT
ATOM      1  S   UNL     1       1.715  -3.911  -0.509  0.00  0.00    +0.061 S 
ATOM      2  O   UNL     1       0.616  -4.491   0.181  0.00  0.00    -0.153 OA
ATOM      3  O   UNL     1       1.932  -4.109  -1.899  0.00  0.00    -0.153 OA
ENDROOT
BRANCH   1   4
ATOM      4  C   UNL     1       3.173  -4.462   0.312  0.00  0.00    +0.127 A 
ATOM      5  C   UNL     1       3.087  -5.409   1.314  0.00  0.00    +0.045 A 
ATOM      6  C   UNL     1       4.231  -5.842   1.959  0.00  0.00    +0.020 A 
ATOM      7  C   UNL     1       5.466  -5.329   1.603  0.00  0.00    +0.017 A 
ATOM      8  C   UNL     1       5.559  -4.382   0.602  0.00  0.00    +0.026 A 
ATOM      9  C   UNL     1       4.412  -3.949  -0.051  0.00  0.00    +0.051 A 
ATOM     10 BR   UNL     1       4.108  -7.138   3.331  0.00  0.00    -0.050 Br
BRANCH   9  11
ATOM     11  N   UNL     1       4.503  -2.996  -1.069  0.00  0.00    -0.356 N 
ATOM     12  H   UNL     1       3.697  -2.633  -1.468  0.00  0.00    +0.142 HD
ATOM     13  H   UNL     1       5.373  -2.696  -1.376  0.00  0.00    +0.142 HD
ENDBRANCH   9  11
ENDBRANCH   1   4
BRANCH   1  14
ATOM     14  N   UNL     1       1.610  -2.275  -0.275  0.00  0.00    -0.182 NA
ATOM     15  H   UNL     1       1.954  -1.665  -0.946  0.00  0.00    +0.149 HD
BRANCH  14  21
ATOM     16  C   UNL     1       0.497   1.876  -0.256  0.00  0.00    +0.007 C 
ATOM     17  C   UNL     1       0.385   0.350  -0.265  0.00  0.00    -0.012 C 
ATOM     18  C   UNL     1      -1.090  -0.054  -0.219  0.00  0.00    +0.003 C 
ATOM     19  C   UNL     1      -1.201  -1.580  -0.228  0.00  0.00    +0.002 C 
ATOM     20  C   UNL     1      -0.478  -2.151   0.993  0.00  0.00    +0.026 C 
ATOM     21  C   UNL     1       0.997  -1.747   0.947  0.00  0.00    +0.063 C 
ATOM     22  C   UNL     1       1.108  -0.222   0.956  0.00  0.00    +0.029 C 
BRANCH  21  23
ATOM     23  C   UNL     1       1.720  -2.319   2.168  0.00  0.00    +0.179 C 
BRANCH  23  24
ATOM     24  O   UNL     1       1.476  -3.724   2.252  0.00  0.00    -0.393 OA
ATOM     25  H   UNL     1       1.905  -4.154   3.005  0.00  0.00    +0.209 HD
ENDBRANCH  23  24
ENDBRANCH  21  23
ENDBRANCH  14  21
ENDBRANCH   1  14
TORSDOF 6
