REMARK  Name = ZINC67026458
REMARK  8 active torsions:
REMARK  status: ('A' for Active; 'I' for Inactive)
REMARK    1  A    between atoms: C_1  and  N_2
REMARK    2  A    between atoms: N_2  and  O_25
REMARK    3  A    between atoms: C_3  and  C_5
REMARK    4  A    between atoms: C_8  and  N_11
REMARK    5  A    between atoms: C_12  and  C_14
REMARK    6  A    between atoms: C_14  and  O_15
REMARK    7  A    between atoms: O_15  and  C_16
REMARK    8  A    between atoms: O_25  and  C_26
REMARK                            x       y       z     vdW  Elec       q    Type
REMARK                         _______ _______ _______ _____ _____    ______ ____
ROOT
ATOM      1  N   UNL     1      -1.560  -6.243   0.099  0.00  0.00    -0.283 N 
ATOM      2  C   UNL     1      -1.778  -7.076   1.136  0.00  0.00    +0.255 C 
ATOM      3  O   UNL     1      -1.776  -6.645   2.270  0.00  0.00    -0.272 OA
ATOM      4  H   UNL     1      -1.632  -6.572  -0.811  0.00  0.00    +0.155 HD
ENDROOT
BRANCH   1   8
ATOM      5  C   UNL     1      -0.574  -2.257   0.799  0.00  0.00    +0.039 A 
ATOM      6  C   UNL     1      -0.119  -3.253   1.666  0.00  0.00    +0.015 A 
ATOM      7  C   UNL     1      -0.447  -4.570   1.433  0.00  0.00    +0.024 A 
ATOM      8  C   UNL     1      -1.230  -4.909   0.333  0.00  0.00    +0.034 A 
ATOM      9  C   UNL     1      -1.684  -3.919  -0.533  0.00  0.00    +0.024 A 
ATOM     10  C   UNL     1      -1.365  -2.600  -0.301  0.00  0.00    +0.015 A 
BRANCH   5  13
ATOM     11  C   UNL     1      -0.158   1.490   0.351  0.00  0.00    +0.167 C 
ATOM     12  N   UNL     1      -0.376   0.069   0.067  0.00  0.00    -0.180 N 
ATOM     13  C   UNL     1      -0.225  -0.844   1.047  0.00  0.00    +0.269 C 
ATOM     14  O   UNL     1       0.199  -0.505   2.134  0.00  0.00    -0.268 OA
BRANCH  12  15
ATOM     15  O   UNL     1      -0.744  -0.344  -1.236  0.00  0.00    -0.280 OA
ATOM     16  C   UNL     1       0.361  -0.523  -2.124  0.00  0.00    +0.227 C 
ENDBRANCH  12  15
ENDBRANCH   5  13
ENDBRANCH   1   8
BRANCH   2  17
ATOM     17  C   UNL     1      -2.022  -8.542   0.887  0.00  0.00    +0.324 C 
BRANCH  17  18
ATOM     18  O   UNL     1      -2.225  -9.210   2.134  0.00  0.00    -0.483 OA
BRANCH  18  19
ATOM     19  C   UNL     1      -2.460 -10.547   2.086  0.00  0.00    +0.121 A 
ATOM     20  C   UNL     1      -2.490 -11.205   0.865  0.00  0.00    +0.046 A 
ATOM     21  C   UNL     1      -2.729 -12.564   0.822  0.00  0.00    +0.007 A 
ATOM     22  C   UNL     1      -2.941 -13.274   1.993  0.00  0.00    -0.044 A 
ATOM     23  C   UNL     1      -2.911 -12.620   3.211  0.00  0.00    -0.041 A 
ATOM     24  C   UNL     1      -2.665 -11.259   3.258  0.00  0.00    +0.049 A 
ATOM     25  C   UNL     1      -3.169 -13.608   4.328  0.00  0.00    +0.036 C 
ATOM     26  C   UNL     1      -3.788 -14.843   3.640  0.00  0.00    +0.009 C 
ATOM     27  C   UNL     1      -3.219 -14.746   2.209  0.00  0.00    +0.036 C 
ENDBRANCH  18  19
ENDBRANCH  17  18
ENDBRANCH   2  17
TORSDOF 6
