REMARK  Name = ZINC08719619
REMARK  5 active torsions:
REMARK  status: ('A' for Active; 'I' for Inactive)
REMARK    1  A    between atoms: C_3  and  C_6
REMARK    2  A    between atoms: C_8  and  C_11
REMARK    3  A    between atoms: C_11  and  S_12
REMARK    4  A    between atoms: S_12  and  C_13
REMARK    5  A    between atoms: N_18  and  C_19
REMARK                            x       y       z     vdW  Elec       q    Type
REMARK                         _______ _______ _______ _____ _____    ______ ____
ROOT
ATOM      1  C   UNL     1       1.113  -4.394   4.483  0.00  0.00    +0.160 A 
ATOM      2  N   UNL     1       1.117  -3.094   4.710  0.00  0.00    -0.133 NA
ATOM      3  N   UNL     1       1.006  -2.215   3.658  0.00  0.00    -0.125 NA
ATOM      4  C   UNL     1       0.888  -2.676   2.428  0.00  0.00    +0.183 A 
ATOM      5  S   UNL     1       0.940  -4.439   2.706  0.00  0.00    -0.025 S 
ATOM      6  N   UNL     1       0.762  -1.976   1.234  0.00  0.00    -0.319 N 
ATOM      7  H   UNL     1       0.687  -2.457   0.395  0.00  0.00    +0.148 HD
ENDROOT
BRANCH   6   8
ATOM      8  C   UNL     1       0.742  -0.511   1.242  0.00  0.00    +0.072 C 
ATOM      9  C   UNL     1       0.002  -0.004   0.002  0.00  0.00    +0.022 C 
ATOM     10  C   UNL     1      -0.019   1.526   0.010  0.00  0.00    +0.002 C 
ATOM     11  C   UNL     1       1.417   2.055  -0.000  0.00  0.00    +0.000 C 
ATOM     12  C   UNL     1       2.157   1.548   1.239  0.00  0.00    +0.002 C 
ATOM     13  C   UNL     1       2.178   0.019   1.231  0.00  0.00    +0.022 C 
ENDBRANCH   6   8
BRANCH   1  14
ATOM     14  S   UNL     1       1.243  -5.727   5.627  0.00  0.00    -0.091 S 
BRANCH  14  15
ATOM     15  C   UNL     1       1.389  -4.910   7.240  0.00  0.00    +0.135 C 
BRANCH  15  18
ATOM     16  C   UNL     1       1.084  -7.415   9.893  0.00  0.00    +0.174 A 
ATOM     17  C   UNL     1       0.454  -6.544   9.040  0.00  0.00    +0.077 A 
ATOM     18  C   UNL     1       1.510  -5.951   8.322  0.00  0.00    +0.094 A 
ATOM     19  N   UNL     1       2.613  -6.474   8.780  0.00  0.00    -0.082 NA
ATOM     20  O   UNL     1       2.402  -7.287   9.650  0.00  0.00    -0.354 OA
BRANCH  16  23
ATOM     21  C   UNL     1       0.227  -9.922  12.594  0.00  0.00    +0.008 A 
ATOM     22  C   UNL     1       1.039  -9.194  11.756  0.00  0.00    +0.019 A 
ATOM     23  C   UNL     1       0.450  -8.303  10.878  0.00  0.00    +0.057 A 
ATOM     24  S   UNL     1      -1.284  -8.520  11.246  0.00  0.00    -0.093 S 
ATOM     25  C   UNL     1      -1.120  -9.753  12.526  0.00  0.00    +0.046 A 
ENDBRANCH  16  23
ENDBRANCH  15  18
ENDBRANCH  14  15
ENDBRANCH   1  14
TORSDOF 5
