REMARK  Name = ZINC35920839
REMARK  2 active torsions:
REMARK  status: ('A' for Active; 'I' for Inactive)
REMARK    1  A    between atoms: C_4  and  C_8
REMARK    2  A    between atoms: CA_17  and  C_20
REMARK                            x       y       z     vdW  Elec       q    Type
REMARK                         _______ _______ _______ _____ _____    ______ ____
ROOT
ATOM      1  C   UNL     1       3.713  -0.707  -0.038  0.00  0.00    +0.136 C 
ATOM      2  C   UNL     1       4.044  -1.190   1.349  0.00  0.00    +0.060 A 
ATOM      3  C   UNL     1       4.518  -2.426   1.622  0.00  0.00    +0.066 A 
ATOM      4  N   UNL     1       4.698  -2.519   2.939  0.00  0.00    -0.240 NA
ATOM      5  C   UNL     1       4.356  -1.387   3.499  0.00  0.00    +0.197 A 
ATOM      6  N   UNL     1       3.943  -0.531   2.534  0.00  0.00    -0.346 N 
ATOM      7  H   UNL     1       3.633   0.379   2.664  0.00  0.00    +0.167 HD
ATOM      8  C   UNL     1       4.774  -3.463   0.555  0.00  0.00    +0.087 C 
ATOM      9  CA  UNL     1       4.796  -2.746  -0.802  0.00  0.00    +0.174 C 
ATOM     10  N   UNL     1       3.615  -1.880  -0.925  0.00  0.00    -0.292 NA
ATOM     11  H   UNL     1       2.768  -2.398  -0.746  0.00  0.00    +0.124 HD
ENDROOT
BRANCH   1  15
ATOM     12  C   UNL     1      -0.017   1.378   0.012  0.00  0.00    +0.003 A 
ATOM     13  C   UNL     1       0.022   0.025   0.290  0.00  0.00    +0.020 A 
ATOM     14  C   UNL     1       1.229  -0.651   0.274  0.00  0.00    +0.047 A 
ATOM     15  C   UNL     1       2.398   0.028  -0.021  0.00  0.00    +0.012 A 
ATOM     16  C   UNL     1       2.358   1.383  -0.300  0.00  0.00    +0.047 A 
ATOM     17  C   UNL     1       1.151   2.057  -0.283  0.00  0.00    +0.020 A 
ATOM     18 CL   UNL     1       3.825   2.236  -0.670  0.00  0.00    -0.083 Cl
ATOM     19 CL   UNL     1       1.278  -2.350   0.625  0.00  0.00    -0.083 Cl
ENDBRANCH   1  15
BRANCH   9  20
ATOM     20  C   UNL     1       4.784  -3.768  -1.910  0.00  0.00    +0.373 C 
ATOM     21  O   UNL     1       3.794  -3.898  -2.609  0.00  0.00    -0.245 OA
ATOM     22  OXT UNL     1       5.765  -4.465  -2.106  0.00  0.00    -0.245 OA
ENDBRANCH   9  20
TORSDOF 2
