REMARK  Name = ZINC11754682
REMARK  5 active torsions:
REMARK  status: ('A' for Active; 'I' for Inactive)
REMARK    1  A    between atoms: C_7  and  C_11
REMARK    2  A    between atoms: C_11  and  C_12
REMARK    3  A    between atoms: C_12  and  C_14
REMARK    4  A    between atoms: C_12  and  N_43
REMARK    5  A    between atoms: N_16  and  C_17
REMARK                            x       y       z     vdW  Elec       q    Type
REMARK                         _______ _______ _______ _____ _____    ______ ____
ROOT
ATOM      1  C   UNL     1      -2.479   1.071   0.141  0.00  0.00    +0.017 C 
ENDROOT
BRANCH   1   2
ATOM      2  C   UNL     1      -1.126   1.723   0.016  0.00  0.00    +0.203 C 
ATOM      3  O   UNL     1      -1.041   2.929  -0.076  0.00  0.00    -0.277 OA
ATOM      4  N   UNL     1      -0.011   0.966   0.007  0.00  0.00    -0.285 N 
ATOM      5  H   UNL     1      -0.082  -0.002   0.015  0.00  0.00    +0.155 HD
BRANCH   4   6
ATOM      6  C   UNL     1       1.246   1.574  -0.019  0.00  0.00    +0.060 A 
ATOM      7  C   UNL     1       1.434   2.749  -0.713  0.00  0.00    +0.025 A 
ATOM      8  C   UNL     1       2.681   3.366  -0.748  0.00  0.00    +0.003 A 
ATOM      9  C   UNL     1       3.748   2.825  -0.097  0.00  0.00    +0.010 A 
ATOM     10  C   UNL     1       3.597   1.629   0.622  0.00  0.00    +0.002 A 
ATOM     11  C   UNL     1       2.333   0.993   0.670  0.00  0.00    +0.092 A 
ATOM     12  N   UNL     1       2.186  -0.148   1.349  0.00  0.00    -0.253 NA
ATOM     13  C   UNL     1       3.192  -0.696   1.987  0.00  0.00    +0.111 A 
ATOM     14  C   UNL     1       4.461  -0.120   1.985  0.00  0.00    +0.020 A 
ATOM     15  C   UNL     1       4.681   1.044   1.305  0.00  0.00    +0.011 A 
ENDBRANCH   4   6
ENDBRANCH   1   2
BRANCH   1  18
ATOM     16  H   UNL     1      -3.234   2.392   1.527  0.00  0.00    -0.089 HD
ATOM     17  H   UNL     1      -3.530   2.830  -0.050  0.00  0.00    -0.089 HD
ATOM     18  N   UNL     1      -3.481   2.048   0.601  0.00  0.00    +0.386 N 
ATOM     19  H   UNL     1      -4.400   1.593   0.647  0.00  0.00    -0.089 HD
ENDBRANCH   1  18
BRANCH   1  20
ATOM     20  C   UNL     1      -2.908   0.522  -1.222  0.00  0.00    +0.030 C 
BRANCH  20  27
ATOM     21  C   UNL     1      -7.410   1.830  -1.214  0.00  0.00    +0.001 A 
ATOM     22  C   UNL     1      -8.282   0.764  -1.043  0.00  0.00    +0.002 A 
ATOM     23  C   UNL     1      -7.803  -0.520  -0.897  0.00  0.00    +0.026 A 
ATOM     24  C   UNL     1      -6.432  -0.752  -0.920  0.00  0.00    +0.047 A 
ATOM     25  C   UNL     1      -5.552   0.331  -1.094  0.00  0.00    +0.003 A 
ATOM     26  C   UNL     1      -6.059   1.624  -1.240  0.00  0.00    +0.010 A 
ATOM     27  C   UNL     1      -4.202  -0.236  -1.073  0.00  0.00    -0.023 A 
ATOM     28  C   UNL     1      -4.335  -1.561  -0.903  0.00  0.00    +0.087 A 
ATOM     29  N   UNL     1      -5.661  -1.887  -0.804  0.00  0.00    -0.360 N 
ATOM     30  H   UNL     1      -6.005  -2.784  -0.675  0.00  0.00    +0.165 HD
ENDBRANCH  20  27
ENDBRANCH   1  20
TORSDOF 5
