REMARK  Name = ZINC01962983
REMARK  13 active torsions:
REMARK  status: ('A' for Active; 'I' for Inactive)
REMARK    1  A    between atoms: C_1  and  C_2
REMARK    2  A    between atoms: C_2  and  C_3
REMARK    3  A    between atoms: C_3  and  C_5
REMARK    4  A    between atoms: C_3  and  N_6
REMARK    5  A    between atoms: C_12  and  C_17
REMARK    6  A    between atoms: C_17  and  O_19
REMARK    7  A    between atoms: O_19  and  C_20
REMARK    8  A    between atoms: C_20  and  C_21
REMARK    9  A    between atoms: N_23  and  C_24
REMARK   10  A    between atoms: C_25  and  C_35
REMARK   11  A    between atoms: C_30  and  C_34
REMARK   12  A    between atoms: C_35  and  O_37
REMARK   13  A    between atoms: O_37  and  C_38
REMARK                            x       y       z     vdW  Elec       q    Type
REMARK                         _______ _______ _______ _____ _____    ______ ____
ROOT
ATOM      1  C   UNL     1       1.268   2.019   0.001  0.00  0.00    +0.328 C 
ENDROOT
BRANCH   1   2
ATOM      2  C   UNL     1       1.051   3.511   0.011  0.00  0.00    +0.255 C 
ATOM      3  O   UNL     1      -0.076   3.959   0.024  0.00  0.00    -0.272 OA
ATOM      4  N   UNL     1       2.108   4.346   0.005  0.00  0.00    -0.277 N 
ATOM      5  H   UNL     1       3.010   3.988  -0.005  0.00  0.00    +0.155 HD
BRANCH   4   6
ATOM      6  C   UNL     1       1.908   5.718   0.015  0.00  0.00    +0.086 A 
ATOM      7  C   UNL     1       2.860   6.729   0.017  0.00  0.00    +0.091 A 
ATOM      8  C   UNL     1       2.381   8.101   0.023  0.00  0.00    -0.021 A 
ATOM      9  C   UNL     1       1.038   8.242   0.037  0.00  0.00    -0.004 A 
ATOM     10  S   UNL     1       0.409   6.587   0.034  0.00  0.00    -0.077 S 
ATOM     11  C   UNL     1       0.265   9.524   0.050  0.00  0.00    +0.046 C 
ATOM     12  C   UNL     1       1.216  10.667  -0.332  0.00  0.00    -0.009 C 
ATOM     13  C   UNL     1       2.500  10.536   0.492  0.00  0.00    +0.008 C 
ATOM     14  C   UNL     1       3.298   9.318   0.022  0.00  0.00    +0.037 C 
ATOM     15  C   UNL     1       0.549  12.011  -0.033  0.00  0.00    +0.008 C 
BRANCH   7  16
ATOM     16  C   UNL     1       4.292   6.424   0.008  0.00  0.00    +0.342 C 
ATOM     17  O   UNL     1       4.883   6.304  -1.048  0.00  0.00    -0.245 OA
BRANCH  16  18
ATOM     18  O   UNL     1       4.957   6.276   1.173  0.00  0.00    -0.464 OA
ATOM     19  C   UNL     1       6.375   5.974   1.089  0.00  0.00    +0.280 C 
ENDBRANCH  16  18
ENDBRANCH   7  16
ENDBRANCH   4   6
ENDBRANCH   1   2
BRANCH   1  20
ATOM     20  O   UNL     1      -0.016   1.343   0.009  0.00  0.00    -0.452 OA
BRANCH  20  21
ATOM     21  C   UNL     1       0.002  -0.004   0.002  0.00  0.00    +0.340 C 
ATOM     22  O   UNL     1       1.062  -0.597  -0.011  0.00  0.00    -0.245 OA
BRANCH  21  29
ATOM     23  N   UNL     1      -4.131  -4.413   0.015  0.00  0.00    -0.231 N 
ATOM     24  C   UNL     1      -4.721  -3.204   0.029  0.00  0.00    +0.254 C 
ATOM     25  O   UNL     1      -5.918  -3.001   0.042  0.00  0.00    -0.270 OA
ATOM     26  C   UNL     1      -3.667  -2.165   0.025  0.00  0.00    +0.049 A 
ATOM     27  C   UNL     1      -3.679  -0.779   0.033  0.00  0.00    +0.014 A 
ATOM     28  C   UNL     1      -2.485  -0.078   0.025  0.00  0.00    +0.016 A 
ATOM     29  C   UNL     1      -1.269  -0.761   0.010  0.00  0.00    +0.060 A 
ATOM     30  C   UNL     1      -1.248  -2.159  -0.004  0.00  0.00    +0.028 A 
ATOM     31  C   UNL     1      -2.441  -2.861   0.009  0.00  0.00    +0.050 A 
ATOM     32  C   UNL     1      -2.791  -4.297   0.004  0.00  0.00    +0.254 C 
ATOM     33  O   UNL     1      -2.000  -5.219  -0.009  0.00  0.00    -0.270 OA
BRANCH  23  34
ATOM     34  C   UNL     1      -4.852  -5.688   0.014  0.00  0.00    +0.081 C 
ATOM     35  C   UNL     1      -5.719  -5.785   1.271  0.00  0.00    +0.028 C 
BRANCH  34  37
ATOM     36  C   UNL     1      -4.868  -5.797  -2.482  0.00  0.00    +0.006 C 
ATOM     37  C   UNL     1      -5.743  -5.768  -1.227  0.00  0.00    +0.019 C 
ENDBRANCH  34  37
ENDBRANCH  23  34
ENDBRANCH  21  29
ENDBRANCH  20  21
ENDBRANCH   1  20
TORSDOF 9
