REMARK  Name = ZINC63541288
REMARK  9 active torsions:
REMARK  status: ('A' for Active; 'I' for Inactive)
REMARK    1  A    between atoms: C_1  and  C_2
REMARK    2  A    between atoms: C_2  and  C_3
REMARK    3  A    between atoms: C_6  and  N_9
REMARK    4  A    between atoms: C_10  and  C_12
REMARK    5  A    between atoms: C_12  and  S_13
REMARK    6  A    between atoms: S_13  and  C_14
REMARK    7  A    between atoms: N_25  and  C_26
REMARK    8  A    between atoms: C_26  and  C_27
REMARK    9  A    between atoms: C_27  and  C_28
REMARK                            x       y       z     vdW  Elec       q    Type
REMARK                         _______ _______ _______ _____ _____    ______ ____
ROOT
ATOM      1  C   UNL     1       7.205  -2.860  -7.246  0.00  0.00    +0.223 C 
ATOM      2  N   UNL     1       6.863  -1.835  -8.238  0.00  0.00    -0.300 N 
ATOM      3  C   UNL     1       5.580  -1.810  -8.759  0.00  0.00    +0.151 A 
ATOM      4  C   UNL     1       4.874  -3.024  -8.849  0.00  0.00    +0.165 A 
ATOM      5  N   UNL     1       3.654  -3.041  -9.367  0.00  0.00    -0.246 NA
ATOM      6  C   UNL     1       3.106  -1.915  -9.781  0.00  0.00    +0.131 A 
ATOM      7  C   UNL     1       3.796  -0.716  -9.680  0.00  0.00    +0.132 A 
ATOM      8  N   UNL     1       5.017  -0.686  -9.172  0.00  0.00    -0.237 NA
ATOM      9  C   UNL     1       5.518  -4.254  -8.344  0.00  0.00    +0.270 C 
ATOM     10  O   UNL     1       5.011  -5.340  -8.548  0.00  0.00    -0.268 OA
ATOM     11  N   UNL     1       6.669  -4.158  -7.656  0.00  0.00    -0.268 N 
ATOM     12  H   UNL     1       7.524  -1.185  -8.523  0.00  0.00    +0.150 HD
ENDROOT
BRANCH   1  13
ATOM     13  S   UNL     1       6.501  -2.400  -5.639  0.00  0.00    -0.110 S 
BRANCH  13  14
ATOM     14  C   UNL     1       4.715  -2.327  -5.947  0.00  0.00    +0.168 C 
BRANCH  14  16
ATOM     15  N   UNL     1       2.657  -1.834  -4.665  0.00  0.00    -0.285 N 
ATOM     16  C   UNL     1       4.000  -1.949  -4.676  0.00  0.00    +0.227 C 
ATOM     17  O   UNL     1       4.634  -1.749  -3.661  0.00  0.00    -0.275 OA
ATOM     18  H   UNL     1       2.145  -2.067  -5.455  0.00  0.00    +0.155 HD
BRANCH  15  22
ATOM     19  C   UNL     1       0.708  -0.471  -1.245  0.00  0.00    -0.048 A 
ATOM     20  C   UNL     1       1.965   0.011  -1.561  0.00  0.00    +0.005 A 
ATOM     21  C   UNL     1       2.614  -0.438  -2.695  0.00  0.00    +0.023 A 
ATOM     22  C   UNL     1       2.003  -1.377  -3.516  0.00  0.00    +0.033 A 
ATOM     23  C   UNL     1       0.741  -1.860  -3.195  0.00  0.00    +0.023 A 
ATOM     24  C   UNL     1       0.100  -1.410  -2.058  0.00  0.00    +0.005 A 
BRANCH  19  26
ATOM     25  C   UNL     1       0.372  -0.872   1.179  0.00  0.00    +0.009 C 
ATOM     26  C   UNL     1       0.003   0.021  -0.007  0.00  0.00    +0.032 C 
ENDBRANCH  19  26
ENDBRANCH  15  22
ENDBRANCH  14  16
ENDBRANCH  13  14
ENDBRANCH   1  13
BRANCH  11  27
ATOM     27  C   UNL     1       7.398  -5.381  -7.309  0.00  0.00    +0.115 C 
BRANCH  27  28
ATOM     28  C   UNL     1       6.917  -5.894  -5.950  0.00  0.00    +0.052 C 
BRANCH  28  29
ATOM     29  C   UNL     1       7.667  -7.151  -5.594  0.00  0.00    -0.040 C 
ATOM     30  C   UNL     1       8.777  -7.246  -4.827  0.00  0.00    -0.001 A 
ATOM     31  C   UNL     1       9.587  -6.246  -4.122  0.00  0.00    +0.010 A 
ATOM     32  C   UNL     1      10.668  -6.654  -3.418  0.00  0.00    +0.001 A 
ATOM     33  C   UNL     1      11.032  -8.005  -3.346  0.00  0.00    +0.002 A 
ATOM     34  C   UNL     1      10.338  -8.982  -3.966  0.00  0.00    +0.026 A 
ATOM     35  C   UNL     1       9.183  -8.667  -4.734  0.00  0.00    +0.043 A 
ATOM     36  N   UNL     1       8.357  -9.421  -5.418  0.00  0.00    -0.380 N 
ATOM     37  C   UNL     1       7.328  -8.563  -6.017  0.00  0.00    +0.144 C 
ATOM     38  H   UNL     1       8.413 -10.385  -5.509  0.00  0.00    +0.160 HD
ENDBRANCH  28  29
ENDBRANCH  27  28
ENDBRANCH  11  27
TORSDOF 8
