REMARK  Name = ZINC02474446
REMARK  3 active torsions:
REMARK  status: ('A' for Active; 'I' for Inactive)
REMARK    1  A    between atoms: C_6  and  S_7
REMARK    2  A    between atoms: S_7  and  N_10
REMARK    3  A    between atoms: CA_18  and  C_21
REMARK                            x       y       z     vdW  Elec       q    Type
REMARK                         _______ _______ _______ _____ _____    ______ ____
ROOT
ATOM      1  C   UNL     1       3.538   1.798  -0.435  0.00  0.00    +0.030 A 
ATOM      2  C   UNL     1       2.354   1.086  -0.420  0.00  0.00    +0.025 A 
ATOM      3  C   UNL     1       1.181   1.699  -0.000  0.00  0.00    +0.032 A 
ATOM      4  C   UNL     1       1.186   3.024   0.408  0.00  0.00    -0.018 A 
ATOM      5  C   UNL     1       2.382   3.728   0.388  0.00  0.00    +0.034 A 
ATOM      6  C   UNL     1       3.548   3.120  -0.031  0.00  0.00    +0.105 A 
ATOM      7  C   UNL     1      -0.051   3.723   0.874  0.00  0.00    +0.049 C 
ATOM      8  C   UNL     1      -0.573   4.678  -0.174  0.00  0.00    -0.023 C 
ATOM      9  C   UNL     1      -1.883   4.684  -0.170  0.00  0.00    -0.030 C 
ATOM     10  C   UNL     1      -2.416   3.737   0.888  0.00  0.00    +0.033 C 
ATOM     11  C   UNL     1      -1.227   2.760   1.127  0.00  0.00    +0.035 C 
ATOM     12  CA  UNL     1      -1.281   1.700   0.017  0.00  0.00    +0.188 C 
ATOM     13  N   UNL     1      -0.011   0.966   0.007  0.00  0.00    -0.331 N 
ATOM     14  H   UNL     1       0.002  -0.004   0.002  0.00  0.00    +0.147 HD
ENDROOT
BRANCH   6  15
ATOM     15  S   UNL     1       5.055   4.031  -0.050  0.00  0.00    +0.056 S 
ATOM     16  O   UNL     1       5.901   3.397  -0.999  0.00  0.00    -0.153 OA
ATOM     17  O   UNL     1       4.699   5.404  -0.144  0.00  0.00    -0.153 OA
BRANCH  15  18
ATOM     18  N   UNL     1       5.769   3.828   1.431  0.00  0.00    -0.204 NA
ATOM     19  H   UNL     1       5.338   3.282   2.106  0.00  0.00    +0.144 HD
ATOM     20  H   UNL     1       6.619   4.255   1.622  0.00  0.00    +0.144 HD
ENDBRANCH  15  18
ENDBRANCH   6  15
BRANCH  12  21
ATOM     21  C   UNL     1      -2.414   0.744   0.285  0.00  0.00    +0.376 C 
ATOM     22  O   UNL     1      -2.193  -0.327   0.799  0.00  0.00    -0.244 OA
ATOM     23  OXT UNL     1      -3.670   1.082  -0.048  0.00  0.00    -0.244 OA
ENDBRANCH  12  21
TORSDOF 3
