REMARK  Name = ZINC39671468
REMARK  5 active torsions:
REMARK  status: ('A' for Active; 'I' for Inactive)
REMARK    1  A    between atoms: C_1  and  C_2
REMARK    2  A    between atoms: C_2  and  C_8
REMARK    3  A    between atoms: C_12  and  C_21
REMARK    4  A    between atoms: N_23  and  C_24
REMARK    5  A    between atoms: C_24  and  C_25
REMARK                            x       y       z     vdW  Elec       q    Type
REMARK                         _______ _______ _______ _____ _____    ______ ____
ROOT
ATOM      1  C   UNL     1       0.617  -0.534  -1.339  0.00  0.00    +0.222 C 
ATOM      2  O   UNL     1       1.576  -1.276  -1.336  0.00  0.00    -0.275 OA
ATOM      3  N   UNL     1       0.098  -0.109  -2.508  0.00  0.00    -0.300 N 
ATOM      4  C   UNL     1      -0.992   0.874  -2.713  0.00  0.00    +0.121 C 
ATOM      5  C   UNL     1      -0.547   1.700  -3.941  0.00  0.00    +0.100 C 
ATOM      6  C   UNL     1       0.422   0.780  -4.702  0.00  0.00    -0.004 C 
ATOM      7  C   UNL     1       0.492  -0.514  -3.878  0.00  0.00    +0.115 C 
ATOM      8  C   UNL     1      -0.113   0.490  -6.100  0.00  0.00    -0.010 C 
ATOM      9  C   UNL     1       0.895  -0.379  -6.858  0.00  0.00    -0.082 C 
ATOM     10  N   UNL     1       2.182   0.322  -6.941  0.00  0.00    +0.379 N 
ATOM     11  C   UNL     1       2.735   0.515  -5.595  0.00  0.00    -0.082 C 
ATOM     12  C   UNL     1       1.804   1.421  -4.784  0.00  0.00    -0.010 C 
ATOM     13  H   UNL     1       2.826  -0.225  -7.493  0.00  0.00    -0.086 HD
ATOM     14  H   UNL     1       2.047   1.220  -7.380  0.00  0.00    -0.086 HD
ENDROOT
BRANCH   1  16
ATOM     15  C   UNL     1       0.247   1.413   0.152  0.00  0.00    +0.021 C 
ATOM     16  C   UNL     1       0.007  -0.086  -0.036  0.00  0.00    +0.044 C 
ATOM     17  C   UNL     1      -1.498  -0.363  -0.056  0.00  0.00    +0.016 C 
ATOM     18  C   UNL     1      -1.738  -1.862  -0.244  0.00  0.00    +0.001 C 
ATOM     19  C   UNL     1      -1.094  -2.631   0.912  0.00  0.00    +0.000 C 
ATOM     20  C   UNL     1       0.411  -2.354   0.932  0.00  0.00    +0.001 C 
ATOM     21  C   UNL     1       0.651  -0.855   1.120  0.00  0.00    +0.016 C 
ENDBRANCH   1  16
BRANCH   5  22
ATOM     22  C   UNL     1      -1.735   2.042  -4.802  0.00  0.00    +0.219 C 
ATOM     23  O   UNL     1      -2.663   1.267  -4.890  0.00  0.00    -0.275 OA
ATOM     24  N   UNL     1      -1.766   3.210  -5.474  0.00  0.00    -0.309 N 
ATOM     25  H   UNL     1      -1.023   3.830  -5.404  0.00  0.00    +0.149 HD
BRANCH  24  26
ATOM     26  C   UNL     1      -2.921   3.542  -6.312  0.00  0.00    +0.157 C 
BRANCH  26  27
ATOM     27  C   UNL     1      -2.708   4.892  -6.949  0.00  0.00    +0.034 A 
ATOM     28  H   UNL     1      -3.389   6.201  -5.479  0.00  0.00    +0.166 HD
ATOM     29  C   UNL     1      -2.201   5.093  -8.175  0.00  0.00    +0.032 A 
ATOM     30  C   UNL     1      -2.168   6.542  -8.392  0.00  0.00    -0.000 A 
ATOM     31  C   UNL     1      -1.757   7.356  -9.449  0.00  0.00    +0.010 A 
ATOM     32  C   UNL     1      -1.859   8.714  -9.339  0.00  0.00    +0.001 A 
ATOM     33  C   UNL     1      -2.367   9.291  -8.184  0.00  0.00    +0.002 A 
ATOM     34  C   UNL     1      -2.779   8.507  -7.128  0.00  0.00    +0.026 A 
ATOM     35  C   UNL     1      -2.684   7.122  -7.219  0.00  0.00    +0.047 A 
ATOM     36  N   UNL     1      -3.008   6.092  -6.364  0.00  0.00    -0.357 N 
ENDBRANCH  26  27
ENDBRANCH  24  26
ENDBRANCH   5  22
TORSDOF 4
