REMARK  Name = ZINC44215735
REMARK  6 active torsions:
REMARK  status: ('A' for Active; 'I' for Inactive)
REMARK    1  A    between atoms: C_4  and  N_14
REMARK    2  A    between atoms: C_5  and  C_7
REMARK    3  A    between atoms: C_7  and  C_9
REMARK    4  A    between atoms: C_7  and  N_13
REMARK    5  A    between atoms: C_9  and  C_10
REMARK    6  A    between atoms: C_23  and  C_26
REMARK                            x       y       z     vdW  Elec       q    Type
REMARK                         _______ _______ _______ _____ _____    ______ ____
ROOT
ATOM      1  N   UNL     1       3.632  -0.633   0.188  0.00  0.00    -0.327 N 
ATOM      2  C   UNL     1       4.160  -1.193  -1.064  0.00  0.00    +0.124 C 
ATOM      3  C   UNL     1       5.570  -0.635  -1.294  0.00  0.00    +0.125 C 
ATOM      4  N   UNL     1       6.348  -0.803  -0.059  0.00  0.00    -0.312 N 
ATOM      5  C   UNL     1       5.820  -0.244   1.193  0.00  0.00    +0.125 C 
ATOM      6  C   UNL     1       4.413  -0.796   1.422  0.00  0.00    +0.124 C 
ATOM      7  C   UNL     1       7.562  -1.480  -0.074  0.00  0.00    +0.121 A 
ATOM      8  C   UNL     1       8.155  -1.805  -1.290  0.00  0.00    +0.044 A 
ATOM      9  C   UNL     1       9.363  -2.478  -1.291  0.00  0.00    +0.017 A 
ATOM     10  C   UNL     1       9.940  -2.806  -0.071  0.00  0.00    +0.073 A 
ATOM     11  C   UNL     1       9.297  -2.453   1.097  0.00  0.00    +0.125 A 
ATOM     12  N   UNL     1       8.147  -1.806   1.068  0.00  0.00    -0.240 NA
ENDROOT
BRANCH   1  16
ATOM     13  C   UNL     1      -0.005   1.395   0.234  0.00  0.00    +0.000 A 
ATOM     14  C   UNL     1       1.169   2.088   0.001  0.00  0.00    +0.002 A 
ATOM     15  C   UNL     1       2.377   1.419  -0.014  0.00  0.00    +0.023 A 
ATOM     16  C   UNL     1       2.412   0.047   0.204  0.00  0.00    +0.031 A 
ATOM     17  C   UNL     1       1.231  -0.646   0.437  0.00  0.00    -0.040 A 
ATOM     18  C   UNL     1       0.027   0.030   0.451  0.00  0.00    +0.004 A 
BRANCH  17  19
ATOM     19  C   UNL     1       1.264  -2.134   0.673  0.00  0.00    -0.032 C 
BRANCH  19  20
ATOM     20  N   UNL     1       0.029  -2.550   1.350  0.00  0.00    +0.383 N 
ATOM     21  H   UNL     1       0.051  -3.546   1.508  0.00  0.00    -0.089 HD
ATOM     22  H   UNL     1      -0.049  -2.071   2.234  0.00  0.00    -0.089 HD
ATOM     23  H   UNL     1      -0.765  -2.319   0.772  0.00  0.00    -0.089 HD
ENDBRANCH  19  20
BRANCH  19  24
ATOM     24  C   UNL     1       1.381  -2.861  -0.668  0.00  0.00    +0.113 C 
BRANCH  24  25
ATOM     25  C   UNL     1       1.538  -4.340  -0.425  0.00  0.00    +0.355 C 
ATOM     26  O   UNL     1       1.555  -4.773   0.715  0.00  0.00    -0.246 OA
ATOM     27  O   UNL     1       1.648  -5.104  -1.369  0.00  0.00    -0.246 OA
ENDBRANCH  24  25
ENDBRANCH  19  24
ENDBRANCH  17  19
ENDBRANCH   1  16
BRANCH  10  28
ATOM     28  C   UNL     1      11.255  -3.541  -0.024  0.00  0.00    +0.419 C 
ATOM     29  F   UNL     1      12.305  -2.616  -0.004  0.00  0.00    -0.166 F 
ATOM     30  F   UNL     1      11.307  -4.330   1.129  0.00  0.00    -0.166 F 
ATOM     31  F   UNL     1      11.374  -4.357  -1.154  0.00  0.00    -0.166 F 
ENDBRANCH  10  28
TORSDOF 6
