REMARK  Name = ZINC01613869
REMARK  6 active torsions:
REMARK  status: ('A' for Active; 'I' for Inactive)
REMARK    1  A    between atoms: C_1  and  C_2
REMARK    2  A    between atoms: C_2  and  C_4
REMARK    3  A    between atoms: C_2  and  C_15
REMARK    4  A    between atoms: C_4  and  C_6
REMARK    5  A    between atoms: C_11  and  O_12
REMARK    6  A    between atoms: C_15  and  O_25
REMARK                            x       y       z     vdW  Elec       q    Type
REMARK                         _______ _______ _______ _____ _____    ______ ____
ROOT
ATOM      1  C   UNL     1      -3.884   2.623   1.302  0.00  0.00    +0.019 C 
ATOM      2  C   UNL     1      -3.202   3.992   1.310  0.00  0.00    +0.102 C 
ENDROOT
BRANCH   2   3
ATOM      3  C   UNL     1      -2.353   4.146   0.047  0.00  0.00    +0.178 C 
ATOM      4  C   UNL     1      -1.234   3.130   0.030  0.00  0.00    +0.015 A 
ATOM      5  C   UNL     1      -1.219   1.753   0.017  0.00  0.00    +0.009 A 
ATOM      6  C   UNL     1      -0.013   1.076   0.008  0.00  0.00    +0.000 A 
ATOM      7  C   UNL     1       1.175   1.785   0.000  0.00  0.00    +0.002 A 
ATOM      8  C   UNL     1       1.163   3.165   0.007  0.00  0.00    +0.024 A 
ATOM      9  C   UNL     1      -0.048   3.854   0.023  0.00  0.00    +0.040 A 
ATOM     10  N   UNL     1      -0.319   5.223   0.033  0.00  0.00    -0.282 N 
ATOM     11  C   UNL     1      -1.638   5.481   0.047  0.00  0.00    +0.254 C 
ATOM     12  O   UNL     1      -2.158   6.576   0.059  0.00  0.00    -0.272 OA
ATOM     13  H   UNL     1       0.366   5.909   0.030  0.00  0.00    +0.155 HD
BRANCH   3  14
ATOM     14  O   UNL     1      -3.166   4.014  -1.121  0.00  0.00    -0.374 OA
ATOM     15  H   UNL     1      -2.675   4.074  -1.951  0.00  0.00    +0.211 HD
ENDBRANCH   3  14
ENDBRANCH   2   3
BRANCH   2  16
ATOM     16  C   UNL     1      -4.249   5.075   1.346  0.00  0.00    +0.173 C 
ATOM     17  O   UNL     1      -4.691   5.527   0.311  0.00  0.00    -0.292 OA
BRANCH  16  18
ATOM     18  C   UNL     1      -4.735   5.583   2.635  0.00  0.00    +0.062 A 
ATOM     19  C   UNL     1      -4.233   5.061   3.833  0.00  0.00    +0.035 A 
ATOM     20  C   UNL     1      -4.690   5.546   5.039  0.00  0.00    +0.043 A 
ATOM     21  C   UNL     1      -5.654   6.543   5.072  0.00  0.00    +0.043 A 
ATOM     22  C   UNL     1      -6.162   7.064   3.898  0.00  0.00    +0.084 A 
ATOM     23  C   UNL     1      -5.711   6.592   2.674  0.00  0.00    +0.146 A 
ATOM     24 CL   UNL     1      -7.369   8.312   3.954  0.00  0.00    -0.080 Cl
ATOM     25 CL   UNL     1      -4.062   4.902   6.523  0.00  0.00    -0.083 Cl
BRANCH  23  26
ATOM     26  O   UNL     1      -6.210   7.103   1.520  0.00  0.00    -0.505 OA
ATOM     27  H   UNL     1      -6.989   6.636   1.188  0.00  0.00    +0.292 HD
ENDBRANCH  23  26
ENDBRANCH  16  18
ENDBRANCH   2  16
TORSDOF 5
