REMARK  Name = ZINC00931133
REMARK  8 active torsions:
REMARK  status: ('A' for Active; 'I' for Inactive)
REMARK    1  A    between atoms: C_1  and  C_2
REMARK    2  A    between atoms: C_4  and  N_13
REMARK    3  A    between atoms: C_7  and  N_8
REMARK    4  A    between atoms: N_13  and  C_14
REMARK    5  A    between atoms: C_14  and  C_16
REMARK    6  A    between atoms: C_14  and  C_21
REMARK    7  A    between atoms: N_23  and  C_24
REMARK    8  A    between atoms: C_30  and  C_32
REMARK                            x       y       z     vdW  Elec       q    Type
REMARK                         _______ _______ _______ _____ _____    ______ ____
ROOT
ATOM      1  N   UNL     1      -0.440  -2.827  -2.147  0.00  0.00    -0.249 N 
ATOM      2  C   UNL     1      -0.444  -2.446  -3.440  0.00  0.00    +0.265 C 
ATOM      3  O   UNL     1      -0.117  -1.318  -3.741  0.00  0.00    -0.271 OA
ENDROOT
BRANCH   2   4
ATOM      4  C   UNL     1      -0.856  -3.422  -4.512  0.00  0.00    +0.296 C 
ATOM      5  C   UNL     1       0.242  -4.478  -4.701  0.00  0.00    +0.283 C 
ATOM      6  O   UNL     1      -0.175  -5.378  -5.733  0.00  0.00    -0.484 OA
ATOM      7  C   UNL     1      -0.680  -4.818  -6.866  0.00  0.00    +0.162 A 
ATOM      8  C   UNL     1      -0.762  -5.578  -8.023  0.00  0.00    +0.049 A 
ATOM      9  C   UNL     1      -1.276  -5.025  -9.181  0.00  0.00    +0.004 A 
ATOM     10  C   UNL     1      -1.709  -3.712  -9.188  0.00  0.00    +0.004 A 
ATOM     11  C   UNL     1      -1.629  -2.948  -8.039  0.00  0.00    +0.049 A 
ATOM     12  C   UNL     1      -1.113  -3.498  -6.875  0.00  0.00    +0.163 A 
ATOM     13  O   UNL     1      -1.033  -2.731  -5.753  0.00  0.00    -0.472 OA
ENDBRANCH   2   4
BRANCH   1  17
ATOM     14  C   UNL     1       0.241   1.854  -0.810  0.00  0.00    +0.046 C 
ATOM     15  C   UNL     1       0.145   0.390  -0.466  0.00  0.00    -0.023 A 
ATOM     16  C   UNL     1      -0.101  -0.537  -1.459  0.00  0.00    +0.029 A 
ATOM     17  C   UNL     1      -0.189  -1.887  -1.141  0.00  0.00    +0.038 A 
ATOM     18  C   UNL     1      -0.029  -2.303   0.174  0.00  0.00    +0.025 A 
ATOM     19  C   UNL     1       0.217  -1.375   1.166  0.00  0.00    +0.030 A 
ATOM     20  C   UNL     1       0.311  -0.026   0.848  0.00  0.00    +0.072 A 
BRANCH  20  21
ATOM     21  N   UNL     1       0.568   0.916   1.855  0.00  0.00    -0.200 N 
ATOM     22  C   UNL     1       0.028   0.961   3.092  0.00  0.00    +0.250 A 
ATOM     23  N   UNL     1       0.541   1.998   3.702  0.00  0.00    -0.116 NA
ATOM     24  N   UNL     1       1.369   2.610   2.935  0.00  0.00    -0.023 NA
ATOM     25  N   UNL     1       1.446   2.012   1.795  0.00  0.00    -0.039 NA
ENDBRANCH  20  21
ENDBRANCH   1  17
BRANCH   1  26
ATOM     26  C   UNL     1      -0.697  -4.226  -1.795  0.00  0.00    +0.233 C 
BRANCH  26  27
ATOM     27  C   UNL     1      -1.912  -4.305  -0.907  0.00  0.00    +0.135 A 
ATOM     28  C   UNL     1      -2.870  -5.247  -0.967  0.00  0.00    +0.047 A 
ATOM     29  C   UNL     1      -3.812  -4.938   0.041  0.00  0.00    +0.041 A 
ATOM     30  C   UNL     1      -3.374  -3.825   0.656  0.00  0.00    +0.195 A 
ATOM     31  O   UNL     1      -2.220  -3.450   0.081  0.00  0.00    -0.465 OA
ENDBRANCH  26  27
BRANCH  26  32
ATOM     32  C   UNL     1       0.496  -4.787  -1.065  0.00  0.00    +0.242 C 
ATOM     33  O   UNL     1       1.465  -4.088  -0.859  0.00  0.00    -0.273 OA
ATOM     34  N   UNL     1       0.485  -6.066  -0.640  0.00  0.00    -0.311 N 
ATOM     35  H   UNL     1      -0.290  -6.626  -0.805  0.00  0.00    +0.149 HD
BRANCH  34  36
ATOM     36  C   UNL     1       1.645  -6.612   0.069  0.00  0.00    +0.073 C 
ATOM     37  C   UNL     1       2.675  -7.112  -0.945  0.00  0.00    +0.022 C 
ATOM     38  C   UNL     1       3.886  -7.682  -0.204  0.00  0.00    +0.002 C 
ATOM     39  C   UNL     1       3.440  -8.845   0.683  0.00  0.00    +0.000 C 
ATOM     40  C   UNL     1       2.409  -8.346   1.698  0.00  0.00    +0.002 C 
ATOM     41  C   UNL     1       1.198  -7.776   0.957  0.00  0.00    +0.022 C 
ENDBRANCH  34  36
ENDBRANCH  26  32
ENDBRANCH   1  26
TORSDOF 7
