REMARK  Name = ZINC33263096
REMARK  9 active torsions:
REMARK  status: ('A' for Active; 'I' for Inactive)
REMARK    1  A    between atoms: C_1  and  C_2
REMARK    2  A    between atoms: C_2  and  C_3
REMARK    3  A    between atoms: C_3  and  N_4
REMARK    4  A    between atoms: C_8  and  S_13
REMARK    5  A    between atoms: S_13  and  N_16
REMARK    6  A    between atoms: C_21  and  C_23
REMARK    7  A    between atoms: N_25  and  C_26
REMARK    8  A    between atoms: C_26  and  C_27
REMARK    9  A    between atoms: C_27  and  C_28
REMARK                            x       y       z     vdW  Elec       q    Type
REMARK                         _______ _______ _______ _____ _____    ______ ____
ROOT
ATOM      1  N   UNL     1      -2.697  -4.374  -1.569  0.00  0.00    -0.165 NA
ATOM      2  C   UNL     1      -3.845  -3.807  -2.291  0.00  0.00    +0.110 C 
ATOM      3  C   UNL     1      -4.294  -4.797  -3.365  0.00  0.00    +0.017 C 
ATOM      4  C   UNL     1      -3.103  -5.153  -4.257  0.00  0.00    +0.003 C 
ATOM      5  C   UNL     1      -2.012  -5.816  -3.413  0.00  0.00    +0.030 C 
ATOM      6  C   UNL     1      -1.534  -4.834  -2.340  0.00  0.00    +0.165 C 
ENDROOT
BRANCH   6   7
ATOM      7  C   UNL     1      -0.560  -5.524  -1.421  0.00  0.00    +0.232 C 
ATOM      8  O   UNL     1      -0.855  -6.583  -0.909  0.00  0.00    -0.274 OA
ATOM      9  N   UNL     1       0.640  -4.964  -1.167  0.00  0.00    -0.314 N 
ATOM     10  H   UNL     1       0.907  -4.003  -1.631  0.00  0.00    +0.149 HD
BRANCH   9  11
ATOM     11  C   UNL     1       1.587  -5.635  -0.274  0.00  0.00    +0.108 C 
BRANCH  11  12
ATOM     12  C   UNL     1       2.861  -4.795  -0.157  0.00  0.00    +0.049 C 
BRANCH  12  13
ATOM     13  C   UNL     1       3.835  -5.485   0.762  0.00  0.00    -0.072 C 
ATOM     14  C   UNL     1       4.740  -6.243   0.229  0.00  0.00    -0.028 C 
ATOM     15  C   UNL     1       5.770  -7.001   1.014  0.00  0.00    +0.027 C 
ATOM     16  C   UNL     1       5.875  -6.435   2.432  0.00  0.00    +0.004 C 
ATOM     17  C   UNL     1       4.460  -6.326   3.015  0.00  0.00    +0.005 C 
ATOM     18  C   UNL     1       3.701  -5.247   2.237  0.00  0.00    +0.030 C 
ENDBRANCH  12  13
ENDBRANCH  11  12
ENDBRANCH   9  11
ENDBRANCH   6   7
BRANCH   1  19
ATOM     19  S   UNL     1      -2.717  -4.498   0.083  0.00  0.00    +0.062 S 
ATOM     20  O   UNL     1      -3.471  -3.393   0.564  0.00  0.00    -0.153 OA
ATOM     21  O   UNL     1      -1.377  -4.740   0.488  0.00  0.00    -0.153 OA
BRANCH  19  26
ATOM     22  N   UNL     1      -5.538  -9.472   1.413  0.00  0.00    -0.244 N 
ATOM     23  C   UNL     1      -5.106  -8.201   1.117  0.00  0.00    +0.089 A 
ATOM     24  C   UNL     1      -5.739  -6.970   0.991  0.00  0.00    +0.031 A 
ATOM     25  C   UNL     1      -5.008  -5.858   0.678  0.00  0.00    +0.031 A 
ATOM     26  C   UNL     1      -3.636  -5.947   0.485  0.00  0.00    +0.108 A 
ATOM     27  C   UNL     1      -2.990  -7.143   0.603  0.00  0.00    +0.060 A 
ATOM     28  C   UNL     1      -3.717  -8.298   0.923  0.00  0.00    +0.115 A 
ATOM     29  N   UNL     1      -3.367  -9.587   1.103  0.00  0.00    -0.129 NA
ATOM     30  N   UNL     1      -4.402 -10.295   1.388  0.00  0.00    -0.065 NA
BRANCH  22  31
ATOM     31  C   UNL     1      -6.915  -9.886   1.696  0.00  0.00    +0.145 C 
BRANCH  31  33
ATOM     32  C   UNL     1      -9.044 -10.717   0.688  0.00  0.00    +0.005 C 
ATOM     33  C   UNL     1      -7.607 -10.284   0.392  0.00  0.00    +0.020 C 
ENDBRANCH  31  33
ENDBRANCH  22  31
ENDBRANCH  19  26
ENDBRANCH   1  19
TORSDOF 8
