REMARK  Name = ZINC43409572
REMARK  10 active torsions:
REMARK  status: ('A' for Active; 'I' for Inactive)
REMARK    1  A    between atoms: C_1  and  C_2
REMARK    2  A    between atoms: C_4  and  O_31
REMARK    3  A    between atoms: C_6  and  O_30
REMARK    4  A    between atoms: C_9  and  C_10
REMARK    5  A    between atoms: C_9  and  C_11
REMARK    6  A    between atoms: C_14  and  O_29
REMARK    7  A    between atoms: C_18  and  C_28
REMARK    8  A    between atoms: C_21  and  O_27
REMARK    9  A    between atoms: C_23  and  C_25
REMARK   10  A    between atoms: C_25  and  O_26
REMARK                            x       y       z     vdW  Elec       q    Type
REMARK                         _______ _______ _______ _____ _____    ______ ____
ROOT
ATOM      1  C   UNL     1       1.058   1.544   2.372  0.00  0.00    +0.013 C 
ATOM      2  C   UNL     1       1.090   0.035   2.568  0.00  0.00    +0.050 C 
ATOM      3  C   UNL     1       0.189  -0.674   1.571  0.00  0.00    +0.152 C 
ATOM      4  C   UNL     1      -1.170  -1.093   2.070  0.00  0.00    +0.102 C 
ATOM      5  C   UNL     1      -1.528  -0.954   3.545  0.00  0.00    +0.042 C 
ATOM      6  C   UNL     1      -2.279  -0.149   2.485  0.00  0.00    +0.003 C 
ATOM      7  C   UNL     1      -2.083   1.356   2.379  0.00  0.00    +0.014 C 
ATOM      8  C   UNL     1      -3.718  -0.609   2.167  0.00  0.00    +0.014 C 
ATOM      9  C   UNL     1      -0.553  -0.268   4.484  0.00  0.00    +0.051 C 
ATOM     10  C   UNL     1       0.875  -0.414   3.996  0.00  0.00    +0.087 C 
ATOM     11  C   UNL     1       1.850   0.171   4.979  0.00  0.00    +0.084 C 
ATOM     12  C   UNL     1       3.152   0.639   4.383  0.00  0.00    -0.011 C 
ATOM     13  C   UNL     1       3.603   1.678   5.091  0.00  0.00    -0.009 C 
ATOM     14  C   UNL     1       2.688   2.018   6.188  0.00  0.00    +0.191 C 
ATOM     15  O   UNL     1       2.905   2.721   7.150  0.00  0.00    -0.289 OA
ATOM     16  C   UNL     1       1.377   1.325   5.840  0.00  0.00    +0.140 C 
ATOM     17  C   UNL     1       0.588   0.935   7.048  0.00  0.00    +0.076 C 
ATOM     18  C   UNL     1      -0.200  -0.315   6.939  0.00  0.00    -0.045 C 
ATOM     19  C   UNL     1      -0.684  -0.830   5.869  0.00  0.00    -0.019 C 
ATOM     20  C   UNL     1       4.887   2.410   4.797  0.00  0.00    +0.047 C 
ENDROOT
BRANCH  16  21
ATOM     21  O   UNL     1       0.607   2.258   5.085  0.00  0.00    -0.380 OA
ATOM     22  H   UNL     1       0.286   3.011   5.599  0.00  0.00    +0.211 HD
ENDBRANCH  16  21
BRANCH  10  23
ATOM     23  O   UNL     1       1.140  -1.843   4.009  0.00  0.00    -0.387 OA
ATOM     24  H   UNL     1       2.037  -2.079   3.735  0.00  0.00    +0.210 HD
ENDBRANCH  10  23
BRANCH   4  25
ATOM     25  O   UNL     1      -1.633  -2.318   1.465  0.00  0.00    -0.385 OA
ATOM     26  H   UNL     1      -1.361  -2.430   0.544  0.00  0.00    +0.210 HD
ENDBRANCH   4  25
BRANCH   3  27
ATOM     27  O   UNL     1       0.875  -1.836   1.076  0.00  0.00    -0.389 OA
ATOM     28  H   UNL     1       1.710  -1.639   0.628  0.00  0.00    +0.210 HD
ENDBRANCH   3  27
BRANCH  18  29
ATOM     29  C   UNL     1      -0.459  -1.062   8.226  0.00  0.00    +0.186 C 
BRANCH  29  30
ATOM     30  O   UNL     1      -1.226  -2.236   7.949  0.00  0.00    -0.391 OA
ATOM     31  H   UNL     1      -1.430  -2.766   8.732  0.00  0.00    +0.210 HD
ENDBRANCH  29  30
ENDBRANCH  18  29
TORSDOF 6
