REMARK  Name = ZINC36650406
REMARK  12 active torsions:
REMARK  status: ('A' for Active; 'I' for Inactive)
REMARK    1  A    between atoms: C_1  and  O_2
REMARK    2  A    between atoms: O_2  and  C_3
REMARK    3  A    between atoms: C_7  and  C_11
REMARK    4  A    between atoms: C_8  and  O_9
REMARK    5  A    between atoms: O_9  and  C_10
REMARK    6  A    between atoms: C_11  and  C_13
REMARK    7  A    between atoms: C_11  and  C_30
REMARK    8  A    between atoms: C_13  and  N_14
REMARK    9  A    between atoms: C_15  and  C_17
REMARK   10  A    between atoms: C_17  and  C_18
REMARK   11  A    between atoms: C_18  and  C_19
REMARK   12  A    between atoms: C_21  and  C_24
REMARK                            x       y       z     vdW  Elec       q    Type
REMARK                         _______ _______ _______ _____ _____    ______ ____
ROOT
ATOM      1  C   UNL     1       1.394  -4.134   2.219  0.00  0.00    +0.072 C 
ENDROOT
BRANCH   1   2
ATOM      2  C   UNL     1       2.837  -4.570   2.229  0.00  0.00    -0.013 A 
ATOM      3  C   UNL     1       3.761  -4.252   3.149  0.00  0.00    +0.088 A 
ATOM      4  N   UNL     1       4.958  -4.830   2.826  0.00  0.00    -0.360 N 
ATOM      5  H   UNL     1       5.776  -4.744   3.342  0.00  0.00    +0.165 HD
ATOM      6  C   UNL     1       4.831  -5.553   1.661  0.00  0.00    +0.047 A 
ATOM      7  C   UNL     1       3.494  -5.427   1.239  0.00  0.00    +0.003 A 
ATOM      8  C   UNL     1       3.069  -6.068   0.074  0.00  0.00    +0.010 A 
ATOM      9  C   UNL     1       3.953  -6.818  -0.649  0.00  0.00    +0.001 A 
ATOM     10  C   UNL     1       5.271  -6.949  -0.235  0.00  0.00    +0.002 A 
ATOM     11  C   UNL     1       5.714  -6.317   0.907  0.00  0.00    +0.026 A 
ENDBRANCH   1   2
BRANCH   1  16
ATOM     12  C   UNL     1       0.626  -0.619   1.042  0.00  0.00    +0.162 A 
ATOM     13  C   UNL     1       1.202   0.137   2.051  0.00  0.00    +0.049 A 
ATOM     14  C   UNL     1       1.836  -0.490   3.108  0.00  0.00    +0.004 A 
ATOM     15  C   UNL     1       1.897  -1.870   3.161  0.00  0.00    +0.008 A 
ATOM     16  C   UNL     1       1.325  -2.630   2.158  0.00  0.00    +0.007 A 
ATOM     17  C   UNL     1       0.683  -2.008   1.099  0.00  0.00    +0.165 A 
BRANCH  12  19
ATOM     18  C   UNL     1      -0.017   1.425   0.010  0.00  0.00    +0.277 C 
ATOM     19  O   UNL     1       0.002  -0.004   0.002  0.00  0.00    -0.491 OA
ENDBRANCH  12  19
BRANCH  17  20
ATOM     20  O   UNL     1       0.115  -2.754   0.114  0.00  0.00    -0.491 OA
ATOM     21  C   UNL     1       0.940  -3.091  -1.003  0.00  0.00    +0.277 C 
ENDBRANCH  17  20
ENDBRANCH   1  16
BRANCH   1  22
ATOM     22  C   UNL     1       0.704  -4.625   3.493  0.00  0.00    +0.117 C 
BRANCH  22  23
ATOM     23  N   UNL     1      -0.724  -4.305   3.430  0.00  0.00    -0.314 N 
ATOM     24  C   UNL     1      -1.537  -4.645   4.449  0.00  0.00    +0.214 C 
ATOM     25  O   UNL     1      -1.086  -5.216   5.420  0.00  0.00    -0.276 OA
ATOM     26  H   UNL     1      -1.084  -3.848   2.654  0.00  0.00    +0.149 HD
BRANCH  24  27
ATOM     27  C   UNL     1      -3.006  -4.316   4.384  0.00  0.00    +0.105 C 
BRANCH  27  28
ATOM     28  C   UNL     1      -3.696  -4.807   5.658  0.00  0.00    +0.108 C 
BRANCH  28  29
ATOM     29  C   UNL     1      -5.165  -4.478   5.593  0.00  0.00    +0.228 A 
ATOM     30  N   UNL     1      -6.096  -5.246   5.103  0.00  0.00    -0.191 NA
ATOM     31  C   UNL     1      -7.293  -4.641   5.205  0.00  0.00    +0.202 A 
ATOM     32  N   UNL     1      -7.124  -3.470   5.767  0.00  0.00    -0.056 NA
ATOM     33  O   UNL     1      -5.734  -3.348   6.033  0.00  0.00    -0.338 OA
BRANCH  31  34
ATOM     34  C   UNL     1      -8.590  -5.206   4.754  0.00  0.00    +0.025 A 
ATOM     35  C   UNL     1      -8.656  -6.473   4.169  0.00  0.00    +0.031 A 
ATOM     36  C   UNL     1      -9.883  -6.961   3.765  0.00  0.00    +0.111 A 
ATOM     37  N   UNL     1     -10.981  -6.248   3.925  0.00  0.00    -0.263 NA
ATOM     38  C   UNL     1     -10.961  -5.048   4.472  0.00  0.00    +0.111 A 
ATOM     39  C   UNL     1      -9.778  -4.488   4.909  0.00  0.00    +0.031 A 
ENDBRANCH  31  34
ENDBRANCH  28  29
ENDBRANCH  27  28
ENDBRANCH  24  27
ENDBRANCH  22  23
ENDBRANCH   1  22
TORSDOF 10
