REMARK  Name = ZINC35867372
REMARK  8 active torsions:
REMARK  status: ('A' for Active; 'I' for Inactive)
REMARK    1  A    between atoms: C_1  and  C_2
REMARK    2  A    between atoms: C_2  and  C_3
REMARK    3  A    between atoms: C_3  and  C_5
REMARK    4  A    between atoms: C_3  and  C_6
REMARK    5  A    between atoms: C_16  and  C_20
REMARK    6  A    between atoms: N_29  and  C_30
REMARK    7  A    between atoms: C_33  and  S_36
REMARK    8  A    between atoms: S_36  and  C_37
REMARK                            x       y       z     vdW  Elec       q    Type
REMARK                         _______ _______ _______ _____ _____    ______ ____
ROOT
ATOM      1  C   UNL     1       0.563  -1.344  -1.579  0.00  0.00    +0.135 A 
ATOM      2  N   UNL     1      -0.064  -1.951  -2.571  0.00  0.00    -0.216 NA
ATOM      3  C   UNL     1      -0.174  -3.268  -2.635  0.00  0.00    +0.133 A 
ATOM      4  C   UNL     1       0.400  -4.061  -1.603  0.00  0.00    +0.051 A 
ATOM      5  C   UNL     1       0.406  -5.518  -1.463  0.00  0.00    -0.025 A 
ATOM      6  C   UNL     1       1.026  -6.026  -0.378  0.00  0.00    -0.004 A 
ATOM      7  S   UNL     1       1.632  -4.616   0.511  0.00  0.00    -0.073 S 
ATOM      8  C   UNL     1       1.051  -3.343  -0.579  0.00  0.00    +0.114 A 
ATOM      9  N   UNL     1       1.119  -2.026  -0.597  0.00  0.00    -0.224 NA
ATOM     10  C   UNL     1       1.171  -7.470  -0.008  0.00  0.00    +0.046 C 
ATOM     11  C   UNL     1       0.831  -8.322  -1.240  0.00  0.00    -0.009 C 
ATOM     12  C   UNL     1      -0.479  -7.809  -1.845  0.00  0.00    +0.008 C 
ATOM     13  C   UNL     1      -0.253  -6.439  -2.486  0.00  0.00    +0.037 C 
ATOM     14  C   UNL     1       0.669  -9.785  -0.823  0.00  0.00    +0.008 C 
ATOM     15  N   UNL     1      -0.839  -3.865  -3.691  0.00  0.00    -0.312 N 
ATOM     16  C   UNL     1      -2.308  -3.879  -3.738  0.00  0.00    +0.125 C 
ATOM     17  C   UNL     1      -2.761  -3.258  -5.065  0.00  0.00    +0.128 C 
ATOM     18  N   UNL     1      -2.011  -3.891  -6.160  0.00  0.00    -0.282 N 
ATOM     19  C   UNL     1      -0.542  -3.877  -6.112  0.00  0.00    +0.128 C 
ATOM     20  C   UNL     1      -0.089  -4.493  -4.788  0.00  0.00    +0.125 C 
ATOM     21  C   UNL     1      -2.659  -4.473  -7.188  0.00  0.00    +0.307 C 
ATOM     22  O   UNL     1      -3.867  -4.372  -7.281  0.00  0.00    -0.252 OA
ATOM     23  N   UNL     1      -1.967  -5.167  -8.114  0.00  0.00    -0.269 N 
ATOM     24  H   UNL     1      -1.023  -5.347  -7.980  0.00  0.00    +0.156 HD
ENDROOT
BRANCH  23  25
ATOM     25  C   UNL     1      -2.612  -5.629  -9.270  0.00  0.00    +0.035 A 
ATOM     26  C   UNL     1      -3.980  -5.865  -9.254  0.00  0.00    +0.024 A 
ATOM     27  C   UNL     1      -4.616  -6.320 -10.392  0.00  0.00    +0.016 A 
ATOM     28  C   UNL     1      -3.886  -6.542 -11.553  0.00  0.00    +0.008 A 
ATOM     29  C   UNL     1      -2.517  -6.306 -11.568  0.00  0.00    +0.016 A 
ATOM     30  C   UNL     1      -1.883  -5.846 -10.431  0.00  0.00    +0.024 A 
BRANCH  28  31
ATOM     31  S   UNL     1      -4.697  -7.122 -13.006  0.00  0.00    -0.129 S 
ATOM     32  C   UNL     1      -3.363  -7.256 -14.228  0.00  0.00    +0.090 C 
ENDBRANCH  28  31
ENDBRANCH  23  25
BRANCH   1  33
ATOM     33  C   UNL     1       0.650   0.161  -1.573  0.00  0.00    +0.054 C 
ATOM     34  C   UNL     1       2.119   0.586  -1.599  0.00  0.00    +0.015 C 
BRANCH  33  36
ATOM     35  C   UNL     1      -0.039   2.234  -0.361  0.00  0.00    +0.004 C 
ATOM     36  C   UNL     1      -0.017   0.705  -0.308  0.00  0.00    +0.007 C 
ENDBRANCH  33  36
ENDBRANCH   1  33
TORSDOF 4
