REMARK  Name = ZINC48342070
REMARK  6 active torsions:
REMARK  status: ('A' for Active; 'I' for Inactive)
REMARK    1  A    between atoms: C_3  and  C_12
REMARK    2  A    between atoms: C_6  and  C_7
REMARK    3  A    between atoms: C_7  and  N_8
REMARK    4  A    between atoms: N_14  and  C_15
REMARK    5  A    between atoms: C_15  and  C_16
REMARK    6  A    between atoms: C_16  and  C_21
REMARK                            x       y       z     vdW  Elec       q    Type
REMARK                         _______ _______ _______ _____ _____    ______ ____
ROOT
ATOM      1  C   UNL     1       3.649   2.132   0.017  0.00  0.00    +0.244 C 
ATOM      2  O   UNL     1       3.627   3.347   0.013  0.00  0.00    -0.270 OA
ATOM      3  N   UNL     1       4.829   1.480  -0.007  0.00  0.00    -0.310 N 
ATOM      4  H   UNL     1       4.847   0.510  -0.004  0.00  0.00    +0.149 HD
ENDROOT
BRANCH   1   7
ATOM      5  C   UNL     1      -0.018   1.323   0.101  0.00  0.00    +0.006 A 
ATOM      6  C   UNL     1       1.160   2.041   0.073  0.00  0.00    +0.013 A 
ATOM      7  C   UNL     1       2.383   1.369   0.048  0.00  0.00    +0.037 A 
ATOM      8  C   UNL     1       2.406  -0.027   0.052  0.00  0.00    +0.013 A 
ATOM      9  C   UNL     1       1.221  -0.733   0.081  0.00  0.00    +0.006 A 
ATOM     10  C   UNL     1       0.012  -0.060   0.106  0.00  0.00    -0.030 A 
BRANCH  10  11
ATOM     11  C   UNL     1      -1.278  -0.838   0.137  0.00  0.00    +0.141 C 
BRANCH  11  12
ATOM     12  N   UNL     1      -1.727  -1.095  -1.234  0.00  0.00    -0.295 N 
ATOM     13  C   UNL     1      -2.867  -1.780  -1.452  0.00  0.00    +0.297 C 
ATOM     14  O   UNL     1      -3.523  -2.184  -0.512  0.00  0.00    -0.253 OA
ATOM     15  N   UNL     1      -3.280  -2.016  -2.713  0.00  0.00    -0.313 N 
ATOM     16  H   UNL     1      -1.204  -0.772  -1.984  0.00  0.00    +0.151 HD
ATOM     17  H   UNL     1      -2.757  -1.693  -3.464  0.00  0.00    +0.146 HD
ATOM     18  H   UNL     1      -4.101  -2.509  -2.871  0.00  0.00    +0.146 HD
ENDBRANCH  11  12
ENDBRANCH  10  11
ENDBRANCH   1   7
BRANCH   3  19
ATOM     19  C   UNL     1       6.083   2.236  -0.038  0.00  0.00    +0.116 C 
BRANCH  19  20
ATOM     20  C   UNL     1       7.264   1.269   0.064  0.00  0.00    +0.011 C 
ATOM     21  C   UNL     1       7.147   0.427   1.347  0.00  0.00    +0.013 C 
ATOM     22  C   UNL     1       8.401   0.734   2.192  0.00  0.00    +0.001 C 
ATOM     23  C   UNL     1       8.860   2.128   1.697  0.00  0.00    +0.001 C 
ATOM     24  C   UNL     1       8.585   2.058   0.174  0.00  0.00    +0.013 C 
BRANCH  20  25
ATOM     25  C   UNL     1       7.299   0.368  -1.144  0.00  0.00    -0.040 A 
ATOM     26  C   UNL     1       6.418   0.579  -2.188  0.00  0.00    +0.007 A 
ATOM     27  C   UNL     1       6.450  -0.246  -3.296  0.00  0.00    +0.038 A 
ATOM     28  C   UNL     1       7.365  -1.284  -3.361  0.00  0.00    +0.123 A 
ATOM     29  C   UNL     1       8.247  -1.494  -2.314  0.00  0.00    +0.038 A 
ATOM     30  C   UNL     1       8.216  -0.664  -1.209  0.00  0.00    +0.007 A 
ATOM     31  F   UNL     1       7.396  -2.091  -4.443  0.00  0.00    -0.205 F 
ENDBRANCH  20  25
ENDBRANCH  19  20
ENDBRANCH   3  19
TORSDOF 6
