REMARK  Name = ZINC05247501
REMARK  10 active torsions:
REMARK  status: ('A' for Active; 'I' for Inactive)
REMARK    1  A    between atoms: C_1  and  C_2
REMARK    2  A    between atoms: C_2  and  O_3
REMARK    3  A    between atoms: O_3  and  C_4
REMARK    4  A    between atoms: C_4  and  C_6
REMARK    5  A    between atoms: C_12  and  C_34
REMARK    6  A    between atoms: C_21  and  O_33
REMARK    7  A    between atoms: C_22  and  C_29
REMARK    8  A    between atoms: C_25  and  O_28
REMARK    9  A    between atoms: C_29  and  O_31
REMARK   10  A    between atoms: O_31  and  C_32
REMARK                            x       y       z     vdW  Elec       q    Type
REMARK                         _______ _______ _______ _____ _____    ______ ____
ROOT
ATOM      1  C   UNL     1      -0.661   0.786   0.936  0.00  0.00    +0.104 C 
ATOM      2  C   UNL     1       0.229   2.053   0.985  0.00  0.00    +0.015 C 
ATOM      3  C   UNL     1       1.605   1.607   1.531  0.00  0.00    +0.005 C 
ATOM      4  C   UNL     1       1.653   0.104   1.199  0.00  0.00    -0.001 C 
ATOM      5  C   UNL     1       0.218  -0.373   1.476  0.00  0.00    -0.016 C 
ATOM      6  C   UNL     1      -0.034  -0.450   2.984  0.00  0.00    +0.008 C 
ATOM      7  C   UNL     1       1.017  -1.331   3.651  0.00  0.00    +0.005 C 
ATOM      8  C   UNL     1       2.398  -0.688   3.466  0.00  0.00    +0.012 C 
ATOM      9  C   UNL     1       2.716  -0.612   1.979  0.00  0.00    -0.003 C 
ATOM     10  C   UNL     1       4.071   0.052   1.727  0.00  0.00    +0.007 C 
ATOM     11  C   UNL     1       5.105  -0.409   2.756  0.00  0.00    +0.036 C 
ATOM     12  C   UNL     1       4.655  -1.755   3.311  0.00  0.00    +0.084 C 
ATOM     13  C   UNL     1       3.429  -1.537   4.199  0.00  0.00    +0.099 C 
ATOM     14  C   UNL     1       2.873  -2.902   4.603  0.00  0.00    +0.024 C 
ATOM     15  C   UNL     1       3.946  -3.623   5.432  0.00  0.00    +0.032 C 
ATOM     16  C   UNL     1       5.219  -3.799   4.604  0.00  0.00    +0.117 C 
ATOM     17  C   UNL     1       5.743  -2.437   4.134  0.00  0.00    +0.067 C 
ATOM     18  C   UNL     1      -0.088  -1.700   0.778  0.00  0.00    +0.012 C 
ENDROOT
BRANCH   1  19
ATOM     19  C   UNL     1      -1.074   0.504  -0.486  0.00  0.00    +0.311 C 
ATOM     20  O   UNL     1      -0.319   0.754  -1.395  0.00  0.00    -0.251 OA
BRANCH  19  21
ATOM     21  O   UNL     1      -2.281  -0.026  -0.742  0.00  0.00    -0.465 OA
BRANCH  21  23
ATOM     22  C   UNL     1      -4.016  -0.872  -2.227  0.00  0.00    +0.048 C 
ATOM     23  C   UNL     1      -2.611  -0.271  -2.134  0.00  0.00    +0.229 C 
ENDBRANCH  21  23
ENDBRANCH  19  21
ENDBRANCH   1  19
BRANCH  16  24
ATOM     24  O   UNL     1       6.216  -4.440   5.402  0.00  0.00    -0.392 OA
ATOM     25  H   UNL     1       5.960  -5.315   5.723  0.00  0.00    +0.210 HD
ENDBRANCH  16  24
BRANCH  13  26
ATOM     26  C   UNL     1       3.870  -0.804   5.440  0.00  0.00    +0.316 C 
ATOM     27  O   UNL     1       3.592  -1.242   6.532  0.00  0.00    -0.250 OA
BRANCH  26  28
ATOM     28  O   UNL     1       4.572   0.335   5.333  0.00  0.00    -0.467 OA
ATOM     29  C   UNL     1       4.963   0.987   6.570  0.00  0.00    +0.280 C 
ENDBRANCH  26  28
ENDBRANCH  13  26
BRANCH  12  30
ATOM     30  O   UNL     1       4.297  -2.599   2.214  0.00  0.00    -0.387 OA
ATOM     31  H   UNL     1       5.025  -2.783   1.605  0.00  0.00    +0.210 HD
ENDBRANCH  12  30
TORSDOF 7
