REMARK  Name = ZINC02401321
REMARK  9 active torsions:
REMARK  status: ('A' for Active; 'I' for Inactive)
REMARK    1  A    between atoms: C_1  and  C_2
REMARK    2  A    between atoms: C_2  and  C_38
REMARK    3  A    between atoms: C_7  and  C_37
REMARK    4  A    between atoms: C_10  and  N_11
REMARK    5  A    between atoms: C_10  and  N_72
REMARK    6  A    between atoms: N_19  and  N_20
REMARK    7  A    between atoms: C_21  and  C_23
REMARK    8  A    between atoms: C_23  and  O_24
REMARK    9  A    between atoms: O_24  and  C_25
REMARK                            x       y       z     vdW  Elec       q    Type
REMARK                         _______ _______ _______ _____ _____    ______ ____
ROOT
ATOM      1  N   UNL     1      -2.040 -10.347  -0.035  0.00  0.00    -0.282 N 
ATOM      2  C   UNL     1      -3.428 -10.272  -0.021  0.00  0.00    +0.044 A 
ATOM      3  C   UNL     1      -4.407 -11.260  -0.017  0.00  0.00    +0.024 A 
ATOM      4  C   UNL     1      -5.742 -10.913  -0.002  0.00  0.00    +0.002 A 
ATOM      5  C   UNL     1      -6.125  -9.582   0.009  0.00  0.00    +0.001 A 
ATOM      6  C   UNL     1      -5.168  -8.587   0.006  0.00  0.00    +0.012 A 
ATOM      7  C   UNL     1      -3.820  -8.927  -0.003  0.00  0.00    +0.028 A 
ATOM      8  C   UNL     1      -2.572  -8.128  -0.017  0.00  0.00    +0.153 C 
ATOM      9  N   UNL     1      -2.461  -6.822  -0.011  0.00  0.00    -0.174 NA
ATOM     10  C   UNL     1      -1.482  -9.124  -0.034  0.00  0.00    +0.270 C 
ATOM     11  O   UNL     1      -0.289  -8.881  -0.043  0.00  0.00    -0.268 OA
ENDROOT
BRANCH   9  12
ATOM     12  N   UNL     1      -1.192  -6.228  -0.021  0.00  0.00    -0.203 N 
ATOM     13  C   UNL     1      -1.077  -4.885  -0.014  0.00  0.00    +0.270 C 
ATOM     14  O   UNL     1      -2.071  -4.191  -0.000  0.00  0.00    -0.270 OA
ATOM     15  H   UNL     1      -0.396  -6.782  -0.032  0.00  0.00    +0.177 HD
BRANCH  13  16
ATOM     16  C   UNL     1       0.287  -4.245  -0.024  0.00  0.00    +0.326 C 
BRANCH  16  17
ATOM     17  O   UNL     1       0.147  -2.823  -0.015  0.00  0.00    -0.482 OA
BRANCH  17  18
ATOM     18  C   UNL     1       1.291  -2.091  -0.022  0.00  0.00    +0.129 A 
ATOM     19  C   UNL     1       2.507  -2.714  -0.039  0.00  0.00    +0.046 A 
ATOM     20  C   UNL     1       3.688  -1.977  -0.046  0.00  0.00    +0.004 A 
ATOM     21  C   UNL     1       3.667  -0.616  -0.037  0.00  0.00    +0.009 A 
ATOM     22  C   UNL     1       2.437   0.063  -0.021  0.00  0.00    -0.014 A 
ATOM     23  C   UNL     1       1.232  -0.682  -0.013  0.00  0.00    +0.024 A 
ATOM     24  C   UNL     1       0.002  -0.004   0.002  0.00  0.00    +0.012 A 
ATOM     25  C   UNL     1      -0.016   1.357   0.009  0.00  0.00    +0.001 A 
ATOM     26  C   UNL     1       1.169   2.091   0.002  0.00  0.00    +0.001 A 
ATOM     27  C   UNL     1       2.378   1.467  -0.012  0.00  0.00    +0.008 A 
ENDBRANCH  17  18
ENDBRANCH  16  17
ENDBRANCH  13  16
ENDBRANCH   9  12
BRANCH   1  28
ATOM     28  C   UNL     1      -1.282 -11.600  -0.050  0.00  0.00    +0.039 C 
BRANCH  28  39
ATOM     29  C   UNL     1       2.026 -12.673  -0.518  0.00  0.00    +0.011 C 
ATOM     30  C   UNL     1       1.645 -13.572   0.676  0.00  0.00    -0.036 C 
ATOM     31  C   UNL     1       0.210 -14.024   0.514  0.00  0.00    -0.009 C 
ATOM     32  C   UNL     1      -0.798 -13.465   1.504  0.00  0.00    -0.065 C 
ATOM     33  C   UNL     1      -0.149 -13.538   2.916  0.00  0.00    -0.011 C 
ATOM     34  C   UNL     1       0.859 -12.363   2.794  0.00  0.00    -0.048 C 
ATOM     35  C   UNL     1       2.033 -12.870   1.959  0.00  0.00    +0.011 C 
ATOM     36  C   UNL     1       0.093 -11.308   1.960  0.00  0.00    -0.070 C 
ATOM     37  C   UNL     1       1.292 -11.819   4.163  0.00  0.00    +0.009 C 
ATOM     38  C   UNL     1       2.537 -14.835   0.559  0.00  0.00    +0.011 C 
ATOM     39  N   UNL     1      -1.049 -12.012   1.376  0.00  0.00    +0.393 N 
ATOM     40  H   UNL     1      -1.891 -11.776   1.913  0.00  0.00    -0.079 HD
ENDBRANCH  28  39
ENDBRANCH   1  28
TORSDOF 6
