REMARK  Name = ZINC09008045
REMARK  11 active torsions:
REMARK  status: ('A' for Active; 'I' for Inactive)
REMARK    1  A    between atoms: C_1  and  C_2
REMARK    2  A    between atoms: C_2  and  C_26
REMARK    3  A    between atoms: N_3  and  N_4
REMARK    4  A    between atoms: C_5  and  C_7
REMARK    5  A    between atoms: C_7  and  S_8
REMARK    6  A    between atoms: S_8  and  C_9
REMARK    7  A    between atoms: C_12  and  S_14
REMARK    8  A    between atoms: S_14  and  C_15
REMARK    9  A    between atoms: C_15  and  C_16
REMARK   10  A    between atoms: C_29  and  O_32
REMARK   11  A    between atoms: O_32  and  C_33
REMARK                            x       y       z     vdW  Elec       q    Type
REMARK                         _______ _______ _______ _____ _____    ______ ____
ROOT
ATOM      1  S   UNL     1       1.825  -0.167   6.735  0.00  0.00    -0.088 S 
ENDROOT
BRANCH   1   2
ATOM      2  C   UNL     1       1.270   0.211   5.106  0.00  0.00    +0.160 A 
ATOM      3  N   UNL     1       1.785  -0.144   3.944  0.00  0.00    -0.134 NA
ATOM      4  N   UNL     1       1.186   0.267   2.776  0.00  0.00    -0.134 NA
ATOM      5  C   UNL     1       0.099   1.013   2.823  0.00  0.00    +0.160 A 
ATOM      6  S   UNL     1      -0.135   1.184   4.586  0.00  0.00    -0.033 S 
BRANCH   5   7
ATOM      7  S   UNL     1      -0.862   1.671   1.500  0.00  0.00    -0.092 S 
BRANCH   7   8
ATOM      8  C   UNL     1      -0.013   1.086   0.008  0.00  0.00    +0.112 C 
BRANCH   8   9
ATOM      9  C   UNL     1      -0.742   1.585  -1.213  0.00  0.00    -0.029 A 
ATOM     10  C   UNL     1      -1.735   0.839  -1.769  0.00  0.00    +0.005 A 
ATOM     11  C   UNL     1      -2.425   1.287  -2.894  0.00  0.00    +0.001 A 
ATOM     12  C   UNL     1      -2.116   2.478  -3.477  0.00  0.00    +0.008 A 
ATOM     13  C   UNL     1      -1.092   3.273  -2.934  0.00  0.00    -0.018 A 
ATOM     14  C   UNL     1      -0.395   2.820  -1.786  0.00  0.00    -0.014 A 
ATOM     15  C   UNL     1       0.629   3.615  -1.244  0.00  0.00    +0.009 A 
ATOM     16  C   UNL     1       0.938   4.806  -1.827  0.00  0.00    +0.001 A 
ATOM     17  C   UNL     1       0.252   5.251  -2.956  0.00  0.00    +0.001 A 
ATOM     18  C   UNL     1      -0.745   4.508  -3.509  0.00  0.00    +0.008 A 
ENDBRANCH   8   9
ENDBRANCH   7   8
ENDBRANCH   5   7
ENDBRANCH   1   2
BRANCH   1  19
ATOM     19  C   UNL     1       3.304  -1.183   6.471  0.00  0.00    +0.173 C 
BRANCH  19  21
ATOM     20  N   UNL     1       4.996  -2.342   7.853  0.00  0.00    -0.206 N 
ATOM     21  C   UNL     1       3.886  -1.580   7.803  0.00  0.00    +0.242 C 
ATOM     22  O   UNL     1       3.355  -1.213   8.830  0.00  0.00    -0.273 OA
ATOM     23  H   UNL     1       5.421  -2.635   7.032  0.00  0.00    +0.177 HD
BRANCH  20  26
ATOM     24  C   UNL     1       7.266  -3.900   7.864  0.00  0.00    +0.068 C 
ATOM     25  C   UNL     1       6.606  -3.445   9.140  0.00  0.00    +0.063 C 
ATOM     26  N   UNL     1       5.537  -2.711   9.092  0.00  0.00    -0.185 NA
BRANCH  25  27
ATOM     27  C   UNL     1       7.175  -3.833  10.444  0.00  0.00    -0.002 A 
ATOM     28  C   UNL     1       8.323  -4.628  10.498  0.00  0.00    +0.013 A 
ATOM     29  C   UNL     1       8.855  -4.984  11.719  0.00  0.00    +0.046 A 
ATOM     30  C   UNL     1       8.245  -4.564  12.894  0.00  0.00    +0.120 A 
ATOM     31  C   UNL     1       7.100  -3.778  12.844  0.00  0.00    +0.046 A 
ATOM     32  C   UNL     1       6.565  -3.413  11.628  0.00  0.00    +0.013 A 
BRANCH  30  33
ATOM     33  O   UNL     1       8.769  -4.921  14.095  0.00  0.00    -0.495 OA
ATOM     34  C   UNL     1       9.947  -5.730  14.073  0.00  0.00    +0.277 C 
ENDBRANCH  30  33
ENDBRANCH  25  27
ENDBRANCH  20  26
ENDBRANCH  19  21
ENDBRANCH   1  19
TORSDOF 9
