REMARK  Name = ZINC10874766
REMARK  13 active torsions:
REMARK  status: ('A' for Active; 'I' for Inactive)
REMARK    1  A    between atoms: C_1  and  C_2
REMARK    2  A    between atoms: C_2  and  C_3
REMARK    3  A    between atoms: C_3  and  C_4
REMARK    4  A    between atoms: C_4  and  N_5
REMARK    5  A    between atoms: N_5  and  C_6
REMARK    6  A    between atoms: N_5  and  S_8
REMARK    7  A    between atoms: C_6  and  C_7
REMARK    8  A    between atoms: S_8  and  C_11
REMARK    9  A    between atoms: C_14  and  C_17
REMARK   10  A    between atoms: N_19  and  C_20
REMARK   11  A    between atoms: C_20  and  C_21
REMARK   12  A    between atoms: C_30  and  O_36
REMARK   13  A    between atoms: O_36  and  C_37
REMARK                            x       y       z     vdW  Elec       q    Type
REMARK                         _______ _______ _______ _____ _____    ______ ____
ROOT
ATOM      1  C   UNL     1       3.571   4.458  -0.026  0.00  0.00    +0.252 C 
ATOM      2  O   UNL     1       4.764   4.534  -0.247  0.00  0.00    -0.270 OA
ATOM      3  N   UNL     1       3.123   3.702   0.996  0.00  0.00    -0.244 N 
ATOM      4  C   UNL     1       4.022   3.122   1.875  0.00  0.00    +0.169 A 
ATOM      5  N   UNL     1       5.332   3.188   1.875  0.00  0.00    -0.221 NA
ATOM      6  C   UNL     1       6.091   2.569   2.807  0.00  0.00    +0.122 A 
ATOM      7  C   UNL     1       7.504   2.564   2.923  0.00  0.00    +0.146 A 
ATOM      8  C   UNL     1       8.121   1.872   3.938  0.00  0.00    +0.048 A 
ATOM      9  C   UNL     1       7.389   1.159   4.877  0.00  0.00    +0.005 A 
ATOM     10  C   UNL     1       6.010   1.144   4.792  0.00  0.00    +0.017 A 
ATOM     11  C   UNL     1       5.383   1.833   3.781  0.00  0.00    +0.044 A 
ATOM     12  S   UNL     1       3.693   2.087   3.295  0.00  0.00    -0.052 S 
ENDROOT
BRANCH   1  16
ATOM     13  C   UNL     1       0.817   6.571  -2.473  0.00  0.00    +0.106 A 
ATOM     14  C   UNL     1       1.948   7.211  -1.997  0.00  0.00    +0.029 A 
ATOM     15  C   UNL     1       2.846   6.531  -1.202  0.00  0.00    +0.015 A 
ATOM     16  C   UNL     1       2.613   5.193  -0.878  0.00  0.00    +0.037 A 
ATOM     17  C   UNL     1       1.473   4.551  -1.366  0.00  0.00    +0.015 A 
ATOM     18  C   UNL     1       0.580   5.246  -2.155  0.00  0.00    +0.029 A 
BRANCH  13  19
ATOM     19  S   UNL     1      -0.326   7.448  -3.488  0.00  0.00    +0.061 S 
ATOM     20  O   UNL     1      -1.577   6.788  -3.355  0.00  0.00    -0.153 OA
ATOM     21  O   UNL     1      -0.157   8.828  -3.191  0.00  0.00    -0.153 OA
BRANCH  19  22
ATOM     22  N   UNL     1       0.155   7.240  -5.059  0.00  0.00    -0.177 NA
BRANCH  22  23
ATOM     23  C   UNL     1       1.091   8.187  -5.670  0.00  0.00    +0.106 C 
ATOM     24  C   UNL     1       2.517   7.647  -5.546  0.00  0.00    +0.022 C 
ENDBRANCH  22  23
BRANCH  22  25
ATOM     25  C   UNL     1      -0.356   6.109  -5.837  0.00  0.00    +0.109 C 
BRANCH  25  26
ATOM     26  C   UNL     1      -1.571   6.558  -6.652  0.00  0.00    +0.017 C 
BRANCH  26  28
ATOM     27  C   UNL     1      -3.319   5.825  -8.279  0.00  0.00    +0.004 C 
ATOM     28  C   UNL     1      -2.104   5.376  -7.465  0.00  0.00    -0.002 C 
ENDBRANCH  26  28
ENDBRANCH  25  26
ENDBRANCH  22  25
ENDBRANCH  19  22
ENDBRANCH  13  19
ENDBRANCH   1  16
BRANCH   7  29
ATOM     29  O   UNL     1       8.256   3.251   2.022  0.00  0.00    -0.493 OA
ATOM     30  C   UNL     1       9.674   3.207   2.194  0.00  0.00    +0.277 C 
ENDBRANCH   7  29
BRANCH   3  31
ATOM     31  C   UNL     1       1.684   3.494   1.176  0.00  0.00    +0.147 C 
BRANCH  31  32
ATOM     32  C   UNL     1       1.284   2.145   0.574  0.00  0.00    +0.136 C 
ATOM     33  C   UNL     1      -0.252   1.979   0.600  0.00  0.00    +0.035 C 
ATOM     34  C   UNL     1      -0.462   0.481   0.917  0.00  0.00    +0.031 C 
ATOM     35  C   UNL     1       0.972  -0.080   1.045  0.00  0.00    +0.160 C 
ATOM     36  O   UNL     1       1.786   1.063   1.387  0.00  0.00    -0.375 OA
ENDBRANCH  31  32
ENDBRANCH   3  31
TORSDOF 10
