REMARK  Name = ZINC40756032
REMARK  8 active torsions:
REMARK  status: ('A' for Active; 'I' for Inactive)
REMARK    1  A    between atoms: C_1  and  C_2
REMARK    2  A    between atoms: C_5  and  C_8
REMARK    3  A    between atoms: C_8  and  N_9
REMARK    4  A    between atoms: C_11  and  N_25
REMARK    5  A    between atoms: C_12  and  N_16
REMARK    6  A    between atoms: N_16  and  C_17
REMARK    7  A    between atoms: C_17  and  C_18
REMARK    8  A    between atoms: C_18  and  C_19
REMARK                            x       y       z     vdW  Elec       q    Type
REMARK                         _______ _______ _______ _____ _____    ______ ____
ROOT
ATOM      1  N   UNL     1       1.447  -4.746  -0.032  0.00  0.00    -0.323 N 
ATOM      2  C   UNL     1       1.718  -6.109  -0.041  0.00  0.00    +0.145 A 
ATOM      3  C   UNL     1       3.037  -6.569  -0.045  0.00  0.00    +0.105 A 
ATOM      4  C   UNL     1       3.253  -7.948  -0.053  0.00  0.00    +0.145 A 
ATOM      5  N   UNL     1       2.203  -8.765  -0.057  0.00  0.00    -0.219 NA
ATOM      6  C   UNL     1       0.974  -8.290  -0.053  0.00  0.00    +0.225 A 
ATOM      7  N   UNL     1       0.726  -6.995  -0.040  0.00  0.00    -0.219 NA
ATOM      8  H   UNL     1       2.176  -4.106  -0.032  0.00  0.00    +0.148 HD
ENDROOT
BRANCH   3   9
ATOM      9  N   UNL     1       4.115  -5.669  -0.041  0.00  0.00    -0.353 N 
ATOM     10  H   UNL     1       3.949  -4.713  -0.035  0.00  0.00    +0.143 HD
ATOM     11  H   UNL     1       5.026  -6.003  -0.043  0.00  0.00    +0.143 HD
ENDBRANCH   3   9
BRANCH   4  12
ATOM     12  N   UNL     1       4.545  -8.459  -0.058  0.00  0.00    -0.327 N 
ATOM     13  H   UNL     1       5.306  -7.856  -0.055  0.00  0.00    +0.148 HD
BRANCH  12  14
ATOM     14  C   UNL     1       4.760  -9.908  -0.067  0.00  0.00    +0.107 C 
BRANCH  14  15
ATOM     15  C   UNL     1       6.262 -10.201  -0.070  0.00  0.00    +0.049 C 
BRANCH  15  16
ATOM     16  C   UNL     1       6.482 -11.692  -0.080  0.00  0.00    -0.072 C 
ATOM     17  C   UNL     1       6.673 -12.270  -1.222  0.00  0.00    -0.028 C 
ATOM     18  C   UNL     1       6.896 -13.745  -1.391  0.00  0.00    +0.027 C 
ATOM     19  C   UNL     1       7.284 -14.376  -0.052  0.00  0.00    +0.004 C 
ATOM     20  C   UNL     1       6.279 -13.916   1.011  0.00  0.00    +0.005 C 
ATOM     21  C   UNL     1       6.473 -12.413   1.237  0.00  0.00    +0.030 C 
ENDBRANCH  15  16
ENDBRANCH  14  15
ENDBRANCH  12  14
ENDBRANCH   4  12
BRANCH   1  22
ATOM     22  C   UNL     1       0.059  -4.275  -0.021  0.00  0.00    +0.138 C 
BRANCH  22  27
ATOM     23  C   UNL     1      -0.018   1.503   0.010  0.00  0.00    +0.044 C 
ATOM     24  C   UNL     1       0.002  -0.004   0.002  0.00  0.00    -0.050 A 
ATOM     25  C   UNL     1       0.006  -0.689  -1.199  0.00  0.00    +0.003 A 
ATOM     26  C   UNL     1       0.025  -2.071  -1.206  0.00  0.00    +0.005 A 
ATOM     27  C   UNL     1       0.040  -2.768  -0.013  0.00  0.00    -0.030 A 
ATOM     28  C   UNL     1       0.037  -2.084   1.188  0.00  0.00    +0.005 A 
ATOM     29  C   UNL     1       0.023  -0.702   1.195  0.00  0.00    +0.003 A 
ENDBRANCH  22  27
ENDBRANCH   1  22
TORSDOF 7
