REMARK  Name = ZINC22645632
REMARK  5 active torsions:
REMARK  status: ('A' for Active; 'I' for Inactive)
REMARK    1  A    between atoms: C_1  and  C_2
REMARK    2  A    between atoms: C_2  and  C_4
REMARK    3  A    between atoms: C_2  and  S_14
REMARK    4  A    between atoms: N_6  and  C_7
REMARK    5  A    between atoms: S_14  and  C_15
REMARK                            x       y       z     vdW  Elec       q    Type
REMARK                         _______ _______ _______ _____ _____    ______ ____
ROOT
ATOM      1  C   UNL     1       2.401   1.764   1.319  0.00  0.00    +0.029 C 
ATOM      2  C   UNL     1       1.738   2.222   0.018  0.00  0.00    +0.137 C 
ENDROOT
BRANCH   2   3
ATOM      3  C   UNL     1       1.858   3.719  -0.107  0.00  0.00    +0.230 C 
ATOM      4  O   UNL     1       0.952   4.433   0.266  0.00  0.00    -0.274 OA
ATOM      5  N   UNL     1       2.972   4.264  -0.634  0.00  0.00    -0.284 N 
ATOM      6  H   UNL     1       3.824   3.622  -0.904  0.00  0.00    +0.155 HD
BRANCH   5   7
ATOM      7  C   UNL     1       3.046   5.647  -0.837  0.00  0.00    +0.047 A 
ATOM      8  C   UNL     1       2.428   6.515   0.054  0.00  0.00    +0.024 A 
ATOM      9  C   UNL     1       2.507   7.879  -0.147  0.00  0.00    +0.002 A 
ATOM     10  C   UNL     1       3.191   8.381  -1.239  0.00  0.00    +0.001 A 
ATOM     11  C   UNL     1       3.802   7.519  -2.131  0.00  0.00    +0.016 A 
ATOM     12  C   UNL     1       3.732   6.154  -1.934  0.00  0.00    +0.035 A 
ATOM     13  I   UNL     1       4.657   4.849  -3.286  0.00  0.00    -0.042 I 
ENDBRANCH   5   7
ENDBRANCH   2   3
BRANCH   2  14
ATOM     14  S   UNL     1      -0.014   1.754   0.035  0.00  0.00    -0.072 S 
BRANCH  14  15
ATOM     15  C   UNL     1       0.014  -0.007   0.035  0.00  0.00    +0.211 A 
ATOM     16  N   UNL     1      -1.078  -0.829   0.053  0.00  0.00    -0.188 NA
ATOM     17  H   UNL     1       1.424  -2.906   0.019  0.00  0.00    +0.192 HD
ATOM     18  C   UNL     1      -0.635  -2.121   0.046  0.00  0.00    +0.209 A 
ATOM     19  N   UNL     1       0.675  -2.100   0.027  0.00  0.00    -0.246 N 
ATOM     20  N   UNL     1       1.087  -0.761   0.017  0.00  0.00    -0.144 NA
ATOM     21  N   UNL     1      -1.433  -3.258   0.056  0.00  0.00    -0.328 N 
ATOM     22  H   UNL     1      -0.970  -4.255   0.049  0.00  0.00    +0.145 HD
ATOM     23  H   UNL     1      -2.529  -3.160   0.072  0.00  0.00    +0.145 HD
ENDBRANCH  14  15
ENDBRANCH   2  14
TORSDOF 4
