REMARK  Name = ZINC52902235
REMARK  4 active torsions:
REMARK  status: ('A' for Active; 'I' for Inactive)
REMARK    1  A    between atoms: C_1  and  C_2
REMARK    2  A    between atoms: C_7  and  C_8
REMARK    3  A    between atoms: C_9  and  C_14
REMARK    4  A    between atoms: C_10  and  N_13
REMARK                            x       y       z     vdW  Elec       q    Type
REMARK                         _______ _______ _______ _____ _____    ______ ____
ROOT
ATOM      1  C   UNL     1       0.025   0.022   2.495  0.00  0.00    +0.124 A 
ATOM      2  C   UNL     1       0.052  -0.575   3.833  0.00  0.00    +0.077 A 
ATOM      3  C   UNL     1       0.045   0.473   4.734  0.00  0.00    +0.224 A 
ATOM      4  O   UNL     1       0.016   1.618   4.035  0.00  0.00    -0.339 OA
ATOM      5  N   UNL     1       0.009   1.325   2.653  0.00  0.00    -0.075 NA
ENDROOT
BRANCH   1  12
ATOM      6  C   UNL     1      -0.018   1.503   0.010  0.00  0.00    +0.044 C 
ATOM      7  C   UNL     1       0.002  -0.004   0.002  0.00  0.00    -0.040 A 
ATOM      8  C   UNL     1       0.006  -0.689  -1.196  0.00  0.00    +0.019 A 
ATOM      9  C   UNL     1       0.025  -2.073  -1.205  0.00  0.00    +0.018 A 
ATOM     10  C   UNL     1       0.041  -2.777  -0.014  0.00  0.00    +0.016 A 
ATOM     11  C   UNL     1       0.037  -2.102   1.190  0.00  0.00    +0.011 A 
ATOM     12  C   UNL     1       0.023  -0.709   1.204  0.00  0.00    +0.007 A 
ATOM     13 BR   UNL     1       0.029  -3.004  -2.851  0.00  0.00    -0.050 Br
ENDBRANCH   1  12
BRANCH   2  14
ATOM     14  C   UNL     1       0.081  -2.017   4.156  0.00  0.00    +0.026 A 
ATOM     15  C   UNL     1       1.062  -2.743   4.776  0.00  0.00    +0.016 A 
ATOM     16  C   UNL     1       0.862  -4.094   4.972  0.00  0.00    +0.008 A 
ATOM     17  C   UNL     1      -0.294  -4.659   4.547  0.00  0.00    +0.046 A 
ATOM     18  S   UNL     1      -1.159  -3.264   3.846  0.00  0.00    -0.096 S 
ENDBRANCH   2  14
BRANCH   3  19
ATOM     19  N   UNL     1       0.063   0.361   6.109  0.00  0.00    -0.327 N 
ATOM     20  H   UNL     1       0.083  -0.515   6.525  0.00  0.00    +0.145 HD
ATOM     21  H   UNL     1       0.056   1.159   6.661  0.00  0.00    +0.145 HD
ENDBRANCH   3  19
TORSDOF 3
