REMARK  Name = ZINC09612311
REMARK  10 active torsions:
REMARK  status: ('A' for Active; 'I' for Inactive)
REMARK    1  A    between atoms: C_1  and  C_2
REMARK    2  A    between atoms: C_5  and  C_37
REMARK    3  A    between atoms: C_6  and  N_8
REMARK    4  A    between atoms: N_8  and  C_9
REMARK    5  A    between atoms: C_11  and  N_26
REMARK    6  A    between atoms: N_26  and  C_27
REMARK    7  A    between atoms: N_26  and  C_30
REMARK    8  A    between atoms: C_27  and  C_28
REMARK    9  A    between atoms: C_28  and  O_29
REMARK   10  A    between atoms: C_30  and  C_31
REMARK                            x       y       z     vdW  Elec       q    Type
REMARK                         _______ _______ _______ _____ _____    ______ ____
ROOT
ATOM      1  C   UNL     1       7.580  -2.234  -0.950  0.00  0.00    +0.045 A 
ATOM      2  C   UNL     1       6.483  -1.373  -1.081  0.00  0.00    +0.049 A 
ATOM      3  C   UNL     1       5.333  -1.662  -1.789  0.00  0.00    +0.061 A 
ATOM      4  C   UNL     1       5.222  -2.954  -2.479  0.00  0.00    +0.136 A 
ATOM      5  C   UNL     1       6.383  -3.823  -2.327  0.00  0.00    +0.063 A 
ATOM      6  C   UNL     1       7.563  -3.490  -1.577  0.00  0.00    +0.056 A 
ATOM      7  C   UNL     1       8.589  -4.462  -1.545  0.00  0.00    +0.196 C 
ATOM      8  O   UNL     1       9.626  -4.261  -0.933  0.00  0.00    -0.287 OA
ATOM      9  C   UNL     1       8.368  -5.730  -2.275  0.00  0.00    +0.033 A 
ATOM     10  C   UNL     1       9.371  -6.706  -2.255  0.00  0.00    +0.012 A 
ATOM     11  C   UNL     1       9.192  -7.896  -2.921  0.00  0.00    +0.001 A 
ATOM     12  C   UNL     1       8.019  -8.147  -3.620  0.00  0.00    +0.001 A 
ATOM     13  C   UNL     1       7.016  -7.206  -3.659  0.00  0.00    +0.012 A 
ATOM     14  C   UNL     1       7.174  -5.988  -2.991  0.00  0.00    +0.031 A 
ATOM     15  C   UNL     1       6.119  -4.976  -3.023  0.00  0.00    +0.176 A 
ATOM     16  O   UNL     1       4.898  -4.761  -3.526  0.00  0.00    -0.353 OA
ATOM     17  N   UNL     1       4.426  -3.666  -3.225  0.00  0.00    -0.076 NA
ENDROOT
BRANCH   1  18
ATOM     18  N   UNL     1       8.679  -1.845  -0.212  0.00  0.00    -0.314 N 
ATOM     19  H   UNL     1       9.423  -2.456  -0.092  0.00  0.00    +0.152 HD
BRANCH  18  25
ATOM     20  C   UNL     1      10.259   2.807  -0.337  0.00  0.00    +0.044 C 
ATOM     21  C   UNL     1       9.477   1.701   0.325  0.00  0.00    -0.049 A 
ATOM     22  C   UNL     1       8.798   1.946   1.505  0.00  0.00    +0.004 A 
ATOM     23  C   UNL     1       8.080   0.935   2.116  0.00  0.00    +0.005 A 
ATOM     24  C   UNL     1       8.033  -0.323   1.546  0.00  0.00    -0.029 A 
ATOM     25  C   UNL     1       8.719  -0.574   0.364  0.00  0.00    +0.035 A 
ATOM     26  C   UNL     1       9.440   0.445  -0.247  0.00  0.00    +0.027 A 
ATOM     27  C   UNL     1       7.245  -1.423   2.209  0.00  0.00    +0.045 C 
ENDBRANCH  18  25
ENDBRANCH   1  18
BRANCH   3  28
ATOM     28  N   UNL     1       4.304  -0.746  -1.853  0.00  0.00    -0.322 N 
BRANCH  28  29
ATOM     29  C   UNL     1       4.731   0.479  -2.543  0.00  0.00    +0.133 C 
BRANCH  29  30
ATOM     30  C   UNL     1       5.027   0.161  -4.010  0.00  0.00    +0.174 C 
BRANCH  30  31
ATOM     31  O   UNL     1       3.821  -0.240  -4.663  0.00  0.00    -0.393 OA
ATOM     32  H   UNL     1       3.934  -0.457  -5.599  0.00  0.00    +0.209 HD
ENDBRANCH  30  31
ENDBRANCH  29  30
ENDBRANCH  28  29
BRANCH  28  33
ATOM     33  C   UNL     1       3.786  -0.442  -0.513  0.00  0.00    +0.140 C 
BRANCH  33  34
ATOM     34  C   UNL     1       2.517   0.362  -0.635  0.00  0.00    -0.030 A 
ATOM     35  C   UNL     1       1.296  -0.281  -0.709  0.00  0.00    +0.005 A 
ATOM     36  C   UNL     1       0.132   0.457  -0.821  0.00  0.00    +0.000 A 
ATOM     37  C   UNL     1       0.189   1.837  -0.859  0.00  0.00    +0.000 A 
ATOM     38  C   UNL     1       1.411   2.480  -0.785  0.00  0.00    +0.000 A 
ATOM     39  C   UNL     1       2.575   1.743  -0.673  0.00  0.00    +0.005 A 
ENDBRANCH  33  34
ENDBRANCH  28  33
ENDBRANCH   3  28
TORSDOF 8
