REMARK  Name = ZINC40985776
REMARK  14 active torsions:
REMARK  status: ('A' for Active; 'I' for Inactive)
REMARK    1  A    between atoms: C_1  and  C_2
REMARK    2  A    between atoms: C_2  and  C_3
REMARK    3  A    between atoms: C_2  and  C_4
REMARK    4  A    between atoms: C_2  and  C_5
REMARK    5  A    between atoms: C_8  and  C_11
REMARK    6  A    between atoms: C_11  and  C_13
REMARK    7  A    between atoms: C_11  and  N_32
REMARK    8  A    between atoms: C_13  and  N_14
REMARK    9  A    between atoms: C_15  and  C_17
REMARK   10  A    between atoms: C_20  and  S_24
REMARK   11  A    between atoms: S_24  and  C_25
REMARK   12  A    between atoms: C_25  and  C_26
REMARK   13  A    between atoms: N_32  and  C_33
REMARK   14  A    between atoms: N_32  and  C_34
REMARK                            x       y       z     vdW  Elec       q    Type
REMARK                         _______ _______ _______ _____ _____    ______ ____
ROOT
ATOM      1  N   UNL     1       2.514  -4.172  -4.023  0.00  0.00    -0.312 N 
ATOM      2  C   UNL     1       2.977  -5.379  -3.643  0.00  0.00    +0.248 C 
ATOM      3  O   UNL     1       4.166  -5.625  -3.718  0.00  0.00    -0.270 OA
ATOM      4  H   UNL     1       1.566  -3.976  -3.963  0.00  0.00    +0.149 HD
ENDROOT
BRANCH   2   5
ATOM      5  C   UNL     1       2.043  -6.401  -3.134  0.00  0.00    +0.092 A 
ATOM      6  C   UNL     1       0.670  -6.138  -3.045  0.00  0.00    +0.129 A 
ATOM      7  N   UNL     1      -0.133  -7.079  -2.586  0.00  0.00    -0.229 NA
ATOM      8  C   UNL     1       0.344  -8.260  -2.211  0.00  0.00    +0.190 A 
ATOM      9  N   UNL     1       1.637  -8.549  -2.279  0.00  0.00    -0.209 NA
ATOM     10  C   UNL     1       2.506  -7.663  -2.733  0.00  0.00    +0.146 A 
ATOM     11 CL   UNL     1       4.195  -8.053  -2.825  0.00  0.00    -0.061 Cl
BRANCH   8  12
ATOM     12  S   UNL     1      -0.773  -9.480  -1.604  0.00  0.00    -0.081 S 
BRANCH  12  13
ATOM     13  C   UNL     1       0.291 -10.898  -1.220  0.00  0.00    +0.112 C 
BRANCH  13  14
ATOM     14  C   UNL     1      -0.551 -12.027  -0.685  0.00  0.00    -0.037 A 
ATOM     15  C   UNL     1      -0.790 -12.128   0.673  0.00  0.00    +0.004 A 
ATOM     16  C   UNL     1      -1.562 -13.164   1.164  0.00  0.00    +0.000 A 
ATOM     17  C   UNL     1      -2.095 -14.099   0.298  0.00  0.00    +0.000 A 
ATOM     18  C   UNL     1      -1.857 -13.999  -1.060  0.00  0.00    +0.000 A 
ATOM     19  C   UNL     1      -1.089 -12.960  -1.552  0.00  0.00    +0.004 A 
ENDBRANCH  13  14
ENDBRANCH  12  13
ENDBRANCH   8  12
ENDBRANCH   2   5
BRANCH   1  20
ATOM     20  C   UNL     1       3.441  -3.157  -4.528  0.00  0.00    +0.094 C 
BRANCH  20  21
ATOM     21  C   UNL     1       2.686  -1.847  -4.763  0.00  0.00    -0.021 C 
BRANCH  21  25
ATOM     22  C   UNL     1       1.277  -0.329  -1.027  0.00  0.00    -0.042 A 
ATOM     23  C   UNL     1       0.416  -1.015  -1.863  0.00  0.00    +0.004 A 
ATOM     24  C   UNL     1       0.872  -1.506  -3.072  0.00  0.00    +0.002 A 
ATOM     25  C   UNL     1       2.189  -1.311  -3.445  0.00  0.00    -0.059 A 
ATOM     26  C   UNL     1       3.050  -0.625  -2.609  0.00  0.00    +0.002 A 
ATOM     27  C   UNL     1       2.593  -0.130  -1.402  0.00  0.00    +0.004 A 
BRANCH  22  29
ATOM     28  C   UNL     1       0.947   1.727   0.320  0.00  0.00    +0.015 C 
ATOM     29  C   UNL     1       0.780   0.206   0.291  0.00  0.00    -0.013 C 
ATOM     30  C   UNL     1       1.588  -0.417   1.432  0.00  0.00    +0.015 C 
ATOM     31  C   UNL     1      -0.698  -0.148   0.461  0.00  0.00    +0.015 C 
ENDBRANCH  22  29
ENDBRANCH  21  25
BRANCH  21  32
ATOM     32  N   UNL     1       3.587  -0.866  -5.382  0.00  0.00    +0.382 N 
ATOM     33  C   UNL     1       4.058  -1.381  -6.675  0.00  0.00    -0.096 C 
ATOM     34  C   UNL     1       2.867   0.397  -5.591  0.00  0.00    -0.096 C 
ATOM     35  H   UNL     1       4.378  -0.706  -4.776  0.00  0.00    -0.082 HD
ENDBRANCH  21  32
ENDBRANCH  20  21
ENDBRANCH   1  20
TORSDOF 9
