REMARK  Name = ZINC40395063
REMARK  6 active torsions:
REMARK  status: ('A' for Active; 'I' for Inactive)
REMARK    1  A    between atoms: C_3  and  C_6
REMARK    2  A    between atoms: C_10  and  C_16
REMARK    3  A    between atoms: C_16  and  N_17
REMARK    4  A    between atoms: N_17  and  C_18
REMARK    5  A    between atoms: N_23  and  C_24
REMARK    6  A    between atoms: C_24  and  C_25
REMARK                            x       y       z     vdW  Elec       q    Type
REMARK                         _______ _______ _______ _____ _____    ______ ____
ROOT
ATOM      1  C   UNL     1       3.574   0.619  -0.029  0.00  0.00    +0.219 A 
ATOM      2  N   UNL     1       4.378   1.697  -0.026  0.00  0.00    -0.186 NA
ATOM      3  C   UNL     1       5.627   1.313  -0.041  0.00  0.00    +0.258 A 
ATOM      4  N   UNL     1       6.790   2.016  -0.036  0.00  0.00    -0.196 NA
ATOM      5  C   UNL     1       7.908   1.363  -0.246  0.00  0.00    +0.127 A 
ATOM      6  N   UNL     1       7.918   0.020  -0.506  0.00  0.00    -0.312 N 
ATOM      7  C   UNL     1       6.837  -0.754  -0.084  0.00  0.00    +0.226 A 
ATOM      8  N   UNL     1       5.635  -0.066  -0.058  0.00  0.00    -0.163 N 
ATOM      9  N   UNL     1       4.313  -0.478  -0.042  0.00  0.00    -0.137 NA
ATOM     10  N   UNL     1       6.947  -2.007   0.253  0.00  0.00    -0.266 NA
ATOM     11  H   UNL     1       7.812  -2.445   0.217  0.00  0.00    +0.190 HD
ATOM     12  H   UNL     1       8.663  -0.387  -0.975  0.00  0.00    +0.170 HD
ENDROOT
BRANCH   1  15
ATOM     13  C   UNL     1      -0.016   1.343   0.009  0.00  0.00    +0.042 A 
ATOM     14  C   UNL     1       1.325   1.774  -0.001  0.00  0.00    +0.053 A 
ATOM     15  C   UNL     1       2.096   0.655  -0.014  0.00  0.00    +0.173 A 
ATOM     16  O   UNL     1       1.280  -0.417  -0.012  0.00  0.00    -0.460 OA
ATOM     17  C   UNL     1       0.002  -0.004   0.002  0.00  0.00    +0.196 A 
ENDBRANCH   1  15
BRANCH   5  18
ATOM     18  C   UNL     1       9.216   2.111  -0.202  0.00  0.00    +0.154 C 
BRANCH  18  19
ATOM     19  N   UNL     1       8.959   3.528   0.091  0.00  0.00    -0.323 NA
ATOM     20  H   UNL     1       8.321   3.926  -0.582  0.00  0.00    +0.121 HD
BRANCH  19  21
ATOM     21  C   UNL     1      10.213   4.290   0.142  0.00  0.00    -0.000 C 
ATOM     22  C   UNL     1      10.044   5.631  -0.603  0.00  0.00    -0.002 C 
ATOM     23  C   UNL     1       9.735   6.631   0.543  0.00  0.00    -0.019 C 
ATOM     24  C   UNL     1      10.620   6.077   1.688  0.00  0.00    -0.076 C 
ATOM     25  N   UNL     1      10.553   4.604   1.542  0.00  0.00    +0.392 N 
ATOM     26  H   UNL     1       9.842   4.234   2.155  0.00  0.00    -0.079 HD
BRANCH  25  27
ATOM     27  C   UNL     1      11.853   4.011   1.881  0.00  0.00    -0.041 C 
BRANCH  27  28
ATOM     28  C   UNL     1      12.139   4.229   3.344  0.00  0.00    -0.060 A 
ATOM     29  C   UNL     1      12.806   5.366   3.776  0.00  0.00    +0.021 A 
ATOM     30  C   UNL     1      13.051   5.532   5.125  0.00  0.00    +0.112 A 
ATOM     31  N   UNL     1      12.659   4.626   5.999  0.00  0.00    -0.244 NA
ATOM     32  C   UNL     1      12.022   3.532   5.626  0.00  0.00    +0.129 A 
ATOM     33  C   UNL     1      11.736   3.301   4.291  0.00  0.00    +0.042 A 
ATOM     34 CL   UNL     1      11.530   2.374   6.822  0.00  0.00    -0.062 Cl
ENDBRANCH  27  28
ENDBRANCH  25  27
ENDBRANCH  19  21
ENDBRANCH  18  19
ENDBRANCH   5  18
TORSDOF 6
