REMARK  Name = ZINC40562682
REMARK  8 active torsions:
REMARK  status: ('A' for Active; 'I' for Inactive)
REMARK    1  A    between atoms: C_1  and  C_2
REMARK    2  A    between atoms: C_2  and  C_3
REMARK    3  A    between atoms: C_3  and  C_5
REMARK    4  A    between atoms: C_3  and  N_6
REMARK    5  A    between atoms: C_10  and  C_11
REMARK    6  A    between atoms: C_17  and  C_30
REMARK    7  A    between atoms: C_20  and  N_21
REMARK    8  A    between atoms: C_24  and  C_27
REMARK                            x       y       z     vdW  Elec       q    Type
REMARK                         _______ _______ _______ _____ _____    ______ ____
ROOT
ATOM      1  C   UNL     1       6.290   1.839   2.544  0.00  0.00    +0.017 A 
ATOM      2  C   UNL     1       6.796   1.280   1.375  0.00  0.00    +0.021 A 
ATOM      3  C   UNL     1       8.142   1.526   1.052  0.00  0.00    +0.001 A 
ATOM      4  C   UNL     1       8.717   0.992  -0.114  0.00  0.00    +0.010 A 
ATOM      5  C   UNL     1      10.024   1.250  -0.399  0.00  0.00    +0.001 A 
ATOM      6  C   UNL     1      10.798   2.037   0.451  0.00  0.00    +0.005 A 
ATOM      7  C   UNL     1      10.272   2.570   1.589  0.00  0.00    -0.024 A 
ATOM      8  C   UNL     1       8.928   2.327   1.918  0.00  0.00    +0.076 A 
ATOM      9  N   UNL     1       8.394   2.844   3.032  0.00  0.00    -0.231 NA
ATOM     10  C   UNL     1       7.138   2.634   3.357  0.00  0.00    +0.129 A 
ATOM     11  C   UNL     1      11.130   3.417   2.492  0.00  0.00    +0.046 C 
ENDROOT
BRANCH   1  16
ATOM     12  N   UNL     1       1.958   0.336   1.102  0.00  0.00    -0.252 N 
ATOM     13  C   UNL     1       2.608   0.710   2.191  0.00  0.00    +0.259 C 
ATOM     14  O   UNL     1       2.087   0.671   3.291  0.00  0.00    -0.269 OA
ATOM     15  C   UNL     1       3.997   1.176   2.007  0.00  0.00    +0.077 C 
ATOM     16  C   UNL     1       4.892   1.615   2.928  0.00  0.00    +0.031 C 
ATOM     17  S   UNL     1       4.175   1.004   0.236  0.00  0.00    -0.061 S 
ATOM     18  C   UNL     1       2.541   0.374  -0.114  0.00  0.00    +0.121 C 
ATOM     19  S   UNL     1       1.874  -0.070  -1.627  0.00  0.00    -0.027 S 
BRANCH  12  20
ATOM     20  C   UNL     1       0.577  -0.137   1.219  0.00  0.00    +0.080 C 
ATOM     21  C   UNL     1       0.485  -1.576   0.707  0.00  0.00    +0.028 C 
BRANCH  20  23
ATOM     22  C   UNL     1      -0.346   2.172   0.975  0.00  0.00    +0.006 C 
ATOM     23  C   UNL     1      -0.342   0.760   0.386  0.00  0.00    +0.019 C 
ENDBRANCH  20  23
ENDBRANCH  12  20
ENDBRANCH   1  16
BRANCH  10  24
ATOM     24  N   UNL     1       6.634   3.196   4.516  0.00  0.00    -0.315 N 
ATOM     25  C   UNL     1       6.709   2.472   5.792  0.00  0.00    +0.107 C 
ATOM     26  C   UNL     1       7.383   3.373   6.831  0.00  0.00    +0.031 C 
ATOM     27  C   UNL     1       6.634   4.705   6.908  0.00  0.00    +0.078 C 
ATOM     28  C   UNL     1       6.696   5.406   5.548  0.00  0.00    +0.031 C 
ATOM     29  C   UNL     1       6.019   4.530   4.496  0.00  0.00    +0.107 C 
BRANCH  27  30
ATOM     30  C   UNL     1       7.274   5.582   7.953  0.00  0.00    +0.214 C 
ATOM     31  O   UNL     1       8.234   5.181   8.576  0.00  0.00    -0.276 OA
ATOM     32  N   UNL     1       6.779   6.812   8.196  0.00  0.00    -0.329 N 
ATOM     33  H   UNL     1       6.011   7.133   7.698  0.00  0.00    +0.145 HD
ATOM     34  H   UNL     1       7.191   7.376   8.870  0.00  0.00    +0.145 HD
ENDBRANCH  27  30
ENDBRANCH  10  24
TORSDOF 5
