REMARK  Name = ZINC12170545
REMARK  10 active torsions:
REMARK  status: ('A' for Active; 'I' for Inactive)
REMARK    1  A    between atoms: N_13  and  C_16
REMARK    2  A    between atoms: C_16  and  C_17
REMARK    3  A    between atoms: C_22  and  C_23
REMARK    4  A    between atoms: C_22  and  N_81
REMARK    5  A    between atoms: C_23  and  C_25
REMARK    6  A    between atoms: C_23  and  O_39
REMARK    7  A    between atoms: C_25  and  O_26
REMARK    8  A    between atoms: O_26  and  C_27
REMARK    9  A    between atoms: C_27  and  C_28
REMARK   10  A    between atoms: C_28  and  C_29
REMARK                            x       y       z     vdW  Elec       q    Type
REMARK                         _______ _______ _______ _____ _____    ______ ____
ROOT
ATOM      1  C   UNL     1      -5.161   8.939   6.762  0.00  0.00    +0.003 C 
ATOM      2  C   UNL     1      -3.727   9.474   6.707  0.00  0.00    -0.014 C 
ATOM      3  C   UNL     1      -3.117   9.145   5.343  0.00  0.00    -0.078 C 
ATOM      4  C   UNL     1      -4.494   7.161   5.141  0.00  0.00    -0.078 C 
ATOM      5  C   UNL     1      -5.145   7.431   6.500  0.00  0.00    -0.014 C 
ATOM      6  N   UNL     1      -3.109   7.677   5.162  0.00  0.00    +0.381 N 
ATOM      7  H   UNL     1      -2.605   7.248   5.947  0.00  0.00    -0.082 HD
ENDROOT
BRANCH   1   8
ATOM      8  C   UNL     1      -5.755   9.212   8.145  0.00  0.00    +0.120 C 
BRANCH   8  21
ATOM      9  C   UNL     1     -10.579   5.445   8.907  0.00  0.00    +0.001 A 
ATOM     10  C   UNL     1     -11.567   6.325   8.570  0.00  0.00    +0.008 A 
ATOM     11  C   UNL     1     -11.241   7.641   8.201  0.00  0.00    -0.016 A 
ATOM     12  C   UNL     1     -12.221   8.584   7.846  0.00  0.00    +0.008 A 
ATOM     13  C   UNL     1     -11.855   9.852   7.495  0.00  0.00    +0.001 A 
ATOM     14  C   UNL     1     -10.522  10.247   7.479  0.00  0.00    +0.014 A 
ATOM     15  C   UNL     1      -9.524   9.347   7.822  0.00  0.00    +0.046 A 
ATOM     16  C   UNL     1      -9.884   8.030   8.187  0.00  0.00    +0.006 A 
ATOM     17  C   UNL     1      -8.875   7.105   8.540  0.00  0.00    +0.046 A 
ATOM     18  C   UNL     1      -9.239   5.815   8.899  0.00  0.00    +0.014 A 
ATOM     19  C   UNL     1      -7.473   7.547   8.514  0.00  0.00    +0.254 C 
ATOM     20  O   UNL     1      -6.588   6.769   8.814  0.00  0.00    -0.270 OA
ATOM     21  N   UNL     1      -7.163   8.809   8.160  0.00  0.00    -0.234 N 
ATOM     22  C   UNL     1      -8.101   9.715   7.823  0.00  0.00    +0.254 C 
ATOM     23  O   UNL     1      -7.768  10.844   7.516  0.00  0.00    -0.270 OA
ENDBRANCH   8  21
ENDBRANCH   1   8
BRANCH   6  24
ATOM     24  C   UNL     1      -2.421   7.328   3.902  0.00  0.00    -0.045 C 
BRANCH  24  25
ATOM     25  C   UNL     1      -2.231   5.811   3.849  0.00  0.00    +0.124 C 
BRANCH  25  26
ATOM     26  O   UNL     1      -1.461   5.387   4.975  0.00  0.00    -0.391 OA
ATOM     27  H   UNL     1      -0.580   5.784   5.021  0.00  0.00    +0.210 HD
ENDBRANCH  25  26
BRANCH  25  28
ATOM     28  C   UNL     1      -1.499   5.433   2.559  0.00  0.00    +0.189 C 
BRANCH  28  29
ATOM     29  O   UNL     1      -1.424   4.010   2.453  0.00  0.00    -0.377 OA
BRANCH  29  30
ATOM     30  C   UNL     1      -0.756   3.549   1.278  0.00  0.00    +0.160 C 
BRANCH  30  31
ATOM     31  C   UNL     1      -0.735   2.019   1.269  0.00  0.00    +0.035 C 
BRANCH  31  32
ATOM     32  C   UNL     1      -0.019   1.526   0.010  0.00  0.00    -0.026 C 
ATOM     33  C   UNL     1       1.417   2.055  -0.000  0.00  0.00    +0.010 C 
ATOM     34  C   UNL     1       2.133   1.562  -1.259  0.00  0.00    -0.010 C 
ATOM     35  C   UNL     1       2.154   0.032  -1.268  0.00  0.00    +0.007 C 
ATOM     36  C   UNL     1       0.718  -0.497  -1.257  0.00  0.00    -0.010 C 
ATOM     37  C   UNL     1       0.002  -0.004   0.002  0.00  0.00    +0.010 C 
ATOM     38  C   UNL     1      -0.022   0.009  -2.496  0.00  0.00    +0.007 C 
ATOM     39  C   UNL     1      -0.043   1.539  -2.488  0.00  0.00    -0.010 C 
ATOM     40  C   UNL     1       1.393   2.069  -2.499  0.00  0.00    +0.007 C 
ATOM     41  C   UNL     1      -0.759   2.033  -1.229  0.00  0.00    +0.010 C 
ENDBRANCH  31  32
ENDBRANCH  30  31
ENDBRANCH  29  30
ENDBRANCH  28  29
ENDBRANCH  25  28
ENDBRANCH  24  25
ENDBRANCH   6  24
TORSDOF 10
