REMARK  Name = ZINC09969867
REMARK  7 active torsions:
REMARK  status: ('A' for Active; 'I' for Inactive)
REMARK    1  A    between atoms: C_1  and  C_2
REMARK    2  A    between atoms: C_2  and  C_32
REMARK    3  A    between atoms: C_7  and  C_31
REMARK    4  A    between atoms: C_10  and  N_11
REMARK    5  A    between atoms: C_10  and  N_61
REMARK    6  A    between atoms: N_19  and  N_20
REMARK    7  A    between atoms: C_21  and  C_23
REMARK                            x       y       z     vdW  Elec       q    Type
REMARK                         _______ _______ _______ _____ _____    ______ ____
ROOT
ATOM      1  N   UNL     1      -2.695   4.824  -0.688  0.00  0.00    -0.282 N 
ATOM      2  C   UNL     1      -3.667   4.723   0.302  0.00  0.00    +0.044 A 
ATOM      3  C   UNL     1      -4.375   3.632   0.793  0.00  0.00    +0.024 A 
ATOM      4  C   UNL     1      -5.298   3.803   1.805  0.00  0.00    +0.002 A 
ATOM      5  C   UNL     1      -5.525   5.057   2.347  0.00  0.00    +0.001 A 
ATOM      6  C   UNL     1      -4.827   6.151   1.877  0.00  0.00    +0.012 A 
ATOM      7  C   UNL     1      -3.896   5.988   0.858  0.00  0.00    +0.028 A 
ATOM      8  C   UNL     1      -3.000   6.927   0.143  0.00  0.00    +0.153 C 
ATOM      9  N   UNL     1      -2.883   8.220   0.332  0.00  0.00    -0.174 NA
ATOM     10  C   UNL     1      -2.269   6.091  -0.830  0.00  0.00    +0.270 C 
ATOM     11  O   UNL     1      -1.429   6.479  -1.620  0.00  0.00    -0.268 OA
ENDROOT
BRANCH   9  12
ATOM     12  N   UNL     1      -1.979   8.961  -0.440  0.00  0.00    -0.202 N 
ATOM     13  C   UNL     1      -1.859  10.290  -0.246  0.00  0.00    +0.265 C 
ATOM     14  O   UNL     1      -2.535  10.844   0.599  0.00  0.00    -0.268 OA
ATOM     15  H   UNL     1      -1.440   8.519  -1.114  0.00  0.00    +0.178 HD
BRANCH  13  16
ATOM     16  C   UNL     1      -0.906  11.072  -1.060  0.00  0.00    +0.056 A 
ATOM     17  C   UNL     1      -0.776  12.454  -0.872  0.00  0.00    +0.016 A 
ATOM     18  C   UNL     1       0.134  13.139  -1.657  0.00  0.00    +0.020 A 
ATOM     19  C   UNL     1       0.872  12.446  -2.600  0.00  0.00    +0.111 A 
ATOM     20  N   UNL     1       0.724  11.145  -2.759  0.00  0.00    -0.263 NA
ATOM     21  C   UNL     1      -0.124  10.447  -2.033  0.00  0.00    +0.123 A 
ENDBRANCH  13  16
ENDBRANCH   9  12
BRANCH   1  22
ATOM     22  C   UNL     1      -2.203   3.694  -1.480  0.00  0.00    +0.039 C 
BRANCH  22  33
ATOM     23  C   UNL     1      -1.192   1.531  -4.028  0.00  0.00    +0.011 C 
ATOM     24  C   UNL     1       0.143   1.633  -3.264  0.00  0.00    -0.036 C 
ATOM     25  C   UNL     1       0.319   3.048  -2.760  0.00  0.00    -0.009 C 
ATOM     26  C   UNL     1       0.223   3.256  -1.258  0.00  0.00    -0.065 C 
ATOM     27  C   UNL     1       1.046   2.123  -0.581  0.00  0.00    -0.011 C 
ATOM     28  C   UNL     1       0.072   0.934  -0.800  0.00  0.00    -0.048 C 
ATOM     29  C   UNL     1       0.218   0.503  -2.258  0.00  0.00    +0.011 C 
ATOM     30  C   UNL     1      -1.328   1.571  -0.621  0.00  0.00    -0.070 C 
ATOM     31  C   UNL     1       0.320  -0.215   0.188  0.00  0.00    +0.009 C 
ATOM     32  C   UNL     1       1.254   1.380  -4.316  0.00  0.00    +0.011 C 
ATOM     33  N   UNL     1      -1.121   3.017  -0.687  0.00  0.00    +0.393 N 
ATOM     34  H   UNL     1      -1.143   3.397   0.267  0.00  0.00    -0.079 HD
ENDBRANCH  22  33
ENDBRANCH   1  22
TORSDOF 4
