REMARK  Name = ZINC66054817
REMARK  2 active torsions:
REMARK  status: ('A' for Active; 'I' for Inactive)
REMARK    1  A    between atoms: C_1  and  C_2
REMARK    2  A    between atoms: C_10  and  C_13
REMARK                            x       y       z     vdW  Elec       q    Type
REMARK                         _______ _______ _______ _____ _____    ______ ____
ROOT
ATOM      1  C   UNL     1      -0.018   1.503   0.010  0.00  0.00    +0.088 C 
ATOM      2  C   UNL     1       0.002  -0.004   0.002  0.00  0.00    +0.128 A 
ATOM      3  N   UNL     1       0.005  -0.638  -1.153  0.00  0.00    -0.237 NA
ATOM      4  C   UNL     1       0.023  -1.962  -1.201  0.00  0.00    +0.050 A 
ATOM      5  C   UNL     1       0.039  -2.676  -0.016  0.00  0.00    +0.011 A 
ATOM      6  C   UNL     1       0.034  -1.975   1.181  0.00  0.00    +0.136 A 
ATOM      7  N   UNL     1       0.022  -0.651   1.150  0.00  0.00    -0.221 NA
ATOM      8 CL   UNL     1       0.054  -2.821   2.697  0.00  0.00    -0.062 Cl
ATOM      9  C   UNL     1       0.058  -4.158  -0.309  0.00  0.00    +0.043 C 
ATOM     10  C   UNL     1      -0.384  -4.283  -1.783  0.00  0.00    -0.004 C 
ATOM     11  C   UNL     1       0.032  -2.918  -2.372  0.00  0.00    +0.059 C 
ATOM     12  C   UNL     1       0.357  -5.428  -2.478  0.00  0.00    +0.008 C 
ENDROOT
TORSDOF 0
