REMARK  Name = ZINC66153481
REMARK  10 active torsions:
REMARK  status: ('A' for Active; 'I' for Inactive)
REMARK    1  A    between atoms: C_1  and  C_2
REMARK    2  A    between atoms: C_2  and  C_3
REMARK    3  A    between atoms: C_2  and  C_4
REMARK    4  A    between atoms: C_2  and  N_5
REMARK    5  A    between atoms: C_6  and  C_8
REMARK    6  A    between atoms: C_11  and  N_14
REMARK    7  A    between atoms: C_15  and  C_17
REMARK    8  A    between atoms: C_17  and  C_18
REMARK    9  A    between atoms: C_18  and  C_19
REMARK   10  A    between atoms: C_22  and  N_25
REMARK                            x       y       z     vdW  Elec       q    Type
REMARK                         _______ _______ _______ _____ _____    ______ ____
ROOT
ATOM      1  N   UNL     1       4.612  -1.952  -6.069  0.00  0.00    -0.285 N 
ATOM      2  C   UNL     1       3.900  -2.271  -7.168  0.00  0.00    +0.218 C 
ATOM      3  O   UNL     1       2.703  -2.082  -7.191  0.00  0.00    -0.275 OA
ATOM      4  H   UNL     1       5.579  -2.031  -6.077  0.00  0.00    +0.155 HD
ENDROOT
BRANCH   1   8
ATOM      5  C   UNL     1       2.661  -0.625  -2.636  0.00  0.00    +0.037 A 
ATOM      6  C   UNL     1       2.052  -1.568  -3.467  0.00  0.00    +0.015 A 
ATOM      7  C   UNL     1       2.699  -2.005  -4.601  0.00  0.00    +0.024 A 
ATOM      8  C   UNL     1       3.959  -1.507  -4.920  0.00  0.00    +0.033 A 
ATOM      9  C   UNL     1       4.568  -0.567  -4.094  0.00  0.00    +0.024 A 
ATOM     10  C   UNL     1       3.924  -0.123  -2.962  0.00  0.00    +0.015 A 
BRANCH   5  12
ATOM     11  N   UNL     1       0.752  -0.639  -1.106  0.00  0.00    -0.307 N 
ATOM     12  C   UNL     1       1.970  -0.154  -1.419  0.00  0.00    +0.244 C 
ATOM     13  O   UNL     1       2.499   0.670  -0.700  0.00  0.00    -0.270 OA
ATOM     14  H   UNL     1       0.330  -1.298  -1.680  0.00  0.00    +0.150 HD
BRANCH  11  16
ATOM     15  C   UNL     1      -0.150   1.339   0.013  0.00  0.00    +0.031 C 
ATOM     16  C   UNL     1       0.066  -0.173   0.101  0.00  0.00    +0.026 C 
ATOM     17  C   UNL     1       0.919  -0.495   1.329  0.00  0.00    +0.031 C 
ATOM     18  C   UNL     1      -1.288  -0.875   0.222  0.00  0.00    +0.031 C 
ENDBRANCH  11  16
ENDBRANCH   5  12
ENDBRANCH   1   8
BRANCH   2  19
ATOM     19  C   UNL     1       4.593  -2.863  -8.368  0.00  0.00    +0.101 C 
BRANCH  19  20
ATOM     20  C   UNL     1       3.565  -3.131  -9.469  0.00  0.00    +0.044 C 
BRANCH  20  21
ATOM     21  C   UNL     1       4.257  -3.724 -10.669  0.00  0.00    -0.047 A 
ATOM     22  C   UNL     1       4.761  -2.894 -11.654  0.00  0.00    +0.005 A 
ATOM     23  C   UNL     1       5.396  -3.433 -12.755  0.00  0.00    +0.023 A 
ATOM     24  C   UNL     1       5.528  -4.811 -12.873  0.00  0.00    +0.025 A 
ATOM     25  C   UNL     1       5.020  -5.642 -11.882  0.00  0.00    +0.023 A 
ATOM     26  C   UNL     1       4.391  -5.095 -10.781  0.00  0.00    +0.005 A 
BRANCH  24  27
ATOM     27  N   UNL     1       6.169  -5.360 -13.986  0.00  0.00    -0.358 N 
ATOM     28  H   UNL     1       6.523  -4.779 -14.677  0.00  0.00    +0.142 HD
ATOM     29  H   UNL     1       6.261  -6.323 -14.067  0.00  0.00    +0.142 HD
ENDBRANCH  24  27
ENDBRANCH  20  21
ENDBRANCH  19  20
ENDBRANCH   2  19
TORSDOF 7
