REMARK  Name = ZINC51204168
REMARK  9 active torsions:
REMARK  status: ('A' for Active; 'I' for Inactive)
REMARK    1  A    between atoms: C_1  and  C_2
REMARK    2  A    between atoms: C_2  and  C_3
REMARK    3  A    between atoms: C_2  and  N_4
REMARK    4  A    between atoms: N_7  and  C_8
REMARK    5  A    between atoms: C_11  and  C_14
REMARK    6  A    between atoms: C_14  and  N_15
REMARK    7  A    between atoms: C_16  and  C_18
REMARK    8  A    between atoms: C_18  and  N_19
REMARK    9  A    between atoms: C_23  and  O_26
REMARK                            x       y       z     vdW  Elec       q    Type
REMARK                         _______ _______ _______ _____ _____    ______ ____
ROOT
ATOM      1  C   UNL     1      -3.943  -1.311  -2.369  0.00  0.00    +0.035 A 
ATOM      2  C   UNL     1      -3.260  -1.047  -3.549  0.00  0.00    +0.023 A 
ATOM      3  C   UNL     1      -3.882  -1.248  -4.766  0.00  0.00    +0.007 A 
ATOM      4  C   UNL     1      -5.185  -1.711  -4.809  0.00  0.00    -0.030 A 
ATOM      5  C   UNL     1      -5.868  -1.974  -3.636  0.00  0.00    +0.007 A 
ATOM      6  C   UNL     1      -5.249  -1.781  -2.417  0.00  0.00    +0.023 A 
ENDROOT
BRANCH   1  10
ATOM      7  N   UNL     1      -2.902  -1.800   1.056  0.00  0.00    -0.297 N 
ATOM      8  C   UNL     1      -3.575  -1.937  -0.103  0.00  0.00    +0.304 C 
ATOM      9  O   UNL     1      -4.417  -2.806  -0.219  0.00  0.00    -0.253 OA
ATOM     10  N   UNL     1      -3.315  -1.109  -1.135  0.00  0.00    -0.269 N 
ATOM     11  H   UNL     1      -2.230  -1.106   1.148  0.00  0.00    +0.151 HD
ATOM     12  H   UNL     1      -2.693  -0.374  -1.022  0.00  0.00    +0.156 HD
BRANCH   7  14
ATOM     13  C   UNL     1      -2.364  -3.982   2.022  0.00  0.00    +0.027 C 
ATOM     14  C   UNL     1      -3.184  -2.700   2.177  0.00  0.00    +0.068 C 
ATOM     15  C   UNL     1      -2.810  -2.010   3.491  0.00  0.00    +0.027 C 
ENDBRANCH   7  14
ENDBRANCH   1  10
BRANCH   4  16
ATOM     16  C   UNL     1      -5.861  -1.929  -6.139  0.00  0.00    +0.139 C 
BRANCH  16  17
ATOM     17  N   UNL     1      -5.617  -3.300  -6.592  0.00  0.00    -0.313 N 
ATOM     18  C   UNL     1      -6.129  -3.724  -7.764  0.00  0.00    +0.197 C 
ATOM     19  O   UNL     1      -6.791  -2.969  -8.444  0.00  0.00    -0.278 OA
ATOM     20  H   UNL     1      -5.087  -3.904  -6.048  0.00  0.00    +0.149 HD
BRANCH  18  21
ATOM     21  C   UNL     1      -5.878  -5.135  -8.230  0.00  0.00    +0.019 C 
BRANCH  21  22
ATOM     22  N   UNL     1      -6.537  -5.347  -9.526  0.00  0.00    +0.387 N 
ATOM     23  C   UNL     1      -7.991  -5.238  -9.357  0.00  0.00    -0.078 C 
ATOM     24  C   UNL     1      -8.678  -5.377 -10.717  0.00  0.00    -0.016 C 
ATOM     25  C   UNL     1      -8.333  -6.743 -11.319  0.00  0.00    +0.027 C 
ATOM     26  C   UNL     1      -6.811  -6.875 -11.422  0.00  0.00    +0.098 C 
ATOM     27  C   UNL     1      -6.193  -6.680 -10.035  0.00  0.00    -0.047 C 
ATOM     28  H   UNL     1      -6.222  -4.647 -10.181  0.00  0.00    -0.081 HD
BRANCH  26  29
ATOM     29  O   UNL     1      -6.477  -8.174 -11.915  0.00  0.00    -0.394 OA
ATOM     30  H   UNL     1      -6.839  -8.367 -12.791  0.00  0.00    +0.210 HD
ENDBRANCH  26  29
ENDBRANCH  21  22
ENDBRANCH  18  21
ENDBRANCH  16  17
ENDBRANCH   4  16
TORSDOF 7
