REMARK  Name = ZINC38989927
REMARK  3 active torsions:
REMARK  status: ('A' for Active; 'I' for Inactive)
REMARK    1  A    between atoms: C_1  and  O_2
REMARK    2  A    between atoms: O_2  and  C_3
REMARK    3  A    between atoms: C_10  and  C_18
REMARK                            x       y       z     vdW  Elec       q    Type
REMARK                         _______ _______ _______ _____ _____    ______ ____
ROOT
ATOM      1  C   UNL     1      -0.834  -0.958   0.104  0.00  0.00    +0.121 A 
ATOM      2  C   UNL     1      -1.943  -0.095   0.053  0.00  0.00    +0.047 A 
ATOM      3  C   UNL     1      -3.213  -0.549   0.013  0.00  0.00    +0.029 A 
ATOM      4  C   UNL     1      -3.474  -1.991   0.021  0.00  0.00    +0.043 A 
ATOM      5  N   UNL     1      -4.593  -2.679   0.012  0.00  0.00    -0.376 N 
ATOM      6  C   UNL     1      -4.261  -4.098  -0.063  0.00  0.00    +0.128 C 
ATOM      7  C   UNL     1      -4.875  -4.908   1.083  0.00  0.00    +0.121 C 
ATOM      8  N   UNL     1      -4.256  -6.243   1.089  0.00  0.00    -0.307 NA
ATOM      9  C   UNL     1      -2.833  -6.219   1.440  0.00  0.00    +0.086 C 
ATOM     10  C   UNL     1      -2.034  -5.474   0.355  0.00  0.00    +0.048 C 
ATOM     11  C   UNL     1      -2.751  -4.167   0.099  0.00  0.00    -0.035 C 
ATOM     12  C   UNL     1      -2.305  -2.905   0.085  0.00  0.00    +0.003 A 
ATOM     13  C   UNL     1      -0.966  -2.305   0.116  0.00  0.00    +0.055 A 
ATOM     14  H   UNL     1      -4.766  -6.875   1.688  0.00  0.00    +0.123 HD
ATOM     15  H   UNL     1      -5.488  -2.307   0.049  0.00  0.00    +0.160 HD
ENDROOT
BRANCH   7  16
ATOM     16  C   UNL     1      -4.607  -4.217   2.394  0.00  0.00    +0.100 A 
ATOM     17  H   UNL     1      -2.188  -3.033   4.218  0.00  0.00    +0.173 HD
ATOM     18  C   UNL     1      -5.653  -3.898   3.250  0.00  0.00    +0.263 A 
ATOM     19  O   UNL     1      -6.910  -4.202   2.919  0.00  0.00    -0.267 OA
ATOM     20  N   UNL     1      -5.386  -3.274   4.429  0.00  0.00    -0.275 N 
ATOM     21  C   UNL     1      -4.121  -2.966   4.767  0.00  0.00    +0.329 A 
ATOM     22  O   UNL     1      -3.905  -2.408   5.826  0.00  0.00    -0.247 OA
ATOM     23  N   UNL     1      -3.092  -3.264   3.954  0.00  0.00    -0.275 N 
ATOM     24  C   UNL     1      -3.309  -3.894   2.768  0.00  0.00    +0.263 A 
ATOM     25  O   UNL     1      -2.283  -4.193   1.968  0.00  0.00    -0.267 OA
ATOM     26  H   UNL     1      -6.114  -3.050   5.030  0.00  0.00    +0.173 HD
ENDBRANCH   7  16
BRANCH   1  28
ATOM     27  C   UNL     1       0.507   1.005   0.124  0.00  0.00    +0.277 C 
ATOM     28  O   UNL     1       0.414  -0.421   0.137  0.00  0.00    -0.495 OA
ENDBRANCH   1  28
TORSDOF 2
