REMARK  Name = ZINC35932777
REMARK  6 active torsions:
REMARK  status: ('A' for Active; 'I' for Inactive)
REMARK    1  A    between atoms: C_4  and  N_7
REMARK    2  A    between atoms: C_8  and  N_31
REMARK    3  A    between atoms: C_9  and  N_19
REMARK    4  A    between atoms: C_10  and  C_12
REMARK    5  A    between atoms: N_22  and  C_23
REMARK    6  A    between atoms: C_23  and  C_24
REMARK                            x       y       z     vdW  Elec       q    Type
REMARK                         _______ _______ _______ _____ _____    ______ ____
ROOT
ATOM      1  N   UNL     1       3.628  -0.698  -0.348  0.00  0.00    -0.216 N 
ATOM      2  C   UNL     1       3.786  -1.994   0.044  0.00  0.00    +0.142 A 
ATOM      3  C   UNL     1       5.110  -2.189   0.301  0.00  0.00    +0.103 A 
ATOM      4  C   UNL     1       5.778  -0.971   0.057  0.00  0.00    +0.116 A 
ATOM      5  N   UNL     1       4.887  -0.084  -0.337  0.00  0.00    -0.163 NA
ENDROOT
BRANCH   4   6
ATOM      6  C   UNL     1       7.234  -0.732   0.211  0.00  0.00    +0.004 A 
ATOM      7  C   UNL     1       7.950  -1.397   1.204  0.00  0.00    +0.011 A 
ATOM      8  C   UNL     1       9.304  -1.171   1.344  0.00  0.00    +0.020 A 
ATOM      9  C   UNL     1       9.951  -0.285   0.500  0.00  0.00    +0.041 A 
ATOM     10  C   UNL     1       9.244   0.379  -0.488  0.00  0.00    +0.020 A 
ATOM     11  C   UNL     1       7.891   0.155  -0.640  0.00  0.00    +0.011 A 
ATOM     12 CL   UNL     1      11.655  -0.004   0.681  0.00  0.00    -0.084 Cl
ENDBRANCH   4   6
BRANCH   1  16
ATOM     13  C   UNL     1       0.031   1.117  -1.415  0.00  0.00    +0.000 A 
ATOM     14  C   UNL     1       1.003   1.847  -0.756  0.00  0.00    +0.002 A 
ATOM     15  C   UNL     1       2.196   1.248  -0.401  0.00  0.00    +0.028 A 
ATOM     16  C   UNL     1       2.419  -0.088  -0.707  0.00  0.00    +0.067 A 
ATOM     17  C   UNL     1       1.440  -0.818  -1.368  0.00  0.00    +0.028 A 
ATOM     18  C   UNL     1       0.249  -0.214  -1.720  0.00  0.00    +0.002 A 
ENDBRANCH   1  16
BRANCH   3  19
ATOM     19  N   UNL     1       5.705  -3.393   0.734  0.00  0.00    -0.265 N 
ATOM     20  C   UNL     1       6.933  -3.733   0.295  0.00  0.00    +0.304 C 
ATOM     21  O   UNL     1       7.488  -3.053  -0.546  0.00  0.00    -0.252 OA
ATOM     22  N   UNL     1       7.545  -4.828   0.788  0.00  0.00    -0.295 N 
ATOM     23  H   UNL     1       5.230  -3.975   1.348  0.00  0.00    +0.157 HD
ATOM     24  H   UNL     1       7.102  -5.371   1.459  0.00  0.00    +0.151 HD
BRANCH  22  25
ATOM     25  C   UNL     1       8.879  -5.199   0.311  0.00  0.00    +0.141 C 
BRANCH  25  26
ATOM     26  C   UNL     1       9.335  -6.451   1.015  0.00  0.00    -0.030 A 
ATOM     27  C   UNL     1      10.033  -6.359   2.204  0.00  0.00    +0.008 A 
ATOM     28  C   UNL     1      10.451  -7.507   2.851  0.00  0.00    +0.038 A 
ATOM     29  C   UNL     1      10.170  -8.749   2.307  0.00  0.00    +0.123 A 
ATOM     30  C   UNL     1       9.471  -8.839   1.115  0.00  0.00    +0.038 A 
ATOM     31  C   UNL     1       9.050  -7.690   0.473  0.00  0.00    +0.008 A 
ATOM     32  F   UNL     1      10.579  -9.871   2.938  0.00  0.00    -0.205 F 
ENDBRANCH  25  26
ENDBRANCH  22  25
ENDBRANCH   3  19
BRANCH   2  33
ATOM     33  N   UNL     1       2.774  -2.948   0.162  0.00  0.00    -0.342 N 
ATOM     34  H   UNL     1       1.846  -2.686   0.062  0.00  0.00    +0.144 HD
ATOM     35  H   UNL     1       3.000  -3.874   0.344  0.00  0.00    +0.144 HD
ENDBRANCH   2  33
TORSDOF 6
