REMARK  Name = ZINC34681326
REMARK  8 active torsions:
REMARK  status: ('A' for Active; 'I' for Inactive)
REMARK    1  A    between atoms: C_1  and  C_2
REMARK    2  A    between atoms: C_2  and  C_3
REMARK    3  A    between atoms: C_2  and  C_4
REMARK    4  A    between atoms: C_2  and  N_5
REMARK    5  A    between atoms: N_8  and  C_9
REMARK    6  A    between atoms: C_22  and  C_24
REMARK    7  A    between atoms: C_24  and  O_25
REMARK    8  A    between atoms: O_25  and  C_26
REMARK                            x       y       z     vdW  Elec       q    Type
REMARK                         _______ _______ _______ _____ _____    ______ ____
ROOT
ATOM      1  C   UNL     1       3.906  -0.165  -2.859  0.00  0.00    +0.051 A 
ATOM      2  C   UNL     1       4.627   0.657  -1.993  0.00  0.00    +0.028 A 
ATOM      3  C   UNL     1       5.908   1.030  -2.353  0.00  0.00    +0.043 A 
ATOM      4  C   UNL     1       6.433   0.576  -3.559  0.00  0.00    +0.099 A 
ATOM      5  N   UNL     1       5.720  -0.203  -4.356  0.00  0.00    -0.348 N 
ATOM      6  C   UNL     1       4.496  -0.583  -4.042  0.00  0.00    +0.107 A 
ATOM      7  N   UNL     1       7.723   0.946  -3.930  0.00  0.00    -0.315 N 
ATOM      8  C   UNL     1       8.195   0.581  -5.275  0.00  0.00    +0.108 C 
ATOM      9  C   UNL     1       8.953   1.720  -5.961  0.00  0.00    +0.038 C 
ATOM     10  C   UNL     1       8.263   3.044  -5.704  0.00  0.00    +0.109 C 
ATOM     11  N   UNL     1       8.765   3.578  -4.438  0.00  0.00    -0.297 N 
ATOM     12  C   UNL     1       8.286   3.195  -3.156  0.00  0.00    +0.126 C 
ATOM     13  C   UNL     1       8.534   1.678  -2.974  0.00  0.00    +0.125 C 
ATOM     14  C   UNL     1       9.751   4.496  -4.492  0.00  0.00    +0.253 C 
ATOM     15  O   UNL     1      10.190   4.852  -5.565  0.00  0.00    -0.272 OA
ATOM     16  H   UNL     1       6.109  -0.506  -5.192  0.00  0.00    +0.167 HD
ENDROOT
BRANCH   1  20
ATOM     17  N   UNL     1       0.502  -0.081  -1.642  0.00  0.00    -0.294 N 
ATOM     18  C   UNL     1       1.783   0.270  -1.872  0.00  0.00    +0.304 C 
ATOM     19  O   UNL     1       2.198   1.344  -1.482  0.00  0.00    -0.252 OA
ATOM     20  N   UNL     1       2.603  -0.569  -2.535  0.00  0.00    -0.268 N 
ATOM     21  H   UNL     1       0.171  -0.938  -1.954  0.00  0.00    +0.151 HD
ATOM     22  H   UNL     1       2.292  -1.452  -2.787  0.00  0.00    +0.156 HD
BRANCH  17  24
ATOM     23  C   UNL     1      -0.500   2.150  -1.691  0.00  0.00    +0.031 C 
ATOM     24  C   UNL     1      -0.390   0.832  -0.922  0.00  0.00    +0.028 C 
ATOM     25  C   UNL     1       0.176   1.101   0.474  0.00  0.00    +0.031 C 
ATOM     26  C   UNL     1      -1.776   0.197  -0.797  0.00  0.00    +0.031 C 
ENDBRANCH  17  24
ENDBRANCH   1  20
BRANCH  14  27
ATOM     27  C   UNL     1      10.306   5.080  -3.219  0.00  0.00    +0.324 C 
BRANCH  27  28
ATOM     28  O   UNL     1      11.332   6.023  -3.535  0.00  0.00    -0.483 OA
BRANCH  28  29
ATOM     29  C   UNL     1      11.942   6.645  -2.492  0.00  0.00    +0.121 A 
ATOM     30  C   UNL     1      11.563   6.350  -1.190  0.00  0.00    +0.047 A 
ATOM     31  C   UNL     1      12.184   6.984  -0.131  0.00  0.00    +0.023 A 
ATOM     32  C   UNL     1      13.182   7.913  -0.368  0.00  0.00    +0.041 A 
ATOM     33  C   UNL     1      13.560   8.209  -1.665  0.00  0.00    +0.023 A 
ATOM     34  C   UNL     1      12.947   7.572  -2.727  0.00  0.00    +0.047 A 
ATOM     35 CL   UNL     1      13.960   8.709   0.965  0.00  0.00    -0.084 Cl
ENDBRANCH  28  29
ENDBRANCH  27  28
ENDBRANCH  14  27
TORSDOF 5
