REMARK  Name = ZINC39684188
REMARK  11 active torsions:
REMARK  status: ('A' for Active; 'I' for Inactive)
REMARK    1  A    between atoms: C_1  and  C_2
REMARK    2  A    between atoms: C_7  and  C_11
REMARK    3  A    between atoms: C_11  and  C_12
REMARK    4  A    between atoms: C_12  and  N_13
REMARK    5  A    between atoms: C_14  and  C_16
REMARK    6  A    between atoms: C_27  and  C_29
REMARK    7  A    between atoms: C_32  and  C_39
REMARK    8  A    between atoms: N_34  and  C_35
REMARK    9  A    between atoms: C_35  and  C_36
REMARK   10  A    between atoms: C_35  and  C_37
REMARK   11  A    between atoms: C_35  and  C_38
REMARK                            x       y       z     vdW  Elec       q    Type
REMARK                         _______ _______ _______ _____ _____    ______ ____
ROOT
ATOM      1  C   UNL     1      -6.766   0.819  -5.571  0.00  0.00    +0.100 C 
ATOM      2  C   UNL     1      -6.705   2.230  -6.196  0.00  0.00    +0.121 C 
ATOM      3  N   UNL     1      -7.049   2.022  -7.623  0.00  0.00    -0.299 N 
ATOM      4  C   UNL     1      -8.127   1.005  -7.597  0.00  0.00    +0.115 C 
ATOM      5  C   UNL     1      -7.703   0.019  -6.491  0.00  0.00    -0.004 C 
ATOM      6  C   UNL     1      -8.925  -0.460  -5.713  0.00  0.00    -0.010 C 
ATOM      7  C   UNL     1      -9.813  -1.302  -6.634  0.00  0.00    -0.082 C 
ATOM      8  N   UNL     1      -9.049  -2.449  -7.138  0.00  0.00    +0.379 N 
ATOM      9  C   UNL     1      -7.928  -1.981  -7.963  0.00  0.00    -0.082 C 
ATOM     10  C   UNL     1      -6.961  -1.168  -7.098  0.00  0.00    -0.010 C 
ATOM     11  C   UNL     1      -6.505   2.623  -8.700  0.00  0.00    +0.238 C 
ATOM     12  O   UNL     1      -6.898   2.344  -9.812  0.00  0.00    -0.273 OA
ATOM     13  H   UNL     1      -8.692  -2.982  -6.360  0.00  0.00    -0.086 HD
ATOM     14  H   UNL     1      -9.653  -3.035  -7.695  0.00  0.00    -0.086 HD
ENDROOT
BRANCH  11  15
ATOM     15  C   UNL     1      -5.408   3.641  -8.521  0.00  0.00    +0.184 C 
ATOM     16  C   UNL     1      -6.002   5.043  -8.272  0.00  0.00    +0.085 C 
ATOM     17  C   UNL     1      -5.497   5.860  -9.440  0.00  0.00    +0.036 C 
ATOM     18  N   UNL     1      -4.782   5.133 -10.196  0.00  0.00    -0.192 NA
ATOM     19  N   UNL     1      -4.647   3.810  -9.770  0.00  0.00    -0.238 N 
ATOM     20  C   UNL     1      -5.798   7.319  -9.671  0.00  0.00    +0.062 C 
BRANCH  19  21
ATOM     21  C   UNL     1      -3.879   2.763 -10.450  0.00  0.00    +0.044 C 
ATOM     22  C   UNL     1      -4.109   1.424  -9.747  0.00  0.00    +0.033 C 
ATOM     23  C   UNL     1      -4.336   2.660 -11.906  0.00  0.00    +0.033 C 
ATOM     24  C   UNL     1      -2.390   3.114 -10.406  0.00  0.00    +0.033 C 
ENDBRANCH  19  21
ENDBRANCH  11  15
BRANCH   1  26
ATOM     25  N   UNL     1      -5.082  -0.713  -4.602  0.00  0.00    -0.315 N 
ATOM     26  C   UNL     1      -5.394   0.195  -5.548  0.00  0.00    +0.218 C 
ATOM     27  O   UNL     1      -4.571   0.509  -6.381  0.00  0.00    -0.275 OA
ATOM     28  H   UNL     1      -5.740  -0.965  -3.936  0.00  0.00    +0.149 HD
BRANCH  25  29
ATOM     29  C   UNL     1      -3.749  -1.320  -4.580  0.00  0.00    +0.109 C 
BRANCH  29  30
ATOM     30  C   UNL     1      -3.657  -2.308  -3.416  0.00  0.00    +0.056 C 
BRANCH  30  37
ATOM     31  C   UNL     1       2.337  -4.030  -2.758  0.00  0.00    +0.046 C 
ATOM     32  C   UNL     1       1.221  -3.047  -2.513  0.00  0.00    -0.027 A 
ATOM     33  C   UNL     1       1.462  -1.889  -1.806  0.00  0.00    +0.005 A 
ATOM     34  C   UNL     1       0.443  -0.977  -1.574  0.00  0.00    +0.001 A 
ATOM     35  C   UNL     1      -0.819  -1.210  -2.043  0.00  0.00    +0.010 A 
ATOM     36  C   UNL     1      -1.086  -2.377  -2.763  0.00  0.00    +0.003 A 
ATOM     37  C   UNL     1      -2.285  -2.932  -3.394  0.00  0.00    -0.021 A 
ATOM     38  C   UNL     1      -1.931  -4.102  -3.948  0.00  0.00    +0.087 A 
ATOM     39  N   UNL     1      -0.603  -4.342  -3.723  0.00  0.00    -0.360 N 
ATOM     40  C   UNL     1      -0.055  -3.303  -3.005  0.00  0.00    +0.050 A 
ATOM     41  H   UNL     1      -0.119  -5.126  -4.028  0.00  0.00    +0.165 HD
ENDBRANCH  30  37
ENDBRANCH  29  30
ENDBRANCH  25  29
ENDBRANCH   1  26
TORSDOF 6
