REMARK  Name = ZINC46810120
REMARK  10 active torsions:
REMARK  status: ('A' for Active; 'I' for Inactive)
REMARK    1  A    between atoms: C_1  and  C_2
REMARK    2  A    between atoms: C_2  and  N_3
REMARK    3  A    between atoms: N_3  and  C_4
REMARK    4  A    between atoms: C_4  and  C_5
REMARK    5  A    between atoms: C_11  and  C_14
REMARK    6  A    between atoms: N_16  and  C_17
REMARK    7  A    between atoms: C_17  and  C_19
REMARK    8  A    between atoms: C_17  and  C_20
REMARK    9  A    between atoms: C_23  and  S_26
REMARK   10  A    between atoms: S_26  and  N_29
REMARK                            x       y       z     vdW  Elec       q    Type
REMARK                         _______ _______ _______ _____ _____    ______ ____
ROOT
ATOM      1  C   UNL     1       3.669  -1.503   6.184  0.00  0.00    +0.217 C 
ATOM      2  O   UNL     1       2.800  -1.036   6.890  0.00  0.00    -0.275 OA
ATOM      3  N   UNL     1       4.933  -1.595   6.643  0.00  0.00    -0.309 N 
ATOM      4  H   UNL     1       5.628  -1.969   6.079  0.00  0.00    +0.149 HD
ENDROOT
BRANCH   1  11
ATOM      5  N   UNL     1       2.671  -0.729   0.017  0.00  0.00    -0.286 N 
ATOM      6  C   UNL     1       1.886  -0.990   1.081  0.00  0.00    +0.305 C 
ATOM      7  O   UNL     1       0.721  -0.642   1.076  0.00  0.00    -0.252 OA
ATOM      8  N   UNL     1       2.392  -1.635   2.150  0.00  0.00    -0.285 N 
ATOM      9  C   UNL     1       1.503  -2.282   3.124  0.00  0.00    +0.110 C 
ATOM     10  C   UNL     1       1.845  -1.764   4.525  0.00  0.00    +0.032 C 
ATOM     11  C   UNL     1       3.336  -1.980   4.794  0.00  0.00    +0.078 C 
ATOM     12  C   UNL     1       4.160  -1.193   3.773  0.00  0.00    +0.032 C 
ATOM     13  C   UNL     1       3.844  -1.709   2.361  0.00  0.00    +0.110 C 
BRANCH   5  15
ATOM     14  C   UNL     1       1.454  -0.602  -2.101  0.00  0.00    +0.024 C 
ATOM     15  C   UNL     1       2.208   0.187  -1.028  0.00  0.00    +0.106 C 
ENDBRANCH   5  15
BRANCH   5  16
ATOM     16  C   UNL     1       3.987  -1.362  -0.094  0.00  0.00    +0.106 C 
ATOM     17  C   UNL     1       5.079  -0.312   0.123  0.00  0.00    +0.024 C 
ENDBRANCH   5  16
ENDBRANCH   1  11
BRANCH   3  18
ATOM     18  C   UNL     1       5.257  -1.131   7.995  0.00  0.00    +0.100 C 
ATOM     19  C   UNL     1       5.534   0.373   7.965  0.00  0.00    +0.033 C 
BRANCH  18  20
ATOM     20  C   UNL     1       6.479  -1.857   8.495  0.00  0.00    -0.027 A 
ATOM     21  C   UNL     1       7.538  -2.098   7.640  0.00  0.00    +0.007 A 
ATOM     22  C   UNL     1       8.659  -2.764   8.099  0.00  0.00    +0.029 A 
ATOM     23  C   UNL     1       8.722  -3.188   9.414  0.00  0.00    +0.105 A 
ATOM     24  C   UNL     1       7.663  -2.946  10.269  0.00  0.00    +0.029 A 
ATOM     25  C   UNL     1       6.544  -2.276   9.811  0.00  0.00    +0.007 A 
BRANCH  23  26
ATOM     26  S   UNL     1      10.150  -4.037   9.998  0.00  0.00    +0.056 S 
ATOM     27  O   UNL     1       9.735  -4.808  11.117  0.00  0.00    -0.153 OA
ATOM     28  O   UNL     1      10.771  -4.619   8.861  0.00  0.00    -0.153 OA
BRANCH  26  29
ATOM     29  N   UNL     1      11.199  -2.892  10.575  0.00  0.00    -0.204 NA
ATOM     30  H   UNL     1      10.957  -1.953  10.543  0.00  0.00    +0.144 HD
ATOM     31  H   UNL     1      12.054  -3.161  10.946  0.00  0.00    +0.144 HD
ENDBRANCH  26  29
ENDBRANCH  23  26
ENDBRANCH  18  20
ENDBRANCH   3  18
TORSDOF 7
