REMARK  Name = ZINC63480068
REMARK  5 active torsions:
REMARK  status: ('A' for Active; 'I' for Inactive)
REMARK    1  A    between atoms: C_1  and  C_2
REMARK    2  A    between atoms: C_5  and  N_9
REMARK    3  A    between atoms: C_7  and  C_8
REMARK    4  A    between atoms: C_14  and  C_31
REMARK    5  A    between atoms: C_31  and  C_32
REMARK                            x       y       z     vdW  Elec       q    Type
REMARK                         _______ _______ _______ _____ _____    ______ ____
ROOT
ATOM      1  N   UNL     1       0.059  -4.172  -0.021  0.00  0.00    -0.210 N 
ATOM      2  C   UNL     1       0.167  -4.901   1.096  0.00  0.00    +0.232 C 
ATOM      3  O   UNL     1       0.263  -4.452   2.218  0.00  0.00    -0.274 OA
ATOM      4  C   UNL     1       0.149  -6.370   0.742  0.00  0.00    +0.107 C 
ATOM      5  C   UNL     1       1.532  -6.985   1.043  0.00  0.00    +0.072 C 
ATOM      6  N   UNL     1       2.332  -6.747  -0.188  0.00  0.00    -0.295 NA
ATOM      7  C   UNL     1       1.373  -6.958  -1.289  0.00  0.00    +0.136 C 
ATOM      8  C   UNL     1       0.026  -6.364  -0.808  0.00  0.00    +0.123 C 
ATOM      9  C   UNL     1      -0.036  -4.891  -1.145  0.00  0.00    +0.233 C 
ATOM     10  O   UNL     1      -0.150  -4.433  -2.262  0.00  0.00    -0.274 OA
ATOM     11  C   UNL     1       1.237  -8.415  -1.629  0.00  0.00    +0.003 A 
ATOM     12  C   UNL     1       0.855  -9.525  -0.909  0.00  0.00    +0.008 A 
ATOM     13  C   UNL     1       0.828 -10.768  -1.516  0.00  0.00    +0.000 A 
ATOM     14  C   UNL     1       1.187 -10.893  -2.846  0.00  0.00    +0.002 A 
ATOM     15  C   UNL     1       1.571  -9.784  -3.571  0.00  0.00    +0.023 A 
ATOM     16  C   UNL     1       1.600  -8.528  -2.968  0.00  0.00    +0.039 A 
ATOM     17  N   UNL     1       1.947  -7.277  -3.482  0.00  0.00    -0.283 N 
ATOM     18  C   UNL     1       1.841  -6.302  -2.559  0.00  0.00    +0.243 C 
ATOM     19  O   UNL     1       2.077  -5.123  -2.721  0.00  0.00    -0.273 OA
ATOM     20  H   UNL     1       2.700  -5.807  -0.205  0.00  0.00    +0.124 HD
ATOM     21  H   UNL     1       2.231  -7.128  -4.397  0.00  0.00    +0.155 HD
ENDROOT
BRANCH   1  26
ATOM     22  C   UNL     1      -0.017   1.503   0.012  0.00  0.00    +0.044 C 
ATOM     23  C   UNL     1       0.003  -0.004   0.003  0.00  0.00    -0.047 A 
ATOM     24  C   UNL     1      -1.131  -0.707  -0.360  0.00  0.00    +0.005 A 
ATOM     25  C   UNL     1      -1.116  -2.088  -0.369  0.00  0.00    +0.024 A 
ATOM     26  C   UNL     1       0.040  -2.771  -0.013  0.00  0.00    +0.044 A 
ATOM     27  C   UNL     1       1.177  -2.062   0.351  0.00  0.00    +0.027 A 
ATOM     28  C   UNL     1       1.157  -0.681   0.353  0.00  0.00    -0.046 A 
ATOM     29  C   UNL     1       2.392   0.089   0.743  0.00  0.00    +0.044 C 
ENDBRANCH   1  26
BRANCH   5  30
ATOM     30  C   UNL     1       2.176  -6.285   2.242  0.00  0.00    +0.052 C 
BRANCH  30  31
ATOM     31  C   UNL     1       3.467  -6.979   2.594  0.00  0.00    -0.040 C 
ATOM     32  C   UNL     1       4.711  -6.635   2.192  0.00  0.00    -0.001 A 
ATOM     33  C   UNL     1       5.216  -5.554   1.336  0.00  0.00    +0.010 A 
ATOM     34  C   UNL     1       6.546  -5.465   1.109  0.00  0.00    +0.001 A 
ATOM     35  C   UNL     1       7.453  -6.377   1.668  0.00  0.00    +0.002 A 
ATOM     36  C   UNL     1       7.064  -7.396   2.464  0.00  0.00    +0.026 A 
ATOM     37  C   UNL     1       5.689  -7.585   2.770  0.00  0.00    +0.043 A 
ATOM     38  N   UNL     1       5.072  -8.480   3.502  0.00  0.00    -0.380 N 
ATOM     39  C   UNL     1       3.633  -8.197   3.476  0.00  0.00    +0.144 C 
ATOM     40  H   UNL     1       5.497  -9.207   3.984  0.00  0.00    +0.160 HD
ENDBRANCH  30  31
ENDBRANCH   5  30
TORSDOF 3
