REMARK  Name = ZINC08752170
REMARK  7 active torsions:
REMARK  status: ('A' for Active; 'I' for Inactive)
REMARK    1  A    between atoms: C_5  and  C_7
REMARK    2  A    between atoms: C_10  and  S_22
REMARK    3  A    between atoms: N_11  and  C_12
REMARK    4  A    between atoms: C_16  and  C_18
REMARK    5  A    between atoms: S_22  and  C_23
REMARK    6  A    between atoms: C_23  and  C_24
REMARK    7  A    between atoms: N_29  and  C_30
REMARK                            x       y       z     vdW  Elec       q    Type
REMARK                         _______ _______ _______ _____ _____    ______ ____
ROOT
ATOM      1  C   UNL     1      -0.625   6.064   0.987  0.00  0.00    +0.171 A 
ATOM      2  N   UNL     1      -0.456   7.301   0.579  0.00  0.00    -0.128 NA
ATOM      3  N   UNL     1       0.191   7.312  -0.532  0.00  0.00    -0.122 NA
ATOM      4  C   UNL     1       0.479   6.084  -0.901  0.00  0.00    +0.197 A 
ATOM      5  N   UNL     1      -0.027   5.245   0.054  0.00  0.00    -0.270 N 
ENDROOT
BRANCH   1  10
ATOM      6  C   UNL     1      -1.389   4.297   4.211  0.00  0.00    +0.001 A 
ATOM      7  C   UNL     1      -2.630   4.825   4.521  0.00  0.00    +0.001 A 
ATOM      8  C   UNL     1      -3.222   5.755   3.685  0.00  0.00    +0.021 A 
ATOM      9  C   UNL     1      -2.574   6.166   2.537  0.00  0.00    +0.052 A 
ATOM     10  C   UNL     1      -1.323   5.633   2.216  0.00  0.00    +0.038 A 
ATOM     11  C   UNL     1      -0.733   4.695   3.065  0.00  0.00    +0.013 A 
ATOM     12 CL   UNL     1      -3.314   7.338   1.492  0.00  0.00    -0.083 Cl
ENDBRANCH   1  10
BRANCH   5  13
ATOM     13  C   UNL     1       0.043   3.846   0.076  0.00  0.00    +0.051 A 
ATOM     14  C   UNL     1      -1.113   3.089  -0.058  0.00  0.00    +0.026 A 
ATOM     15  C   UNL     1      -1.040   1.710  -0.041  0.00  0.00    +0.003 A 
ATOM     16  C   UNL     1       0.182   1.083   0.121  0.00  0.00    +0.012 A 
ATOM     17  C   UNL     1       1.335   1.833   0.255  0.00  0.00    +0.057 A 
ATOM     18  C   UNL     1       1.269   3.213   0.233  0.00  0.00    +0.038 A 
BRANCH  17  19
ATOM     19  C   UNL     1       2.666   1.146   0.426  0.00  0.00    +0.417 C 
ATOM     20  F   UNL     1       2.479  -0.240   0.417  0.00  0.00    -0.166 F 
ATOM     21  F   UNL     1       3.516   1.509  -0.625  0.00  0.00    -0.166 F 
ATOM     22  F   UNL     1       3.237   1.532   1.643  0.00  0.00    -0.166 F 
ENDBRANCH  17  19
ENDBRANCH   5  13
BRANCH   4  23
ATOM     23  S   UNL     1       1.355   5.607  -2.354  0.00  0.00    -0.076 S 
BRANCH  23  24
ATOM     24  C   UNL     1       1.677   7.236  -3.075  0.00  0.00    +0.173 C 
BRANCH  24  25
ATOM     25  C   UNL     1       2.438   7.072  -4.365  0.00  0.00    +0.231 C 
ATOM     26  O   UNL     1       2.734   5.963  -4.758  0.00  0.00    -0.274 OA
ATOM     27  N   UNL     1       2.791   8.157  -5.082  0.00  0.00    -0.239 N 
ATOM     28  C   UNL     1       3.472   8.010  -6.236  0.00  0.00    +0.306 C 
ATOM     29  O   UNL     1       3.768   6.899  -6.630  0.00  0.00    -0.252 OA
ATOM     30  N   UNL     1       3.824   9.096  -6.953  0.00  0.00    -0.296 N 
ATOM     31  H   UNL     1       2.554   9.044  -4.768  0.00  0.00    +0.159 HD
ATOM     32  H   UNL     1       3.587   9.982  -6.639  0.00  0.00    +0.151 HD
BRANCH  30  33
ATOM     33  C   UNL     1       4.564   8.936  -8.207  0.00  0.00    +0.075 C 
ATOM     34  C   UNL     1       5.741   9.882  -8.458  0.00  0.00    +0.024 C 
ATOM     35  C   UNL     1       4.441  10.052  -9.247  0.00  0.00    +0.024 C 
ENDBRANCH  30  33
ENDBRANCH  24  25
ENDBRANCH  23  24
ENDBRANCH   4  23
TORSDOF 7
