REMARK  Name = ZINC36494196
REMARK  14 active torsions:
REMARK  status: ('A' for Active; 'I' for Inactive)
REMARK    1  A    between atoms: C_1  and  C_2
REMARK    2  A    between atoms: C_2  and  C_3
REMARK    3  A    between atoms: C_3  and  C_4
REMARK    4  A    between atoms: C_4  and  N_5
REMARK    5  A    between atoms: C_6  and  C_8
REMARK    6  A    between atoms: C_8  and  C_10
REMARK    7  A    between atoms: C_8  and  N_22
REMARK    8  A    between atoms: C_19  and  O_20
REMARK    9  A    between atoms: O_20  and  C_21
REMARK   10  A    between atoms: N_22  and  C_23
REMARK   11  A    between atoms: C_23  and  C_24
REMARK   12  A    between atoms: C_29  and  C_31
REMARK   13  A    between atoms: C_36  and  O_37
REMARK   14  A    between atoms: O_37  and  C_38
REMARK                            x       y       z     vdW  Elec       q    Type
REMARK                         _______ _______ _______ _____ _____    ______ ____
ROOT
ATOM      1  C   UNL     1      -3.970  -4.429   0.258  0.00  0.00    +0.197 C 
ENDROOT
BRANCH   1   2
ATOM      2  C   UNL     1      -4.325  -3.907   1.626  0.00  0.00    +0.031 A 
ATOM      3  C   UNL     1      -5.234  -2.845   1.764  0.00  0.00    -0.009 A 
ATOM      4  C   UNL     1      -5.832  -2.247   0.640  0.00  0.00    +0.009 A 
ATOM      5  C   UNL     1      -6.709  -1.220   0.810  0.00  0.00    +0.001 A 
ATOM      6  C   UNL     1      -7.025  -0.751   2.084  0.00  0.00    +0.001 A 
ATOM      7  C   UNL     1      -6.467  -1.305   3.194  0.00  0.00    +0.008 A 
ATOM      8  C   UNL     1      -5.557  -2.368   3.059  0.00  0.00    -0.017 A 
ATOM      9  C   UNL     1      -4.961  -2.965   4.183  0.00  0.00    +0.012 A 
ATOM     10  C   UNL     1      -4.084  -3.991   4.017  0.00  0.00    +0.046 A 
ATOM     11  C   UNL     1      -3.769  -4.467   2.740  0.00  0.00    +0.126 A 
BRANCH  11  12
ATOM     12  O   UNL     1      -2.894  -5.498   2.607  0.00  0.00    -0.495 OA
ATOM     13  C   UNL     1      -2.431  -6.116   3.809  0.00  0.00    +0.277 C 
ENDBRANCH  11  12
ENDBRANCH   1   2
BRANCH   1  15
ATOM     14  N   UNL     1      -1.837  -3.182   0.141  0.00  0.00    -0.313 N 
ATOM     15  C   UNL     1      -2.477  -4.366   0.068  0.00  0.00    +0.238 C 
ATOM     16  O   UNL     1      -1.850  -5.382  -0.150  0.00  0.00    -0.273 OA
ATOM     17  H   UNL     1      -2.338  -2.370   0.316  0.00  0.00    +0.149 HD
BRANCH  14  18
ATOM     18  C   UNL     1      -0.385  -3.122  -0.043  0.00  0.00    +0.104 C 
BRANCH  18  19
ATOM     19  C   UNL     1       0.086  -1.672   0.088  0.00  0.00    +0.018 C 
BRANCH  19  21
ATOM     20  C   UNL     1       2.073  -0.159   0.026  0.00  0.00    +0.004 C 
ATOM     21  C   UNL     1       1.602  -1.609  -0.105  0.00  0.00    -0.002 C 
ENDBRANCH  19  21
ENDBRANCH  18  19
ENDBRANCH  14  18
ENDBRANCH   1  15
BRANCH   1  22
ATOM     22  N   UNL     1      -4.421  -5.817   0.133  0.00  0.00    -0.274 N 
ATOM     23  C   UNL     1      -4.024  -6.562  -0.917  0.00  0.00    +0.251 C 
ATOM     24  O   UNL     1      -4.492  -7.671  -1.088  0.00  0.00    -0.270 OA
BRANCH  23  25
ATOM     25  C   UNL     1      -3.020  -6.033  -1.860  0.00  0.00    +0.078 A 
ATOM     26  C   UNL     1      -2.839  -4.654  -1.992  0.00  0.00    +0.017 A 
ATOM     27  C   UNL     1      -1.899  -4.165  -2.874  0.00  0.00    +0.001 A 
ATOM     28  C   UNL     1      -1.133  -5.036  -3.632  0.00  0.00    +0.004 A 
ATOM     29  C   UNL     1      -1.302  -6.401  -3.512  0.00  0.00    +0.046 A 
ATOM     30  C   UNL     1      -2.239  -6.910  -2.625  0.00  0.00    +0.132 A 
BRANCH  30  31
ATOM     31  O   UNL     1      -2.402  -8.251  -2.502  0.00  0.00    -0.494 OA
ATOM     32  C   UNL     1      -1.571  -9.083  -3.313  0.00  0.00    +0.277 C 
ENDBRANCH  30  31
ENDBRANCH  23  25
BRANCH  22  33
ATOM     33  C   UNL     1      -5.304  -6.395   1.149  0.00  0.00    +0.183 C 
BRANCH  33  34
ATOM     34  C   UNL     1      -6.734  -6.305   0.681  0.00  0.00    +0.122 A 
ATOM     35  C   UNL     1      -7.427  -7.286   0.076  0.00  0.00    +0.046 A 
ATOM     36  C   UNL     1      -8.718  -6.774  -0.186  0.00  0.00    +0.041 A 
ATOM     37  C   UNL     1      -8.737  -5.510   0.274  0.00  0.00    +0.195 A 
ATOM     38  O   UNL     1      -7.535  -5.234   0.804  0.00  0.00    -0.466 OA
ENDBRANCH  33  34
ENDBRANCH  22  33
ENDBRANCH   1  22
TORSDOF 11
