REMARK  Name = ZINC06204415
REMARK  16 active torsions:
REMARK  status: ('A' for Active; 'I' for Inactive)
REMARK    1  A    between atoms: C_1  and  C_2
REMARK    2  A    between atoms: C_5  and  C_8
REMARK    3  A    between atoms: C_11  and  C_14
REMARK    4  A    between atoms: C_14  and  C_15
REMARK    5  A    between atoms: C_14  and  C_16
REMARK    6  A    between atoms: C_14  and  O_27
REMARK    7  A    between atoms: C_16  and  C_17
REMARK    8  A    between atoms: C_16  and  C_18
REMARK    9  A    between atoms: C_16  and  O_26
REMARK   10  A    between atoms: C_18  and  C_19
REMARK   11  A    between atoms: C_18  and  C_20
REMARK   12  A    between atoms: C_18  and  O_25
REMARK   13  A    between atoms: C_20  and  C_21
REMARK   14  A    between atoms: C_20  and  C_22
REMARK   15  A    between atoms: C_20  and  O_24
REMARK   16  A    between atoms: C_22  and  O_23
REMARK                            x       y       z     vdW  Elec       q    Type
REMARK                         _______ _______ _______ _____ _____    ______ ____
ROOT
ATOM      1  C   UNL     1       0.104  -0.853   0.329  0.00  0.00    +0.123 C 
ATOM      2  C   UNL     1      -0.391   0.567   0.046  0.00  0.00    +0.047 C 
ENDROOT
BRANCH   1   6
ATOM      3  C   UNL     1      -3.695  -0.933   0.498  0.00  0.00    +0.124 C 
ATOM      4  N   UNL     1      -3.110  -1.005   1.657  0.00  0.00    -0.179 NA
ATOM      5  N   UNL     1      -1.806  -1.414   1.819  0.00  0.00    -0.252 N 
ATOM      6  C   UNL     1      -1.096  -1.772   0.571  0.00  0.00    +0.186 C 
ATOM      7  S   UNL     1      -2.435  -1.460  -0.652  0.00  0.00    -0.077 S 
ATOM      8  H   UNL     1      -1.382  -1.463   2.690  0.00  0.00    +0.169 HD
BRANCH   3  13
ATOM      9  C   UNL     1      -9.089   0.705  -0.656  0.00  0.00    +0.044 C 
ATOM     10  C   UNL     1      -7.677   0.276  -0.354  0.00  0.00    -0.050 A 
ATOM     11  C   UNL     1      -7.226   0.262   0.954  0.00  0.00    +0.004 A 
ATOM     12  C   UNL     1      -5.934  -0.129   1.238  0.00  0.00    +0.011 A 
ATOM     13  C   UNL     1      -5.081  -0.512   0.201  0.00  0.00    +0.008 A 
ATOM     14  C   UNL     1      -5.540  -0.491  -1.116  0.00  0.00    +0.011 A 
ATOM     15  C   UNL     1      -6.836  -0.103  -1.386  0.00  0.00    +0.004 A 
ENDBRANCH   3  13
ENDBRANCH   1   6
BRANCH   1  16
ATOM     16  C   UNL     1       0.903  -1.363  -0.871  0.00  0.00    +0.125 C 
ATOM     17  C   UNL     1      -0.025  -1.506  -2.079  0.00  0.00    +0.047 C 
BRANCH  16  18
ATOM     18  C   UNL     1       2.019  -0.369  -1.200  0.00  0.00    +0.125 C 
ATOM     19  C   UNL     1       2.905  -0.170   0.031  0.00  0.00    +0.047 C 
BRANCH  18  20
ATOM     20  C   UNL     1       2.864  -0.915  -2.353  0.00  0.00    +0.117 C 
ATOM     21  C   UNL     1       2.222  -0.525  -3.686  0.00  0.00    +0.047 C 
BRANCH  20  22
ATOM     22  O   UNL     1       2.938  -2.339  -2.258  0.00  0.00    -0.384 OA
ATOM     23  H   UNL     1       3.335  -2.658  -1.436  0.00  0.00    +0.210 HD
ENDBRANCH  20  22
BRANCH  20  24
ATOM     24  C   UNL     1       4.274  -0.325  -2.275  0.00  0.00    +0.193 C 
BRANCH  24  25
ATOM     25  O   UNL     1       5.028  -0.742  -3.415  0.00  0.00    -0.392 OA
ATOM     26  H   UNL     1       5.934  -0.405  -3.432  0.00  0.00    +0.210 HD
ENDBRANCH  24  25
ENDBRANCH  20  24
ENDBRANCH  18  20
BRANCH  18  27
ATOM     27  O   UNL     1       1.445   0.882  -1.582  0.00  0.00    -0.383 OA
ATOM     28  H   UNL     1       0.870   0.832  -2.358  0.00  0.00    +0.210 HD
ENDBRANCH  18  27
ENDBRANCH  16  18
BRANCH  16  29
ATOM     29  O   UNL     1       1.475  -2.634  -0.557  0.00  0.00    -0.383 OA
ATOM     30  H   UNL     1       2.076  -2.619   0.200  0.00  0.00    +0.210 HD
ENDBRANCH  16  29
ENDBRANCH   1  16
BRANCH   1  31
ATOM     31  O   UNL     1       0.939  -0.844   1.489  0.00  0.00    -0.383 OA
ATOM     32  H   UNL     1       1.289  -1.714   1.728  0.00  0.00    +0.210 HD
ENDBRANCH   1  31
TORSDOF 11
