REMARK  Name = ZINC06894193
REMARK  6 active torsions:
REMARK  status: ('A' for Active; 'I' for Inactive)
REMARK    1  A    between atoms: C_1  and  C_2
REMARK    2  A    between atoms: C_2  and  C_3
REMARK    3  A    between atoms: C_6  and  S_15
REMARK    4  A    between atoms: S_15  and  C_16
REMARK    5  A    between atoms: C_16  and  C_17
REMARK    6  A    between atoms: C_21  and  C_23
REMARK                            x       y       z     vdW  Elec       q    Type
REMARK                         _______ _______ _______ _____ _____    ______ ____
ROOT
ATOM      1  C   UNL     1       2.193   5.171   0.009  0.00  0.00    +0.137 A 
ATOM      2  N   UNL     1       2.246   6.471   0.015  0.00  0.00    -0.135 NA
ATOM      3  N   UNL     1       1.202   7.216   0.029  0.00  0.00    -0.139 NA
ATOM      4  C   UNL     1      -0.018   6.711   0.035  0.00  0.00    +0.144 A 
ATOM      5  C   UNL     1      -0.169   5.300   0.030  0.00  0.00    +0.085 A 
ATOM      6  N   UNL     1       0.982   4.526   0.016  0.00  0.00    -0.290 N 
ATOM      7  C   UNL     1       0.615   3.207   0.013  0.00  0.00    +0.093 A 
ATOM      8  C   UNL     1       1.073   1.866   0.002  0.00  0.00    +0.068 A 
ATOM      9  C   UNL     1      -0.013   1.076   0.008  0.00  0.00    +0.198 A 
ATOM     10  O   UNL     1      -1.122   1.838   0.017  0.00  0.00    -0.461 OA
ATOM     11  C   UNL     1      -0.776   3.143   0.025  0.00  0.00    +0.153 A 
ATOM     12  C   UNL     1      -1.258   4.459   0.036  0.00  0.00    +0.077 A 
ENDROOT
BRANCH   1  14
ATOM     13  C   UNL     1       3.888   4.106  -1.455  0.00  0.00    +0.012 C 
ATOM     14  C   UNL     1       3.469   4.369  -0.007  0.00  0.00    +0.073 C 
ENDBRANCH   1  14
BRANCH   4  15
ATOM     15  S   UNL     1      -1.428   7.767   0.053  0.00  0.00    -0.097 S 
BRANCH  15  16
ATOM     16  C   UNL     1      -0.612   9.382   0.053  0.00  0.00    +0.111 C 
BRANCH  16  17
ATOM     17  C   UNL     1      -1.653  10.471   0.067  0.00  0.00    -0.037 A 
ATOM     18  C   UNL     1      -2.120  10.965   1.271  0.00  0.00    +0.004 A 
ATOM     19  C   UNL     1      -3.075  11.965   1.284  0.00  0.00    +0.001 A 
ATOM     20  C   UNL     1      -3.563  12.470   0.094  0.00  0.00    +0.003 A 
ATOM     21  C   UNL     1      -3.097  11.976  -1.110  0.00  0.00    -0.050 A 
ATOM     22  C   UNL     1      -2.138  10.980  -1.123  0.00  0.00    +0.007 A 
ATOM     23  C   UNL     1      -3.629  12.527  -2.408  0.00  0.00    +0.044 C 
ENDBRANCH  16  17
ENDBRANCH  15  16
ENDBRANCH   4  15
TORSDOF 4
