REMARK  Name = ZINC66474081
REMARK  10 active torsions:
REMARK  status: ('A' for Active; 'I' for Inactive)
REMARK    1  A    between atoms: C_1  and  C_2
REMARK    2  A    between atoms: C_2  and  C_3
REMARK    3  A    between atoms: C_3  and  C_4
REMARK    4  A    between atoms: C_4  and  N_5
REMARK    5  A    between atoms: C_6  and  C_8
REMARK    6  A    between atoms: C_12  and  C_28
REMARK    7  A    between atoms: N_14  and  C_16
REMARK    8  A    between atoms: C_16  and  C_17
REMARK    9  A    between atoms: N_19  and  C_20
REMARK   10  A    between atoms: C_21  and  C_25
REMARK                            x       y       z     vdW  Elec       q    Type
REMARK                         _______ _______ _______ _____ _____    ______ ____
ROOT
ATOM      1  C   UNL     1       2.343  -4.350   3.846  0.00  0.00    +0.058 C 
ATOM      2  C   UNL     1       3.781  -3.822   3.834  0.00  0.00    +0.009 C 
ATOM      3  C   UNL     1       4.535  -4.398   5.037  0.00  0.00    -0.015 C 
ATOM      4  C   UNL     1       4.478  -5.926   4.983  0.00  0.00    -0.071 C 
ATOM      5  N   UNL     1       3.079  -6.369   5.024  0.00  0.00    +0.388 N 
ATOM      6  C   UNL     1       2.366  -5.880   3.837  0.00  0.00    -0.065 C 
ATOM      7  C   UNL     1       5.230  -6.506   6.183  0.00  0.00    -0.013 C 
ATOM      8  H   UNL     1       2.636  -6.005   5.854  0.00  0.00    -0.081 HD
ENDROOT
BRANCH   1  10
ATOM      9  N   UNL     1       1.471  -2.526   2.420  0.00  0.00    -0.315 N 
ATOM     10  C   UNL     1       1.615  -3.850   2.625  0.00  0.00    +0.214 C 
ATOM     11  O   UNL     1       1.157  -4.641   1.827  0.00  0.00    -0.276 OA
ATOM     12  H   UNL     1       1.837  -1.894   3.058  0.00  0.00    +0.149 HD
BRANCH   9  13
ATOM     13  C   UNL     1       0.763  -2.041   1.233  0.00  0.00    +0.104 C 
BRANCH  13  14
ATOM     14  C   UNL     1       0.742  -0.511   1.242  0.00  0.00    +0.018 C 
BRANCH  14  16
ATOM     15  C   UNL     1      -0.019   1.526   0.010  0.00  0.00    +0.004 C 
ATOM     16  C   UNL     1       0.002  -0.004   0.002  0.00  0.00    -0.002 C 
ENDBRANCH  14  16
ENDBRANCH  13  14
ENDBRANCH   9  13
ENDBRANCH   1  10
BRANCH   5  17
ATOM     17  C   UNL     1       3.032  -7.837   5.051  0.00  0.00    +0.019 C 
BRANCH  17  18
ATOM     18  C   UNL     1       1.605  -8.291   5.216  0.00  0.00    +0.201 C 
ATOM     19  O   UNL     1       0.714  -7.472   5.302  0.00  0.00    -0.278 OA
ATOM     20  N   UNL     1       1.318  -9.606   5.267  0.00  0.00    -0.281 N 
ATOM     21  H   UNL     1       2.030 -10.261   5.198  0.00  0.00    +0.155 HD
BRANCH  20  22
ATOM     22  C   UNL     1       0.004 -10.024   5.419  0.00  0.00    +0.084 A 
ATOM     23  C   UNL     1      -0.474 -11.324   5.497  0.00  0.00    +0.065 A 
ATOM     24  C   UNL     1      -1.901 -11.479   5.656  0.00  0.00    +0.022 A 
ATOM     25  C   UNL     1      -2.613 -10.338   5.711  0.00  0.00    +0.048 A 
ATOM     26  S   UNL     1      -1.371  -9.073   5.558  0.00  0.00    -0.081 S 
BRANCH  23  27
ATOM     27  C   UNL     1       0.424 -12.481   5.421  0.00  0.00    +0.244 C 
ATOM     28  O   UNL     1       1.622 -12.314   5.287  0.00  0.00    -0.270 OA
ATOM     29  N   UNL     1      -0.078 -13.729   5.501  0.00  0.00    -0.325 N 
ATOM     30  H   UNL     1      -1.033 -13.863   5.609  0.00  0.00    +0.145 HD
ATOM     31  H   UNL     1       0.516 -14.495   5.451  0.00  0.00    +0.145 HD
ENDBRANCH  23  27
ENDBRANCH  20  22
ENDBRANCH  17  18
ENDBRANCH   5  17
TORSDOF 8
