REMARK  Name = ZINC42334878
REMARK  4 active torsions:
REMARK  status: ('A' for Active; 'I' for Inactive)
REMARK    1  A    between atoms: C_2  and  N_21
REMARK    2  A    between atoms: C_4  and  S_9
REMARK    3  A    between atoms: S_9  and  C_10
REMARK    4  A    between atoms: C_10  and  C_18
REMARK                            x       y       z     vdW  Elec       q    Type
REMARK                         _______ _______ _______ _____ _____    ______ ____
ROOT
ATOM      1  S   UNL     1       4.297  -1.040  -0.283  0.00  0.00    -0.069 S 
ENDROOT
BRANCH   1   5
ATOM      2  C   UNL     1       0.010   0.065  -0.906  0.00  0.00    +0.113 A 
ATOM      3  C   UNL     1       0.982   1.030  -0.685  0.00  0.00    +0.124 A 
ATOM      4  N   UNL     1       2.255   0.661  -0.503  0.00  0.00    -0.209 NA
ATOM      5  C   UNL     1       2.607  -0.608  -0.529  0.00  0.00    +0.172 A 
ATOM      6  N   UNL     1       1.690  -1.593  -0.742  0.00  0.00    -0.302 N 
ATOM      7  H   UNL     1       1.972  -2.521  -0.757  0.00  0.00    +0.171 HD
ATOM      8  C   UNL     1       0.392  -1.280  -0.932  0.00  0.00    +0.254 A 
ATOM      9  O   UNL     1      -0.437  -2.157  -1.123  0.00  0.00    -0.268 OA
BRANCH   3  10
ATOM     10  N   UNL     1       0.637   2.367  -0.654  0.00  0.00    -0.343 N 
ATOM     11  H   UNL     1      -0.286   2.632  -0.787  0.00  0.00    +0.144 HD
ATOM     12  H   UNL     1       1.318   3.040  -0.500  0.00  0.00    +0.144 HD
ENDBRANCH   3  10
ENDBRANCH   1   5
BRANCH   1  13
ATOM     13  C   UNL     1       5.128   0.555  -0.044  0.00  0.00    +0.128 C 
ATOM     14  C   UNL     1       4.508   1.270   1.153  0.00  0.00    +0.052 C 
ATOM     15  C   UNL     1       5.001   2.718   1.209  0.00  0.00    +0.168 C 
ATOM     16  S   UNL     1       6.800   2.717   1.467  0.00  0.00    -0.031 S 
ATOM     17  O   UNL     1       7.290   4.031   1.241  0.00  0.00    -0.174 OA
ATOM     18  O   UNL     1       7.079   2.077   2.705  0.00  0.00    -0.174 OA
ATOM     19  C   UNL     1       7.375   1.645   0.117  0.00  0.00    +0.168 C 
ATOM     20  C   UNL     1       6.618   0.316   0.182  0.00  0.00    +0.052 C 
BRANCH  13  21
ATOM     21  C   UNL     1       4.942   1.401  -1.277  0.00  0.00    +0.372 C 
ATOM     22  O   UNL     1       4.130   2.310  -1.276  0.00  0.00    -0.245 OA
ATOM     23  O   UNL     1       5.603   1.175  -2.276  0.00  0.00    -0.245 OA
ENDBRANCH  13  21
ENDBRANCH   1  13
TORSDOF 4
