REMARK  Name = ZINC22125100
REMARK  4 active torsions:
REMARK  status: ('A' for Active; 'I' for Inactive)
REMARK    1  A    between atoms: C_1  and  C_2
REMARK    2  A    between atoms: C_2  and  C_3
REMARK    3  A    between atoms: N_12  and  C_13
REMARK    4  A    between atoms: C_13  and  N_15
REMARK                            x       y       z     vdW  Elec       q    Type
REMARK                         _______ _______ _______ _____ _____    ______ ____
ROOT
ATOM      1  C   UNL     1      -4.893   1.539   0.035  0.00  0.00    -0.020 A 
ATOM      2  C   UNL     1      -5.896   2.473   0.043  0.00  0.00    +0.020 A 
ATOM      3  C   UNL     1      -5.621   3.833   0.049  0.00  0.00    +0.015 A 
ATOM      4  C   UNL     1      -4.304   4.258   0.045  0.00  0.00    +0.031 A 
ATOM      5  C   UNL     1      -3.293   3.329   0.036  0.00  0.00    +0.042 A 
ATOM      6  C   UNL     1      -3.536   1.937   0.030  0.00  0.00    +0.083 A 
ATOM      7  N   UNL     1      -2.437   1.151   0.015  0.00  0.00    -0.224 NA
ATOM      8  C   UNL     1      -1.219   1.642   0.017  0.00  0.00    +0.165 A 
ATOM      9  S   UNL     1      -1.518   3.404   0.027  0.00  0.00    -0.052 S 
ATOM     10  N   UNL     1      -0.011   0.966   0.007  0.00  0.00    -0.276 N 
ATOM     11  I   UNL     1      -7.183   5.229   0.064  0.00  0.00    -0.044 I 
ATOM     12  H   UNL     1       0.004  -0.134   0.006  0.00  0.00    +0.156 HD
ENDROOT
BRANCH   1  14
ATOM     13  C   UNL     1      -5.229  -0.459   1.463  0.00  0.00    +0.009 C 
ATOM     14  C   UNL     1      -5.240   0.073   0.029  0.00  0.00    +0.034 C 
ENDBRANCH   1  14
BRANCH  10  15
ATOM     15  C   UNL     1       1.147   1.655   0.000  0.00  0.00    +0.133 C 
ATOM     16  S   UNL     1       1.124   3.367   0.009  0.00  0.00    -0.019 S 
BRANCH  15  17
ATOM     17  N   UNL     1       2.323   0.998  -0.015  0.00  0.00    -0.340 N 
ATOM     18  H   UNL     1       3.268   1.560  -0.021  0.00  0.00    +0.144 HD
ATOM     19  H   UNL     1       2.338  -0.102  -0.021  0.00  0.00    +0.144 HD
ENDBRANCH  15  17
ENDBRANCH  10  15
TORSDOF 3
