REMARK  Name = ZINC35041427
REMARK  15 active torsions:
REMARK  status: ('A' for Active; 'I' for Inactive)
REMARK    1  A    between atoms: C_1  and  C_2
REMARK    2  A    between atoms: C_2  and  C_4
REMARK    3  A    between atoms: C_2  and  N_23
REMARK    4  A    between atoms: N_14  and  C_15
REMARK    5  A    between atoms: C_18  and  O_21
REMARK    6  A    between atoms: O_21  and  C_22
REMARK    7  A    between atoms: N_23  and  C_24
REMARK    8  A    between atoms: C_24  and  C_25
REMARK    9  A    between atoms: C_25  and  N_26
REMARK   10  A    between atoms: N_26  and  C_27
REMARK   11  A    between atoms: N_26  and  C_28
REMARK   12  A    between atoms: N_31  and  C_32
REMARK   13  A    between atoms: C_32  and  C_33
REMARK   14  A    between atoms: C_32  and  C_34
REMARK   15  A    between atoms: C_32  and  C_35
REMARK                            x       y       z     vdW  Elec       q    Type
REMARK                         _______ _______ _______ _____ _____    ______ ____
ROOT
ATOM      1  C   UNL     1      -1.338  -0.778  -0.023  0.00  0.00    +0.138 A 
ATOM      2  N   UNL     1      -2.129   0.250   0.028  0.00  0.00    -0.231 NA
ATOM      3  C   UNL     1      -3.475   0.118  -0.081  0.00  0.00    +0.078 A 
ATOM      4  C   UNL     1      -4.326   1.224  -0.026  0.00  0.00    +0.028 A 
ATOM      5  C   UNL     1      -5.686   1.044  -0.142  0.00  0.00    +0.002 A 
ATOM      6  C   UNL     1      -6.224  -0.225  -0.311  0.00  0.00    +0.001 A 
ATOM      7  C   UNL     1      -5.405  -1.331  -0.367  0.00  0.00    +0.015 A 
ATOM      8  C   UNL     1      -4.025  -1.171  -0.253  0.00  0.00    +0.065 A 
ATOM      9  C   UNL     1      -3.103  -2.314  -0.306  0.00  0.00    +0.266 A 
ATOM     10  O   UNL     1      -3.513  -3.451  -0.453  0.00  0.00    -0.267 OA
ATOM     11  N   UNL     1      -1.780  -2.054  -0.191  0.00  0.00    -0.263 N 
ENDROOT
BRANCH  11  12
ATOM     12  C   UNL     1      -0.857  -3.108  -0.241  0.00  0.00    +0.051 A 
ATOM     13  C   UNL     1      -0.774  -4.008   0.813  0.00  0.00    +0.030 A 
ATOM     14  C   UNL     1       0.135  -5.046   0.763  0.00  0.00    +0.047 A 
ATOM     15  C   UNL     1       0.965  -5.189  -0.339  0.00  0.00    +0.120 A 
ATOM     16  C   UNL     1       0.883  -4.290  -1.392  0.00  0.00    +0.047 A 
ATOM     17  C   UNL     1      -0.030  -3.255  -1.347  0.00  0.00    +0.030 A 
BRANCH  15  18
ATOM     18  O   UNL     1       1.861  -6.211  -0.387  0.00  0.00    -0.495 OA
ATOM     19  C   UNL     1       2.684  -6.299  -1.552  0.00  0.00    +0.277 C 
ENDBRANCH  15  18
ENDBRANCH  11  12
BRANCH   1  21
ATOM     20  C   UNL     1       0.454   0.932  -0.137  0.00  0.00    +0.036 C 
ATOM     21  C   UNL     1       0.145  -0.546   0.106  0.00  0.00    +0.141 C 
BRANCH  21  22
ATOM     22  N   UNL     1       0.584  -0.922   1.452  0.00  0.00    -0.278 N 
ATOM     23  C   UNL     1       1.601  -1.792   1.611  0.00  0.00    +0.303 C 
ATOM     24  O   UNL     1       2.154  -2.266   0.638  0.00  0.00    -0.253 OA
ATOM     25  N   UNL     1       2.004  -2.138   2.850  0.00  0.00    -0.294 N 
ATOM     26  H   UNL     1       1.562  -1.761   3.627  0.00  0.00    +0.151 HD
BRANCH  25  27
ATOM     27  C   UNL     1       3.109  -3.084   3.023  0.00  0.00    +0.028 C 
ATOM     28  C   UNL     1       4.371  -2.520   2.368  0.00  0.00    +0.031 C 
ATOM     29  C   UNL     1       3.364  -3.303   4.516  0.00  0.00    +0.031 C 
ATOM     30  C   UNL     1       2.747  -4.418   2.367  0.00  0.00    +0.031 C 
ENDBRANCH  25  27
BRANCH  22  31
ATOM     31  C   UNL     1      -0.083  -0.352   2.625  0.00  0.00    +0.091 C 
BRANCH  31  32
ATOM     32  C   UNL     1      -1.168  -1.314   3.113  0.00  0.00    -0.060 C 
BRANCH  32  33
ATOM     33  N   UNL     1      -1.878  -0.716   4.251  0.00  0.00    +0.377 N 
ATOM     34  C   UNL     1      -2.595   0.486   3.804  0.00  0.00    -0.097 C 
ATOM     35  C   UNL     1      -2.838  -1.685   4.795  0.00  0.00    -0.097 C 
ATOM     36  H   UNL     1      -1.213  -0.463   4.967  0.00  0.00    -0.083 HD
ENDBRANCH  32  33
ENDBRANCH  31  32
ENDBRANCH  22  31
ENDBRANCH  21  22
ENDBRANCH   1  21
TORSDOF 8
