REMARK  Name = ZINC13645022
REMARK  8 active torsions:
REMARK  status: ('A' for Active; 'I' for Inactive)
REMARK    1  A    between atoms: C_1  and  C_2
REMARK    2  A    between atoms: C_2  and  C_31
REMARK    3  A    between atoms: C_8  and  C_20
REMARK    4  A    between atoms: C_16  and  C_18
REMARK    5  A    between atoms: C_16  and  C_19
REMARK    6  A    between atoms: C_20  and  O_21
REMARK    7  A    between atoms: O_21  and  N_22
REMARK    8  A    between atoms: C_23  and  C_24
REMARK                            x       y       z     vdW  Elec       q    Type
REMARK                         _______ _______ _______ _____ _____    ______ ____
ROOT
ATOM      1  C   UNL     1       2.290   7.394   6.452  0.00  0.00    +0.028 C 
ATOM      2  C   UNL     1       2.316   8.502   5.310  0.00  0.00    +0.018 C 
ATOM      3  C   UNL     1       1.814   7.839   4.006  0.00  0.00    +0.058 C 
ATOM      4  C   UNL     1       1.618   8.877   2.887  0.00  0.00    -0.021 A 
ATOM      5  C   UNL     1       1.733   8.603   1.470  0.00  0.00    +0.055 A 
ATOM      6  C   UNL     1       1.954   7.342   0.771  0.00  0.00    +0.168 A 
ATOM      7  N   UNL     1       2.139   6.076   1.278  0.00  0.00    -0.207 NA
ATOM      8  C   UNL     1       2.265   5.299   0.159  0.00  0.00    +0.192 A 
ATOM      9  N   UNL     1       2.139   5.986  -0.931  0.00  0.00    -0.145 NA
ATOM     10  N   UNL     1       1.963   7.327  -0.576  0.00  0.00    -0.201 N 
ATOM     11  C   UNL     1       1.826   8.416  -1.210  0.00  0.00    +0.226 A 
ATOM     12  N   UNL     1       1.708   9.588  -0.703  0.00  0.00    -0.228 NA
ATOM     13  C   UNL     1       1.613   9.708   0.670  0.00  0.00    +0.114 A 
ATOM     14  S   UNL     1       1.415  11.065   1.736  0.00  0.00    -0.071 S 
ATOM     15  C   UNL     1       1.484  10.137   3.301  0.00  0.00    +0.015 A 
ATOM     16  C   UNL     1       1.355  10.685   4.673  0.00  0.00    +0.046 C 
ATOM     17  N   UNL     1       1.506   9.627   5.637  0.00  0.00    -0.301 NA
ATOM     18  C   UNL     1      -0.140  11.215   4.836  0.00  0.00    +0.033 C 
ATOM     19  C   UNL     1       2.295  11.794   4.938  0.00  0.00    +0.033 C 
ATOM     20  C   UNL     1       3.833   8.871   5.066  0.00  0.00    +0.028 C 
ATOM     21  H   UNL     1       0.478   9.292   5.840  0.00  0.00    +0.123 HD
ENDROOT
BRANCH   8  22
ATOM     22  C   UNL     1       2.394   3.731   0.240  0.00  0.00    +0.340 C 
BRANCH  22  23
ATOM     23  O   UNL     1       1.092   3.143   0.192  0.00  0.00    -0.386 OA
BRANCH  23  24
ATOM     24  N   UNL     1       1.094   1.731   0.297  0.00  0.00    -0.092 NA
ATOM     25  C   UNL     1      -0.011   1.072   0.166  0.00  0.00    +0.162 C 
BRANCH  25  26
ATOM     26  C   UNL     1      -1.228   1.758  -0.310  0.00  0.00    +0.014 A 
ATOM     27  C   UNL     1      -1.144   3.044  -0.847  0.00  0.00    +0.011 A 
ATOM     28  C   UNL     1      -2.284   3.678  -1.295  0.00  0.00    +0.001 A 
ATOM     29  C   UNL     1      -3.512   3.047  -1.203  0.00  0.00    +0.001 A 
ATOM     30  C   UNL     1      -3.605   1.775  -0.667  0.00  0.00    +0.020 A 
ATOM     31  C   UNL     1      -2.471   1.126  -0.220  0.00  0.00    +0.050 A 
ATOM     32 CL   UNL     1      -2.589  -0.470   0.453  0.00  0.00    -0.083 Cl
ENDBRANCH  25  26
ENDBRANCH  23  24
ENDBRANCH  22  23
ENDBRANCH   8  22
TORSDOF 4
