REMARK  Name = ZINC39974481
REMARK  10 active torsions:
REMARK  status: ('A' for Active; 'I' for Inactive)
REMARK    1  A    between atoms: C_1  and  C_2
REMARK    2  A    between atoms: C_7  and  C_33
REMARK    3  A    between atoms: N_9  and  S_10
REMARK    4  A    between atoms: S_10  and  C_13
REMARK    5  A    between atoms: C_16  and  N_19
REMARK    6  A    between atoms: N_19  and  C_20
REMARK    7  A    between atoms: C_20  and  N_22
REMARK    8  A    between atoms: N_22  and  C_23
REMARK    9  A    between atoms: C_26  and  C_29
REMARK   10  A    between atoms: N_31  and  C_32
REMARK                            x       y       z     vdW  Elec       q    Type
REMARK                         _______ _______ _______ _____ _____    ______ ____
ROOT
ATOM      1  C   UNL     1       0.147  -0.820   4.668  0.00  0.00    +0.106 A 
ATOM      2  C   UNL     1      -1.052  -0.336   4.177  0.00  0.00    +0.030 A 
ATOM      3  C   UNL     1      -2.028   0.106   5.048  0.00  0.00    +0.025 A 
ATOM      4  C   UNL     1      -1.804   0.065   6.418  0.00  0.00    +0.033 A 
ATOM      5  C   UNL     1      -0.599  -0.422   6.908  0.00  0.00    +0.025 A 
ATOM      6  C   UNL     1       0.371  -0.868   6.031  0.00  0.00    +0.030 A 
ENDROOT
BRANCH   1   7
ATOM      7  S   UNL     1       1.390  -1.383   3.553  0.00  0.00    +0.061 S 
ATOM      8  O   UNL     1       2.628  -1.291   4.244  0.00  0.00    -0.153 OA
ATOM      9  O   UNL     1       1.156  -0.723   2.317  0.00  0.00    -0.153 OA
BRANCH   7  16
ATOM     10  C   UNL     1       2.868  -3.341   4.965  0.00  0.00    +0.026 C 
ATOM     11  C   UNL     1       1.819  -4.014   4.078  0.00  0.00    +0.077 C 
ATOM     12  C   UNL     1       2.506  -4.995   3.123  0.00  0.00    +0.020 C 
ATOM     13  C   UNL     1       1.471  -5.561   2.147  0.00  0.00    +0.003 C 
ATOM     14  C   UNL     1       0.872  -4.421   1.320  0.00  0.00    +0.020 C 
ATOM     15  C   UNL     1       0.167  -3.433   2.254  0.00  0.00    +0.077 C 
ATOM     16  N   UNL     1       1.115  -2.995   3.287  0.00  0.00    -0.171 NA
ATOM     17  C   UNL     1      -0.317  -2.224   1.451  0.00  0.00    +0.026 C 
ENDBRANCH   7  16
ENDBRANCH   1   7
BRANCH   4  18
ATOM     18  N   UNL     1      -2.790   0.513   7.304  0.00  0.00    -0.297 N 
ATOM     19  H   UNL     1      -2.543   1.044   8.077  0.00  0.00    +0.154 HD
BRANCH  18  20
ATOM     20  C   UNL     1      -4.084   0.208   7.082  0.00  0.00    +0.139 C 
ATOM     21  S   UNL     1      -4.508  -0.843   5.798  0.00  0.00    -0.018 S 
BRANCH  20  22
ATOM     22  N   UNL     1      -5.044   0.729   7.871  0.00  0.00    -0.297 N 
ATOM     23  H   UNL     1      -4.813   1.384   8.548  0.00  0.00    +0.154 HD
BRANCH  22  24
ATOM     24  C   UNL     1      -6.369   0.326   7.715  0.00  0.00    +0.033 A 
ATOM     25  C   UNL     1      -6.666  -1.017   7.505  0.00  0.00    +0.024 A 
ATOM     26  C   UNL     1      -7.974  -1.418   7.350  0.00  0.00    +0.015 A 
ATOM     27  C   UNL     1      -9.004  -0.474   7.404  0.00  0.00    +0.037 A 
ATOM     28  C   UNL     1      -8.702   0.874   7.615  0.00  0.00    +0.015 A 
ATOM     29  C   UNL     1      -7.392   1.267   7.774  0.00  0.00    +0.024 A 
BRANCH  27  30
ATOM     30  C   UNL     1     -10.407  -0.901   7.237  0.00  0.00    +0.244 C 
ATOM     31  O   UNL     1     -10.668  -2.074   7.053  0.00  0.00    -0.270 OA
ATOM     32  N   UNL     1     -11.399   0.010   7.290  0.00  0.00    -0.314 N 
ATOM     33  C   UNL     1     -12.791  -0.413   7.125  0.00  0.00    +0.128 C 
ATOM     34  H   UNL     1     -11.190   0.946   7.436  0.00  0.00    +0.149 HD
ENDBRANCH  27  30
ENDBRANCH  22  24
ENDBRANCH  20  22
ENDBRANCH  18  20
ENDBRANCH   4  18
TORSDOF 7
