REMARK  Name = ZINC34747226
REMARK  8 active torsions:
REMARK  status: ('A' for Active; 'I' for Inactive)
REMARK    1  A    between atoms: C_1  and  C_2
REMARK    2  A    between atoms: C_2  and  C_3
REMARK    3  A    between atoms: C_3  and  C_4
REMARK    4  A    between atoms: C_4  and  N_5
REMARK    5  A    between atoms: N_24  and  C_25
REMARK    6  A    between atoms: C_25  and  C_26
REMARK    7  A    between atoms: N_28  and  C_29
REMARK    8  A    between atoms: C_29  and  C_30
REMARK                            x       y       z     vdW  Elec       q    Type
REMARK                         _______ _______ _______ _____ _____    ______ ____
ROOT
ATOM      1  N   UNL     1      -3.961  -1.675   0.182  0.00  0.00    +0.382 N 
ATOM      2  C   UNL     1      -5.384  -1.972   0.391  0.00  0.00    -0.060 C 
ATOM      3  C   UNL     1      -5.593  -3.490   0.400  0.00  0.00    +0.089 C 
ATOM      4  N   UNL     1      -5.033  -4.044  -0.843  0.00  0.00    -0.304 N 
ATOM      5  C   UNL     1      -3.661  -3.664  -1.215  0.00  0.00    +0.089 C 
ATOM      6  C   UNL     1      -3.544  -2.138  -1.147  0.00  0.00    -0.060 C 
ATOM      7  C   UNL     1      -5.770  -4.891  -1.633  0.00  0.00    +0.202 A 
ATOM      8  N   UNL     1      -6.534  -4.393  -2.582  0.00  0.00    -0.208 NA
ATOM      9  C   UNL     1      -7.258  -5.190  -3.361  0.00  0.00    +0.117 A 
ATOM     10  C   UNL     1      -7.247  -6.587  -3.216  0.00  0.00    +0.076 A 
ATOM     11  C   UNL     1      -8.096  -7.333  -4.146  0.00  0.00    -0.023 A 
ATOM     12  C   UNL     1      -8.799  -6.614  -5.044  0.00  0.00    -0.004 A 
ATOM     13  S   UNL     1      -8.380  -4.925  -4.711  0.00  0.00    -0.073 S 
ATOM     14  C   UNL     1      -9.732  -7.136  -6.095  0.00  0.00    +0.043 C 
ATOM     15  C   UNL     1      -9.493  -8.645  -6.248  0.00  0.00    +0.005 C 
ATOM     16  C   UNL     1      -9.464  -9.282  -4.856  0.00  0.00    +0.005 C 
ATOM     17  C   UNL     1      -8.195  -8.856  -4.117  0.00  0.00    +0.037 C 
ATOM     18  C   UNL     1      -6.407  -7.099  -2.176  0.00  0.00    +0.264 A 
ATOM     19  O   UNL     1      -6.333  -8.299  -1.976  0.00  0.00    -0.267 OA
ATOM     20  N   UNL     1      -5.696  -6.237  -1.426  0.00  0.00    -0.271 N 
ATOM     21  H   UNL     1      -3.415  -2.146   0.888  0.00  0.00    -0.082 HD
ENDROOT
BRANCH   1  22
ATOM     22  C   UNL     1      -3.745  -0.226   0.284  0.00  0.00    -0.079 C 
BRANCH  22  23
ATOM     23  C   UNL     1      -4.061   0.238   1.708  0.00  0.00    -0.019 C 
BRANCH  23  25
ATOM     24  C   UNL     1      -4.152   2.212   3.237  0.00  0.00    +0.004 C 
ATOM     25  C   UNL     1      -3.836   1.748   1.814  0.00  0.00    -0.005 C 
ENDBRANCH  23  25
ENDBRANCH  22  23
ENDBRANCH   1  22
BRANCH  20  26
ATOM     26  C   UNL     1      -4.830  -6.754  -0.364  0.00  0.00    +0.223 C 
BRANCH  26  27
ATOM     27  C   UNL     1      -5.635  -6.933   0.898  0.00  0.00    +0.233 C 
ATOM     28  O   UNL     1      -6.815  -6.655   0.908  0.00  0.00    -0.274 OA
ATOM     29  N   UNL     1      -5.043  -7.400   2.014  0.00  0.00    -0.310 N 
ATOM     30  H   UNL     1      -4.098  -7.622   2.006  0.00  0.00    +0.149 HD
BRANCH  29  31
ATOM     31  C   UNL     1      -5.825  -7.574   3.241  0.00  0.00    +0.139 C 
BRANCH  31  32
ATOM     32  C   UNL     1      -4.934  -8.106   4.334  0.00  0.00    -0.030 A 
ATOM     33  C   UNL     1      -4.788  -9.470   4.503  0.00  0.00    +0.005 A 
ATOM     34  C   UNL     1      -3.971  -9.958   5.506  0.00  0.00    +0.000 A 
ATOM     35  C   UNL     1      -3.300  -9.082   6.339  0.00  0.00    +0.000 A 
ATOM     36  C   UNL     1      -3.446  -7.718   6.169  0.00  0.00    +0.000 A 
ATOM     37  C   UNL     1      -4.260  -7.230   5.163  0.00  0.00    +0.005 A 
ENDBRANCH  31  32
ENDBRANCH  29  31
ENDBRANCH  26  27
ENDBRANCH  20  26
TORSDOF 7
