REMARK  Name = ZINC35932743
REMARK  5 active torsions:
REMARK  status: ('A' for Active; 'I' for Inactive)
REMARK    1  A    between atoms: C_6  and  C_7
REMARK    2  A    between atoms: C_8  and  N_20
REMARK    3  A    between atoms: C_9  and  N_19
REMARK    4  A    between atoms: N_10  and  C_12
REMARK    5  A    between atoms: N_26  and  C_29
REMARK                            x       y       z     vdW  Elec       q    Type
REMARK                         _______ _______ _______ _____ _____    ______ ____
ROOT
ATOM      1  C   UNL     1      -2.880  -2.035  -0.854  0.00  0.00    +0.116 A 
ATOM      2  C   UNL     1      -1.490  -2.047  -0.620  0.00  0.00    +0.103 A 
ATOM      3  C   UNL     1      -1.233  -1.177   0.397  0.00  0.00    +0.142 A 
ATOM      4  N   UNL     1      -2.422  -0.636   0.788  0.00  0.00    -0.216 N 
ATOM      5  N   UNL     1      -3.432  -1.184  -0.012  0.00  0.00    -0.163 NA
ENDROOT
BRANCH   2   6
ATOM      6  N   UNL     1      -0.536  -2.822  -1.313  0.00  0.00    -0.265 N 
ATOM      7  C   UNL     1      -0.839  -4.076  -1.701  0.00  0.00    +0.306 C 
ATOM      8  O   UNL     1      -1.893  -4.580  -1.361  0.00  0.00    -0.252 OA
ATOM      9  N   UNL     1       0.025  -4.773  -2.466  0.00  0.00    -0.289 N 
ATOM     10  C   UNL     1       1.354  -4.232  -2.789  0.00  0.00    +0.091 C 
ATOM     11  C   UNL     1       2.404  -5.301  -2.469  0.00  0.00    -0.059 C 
ATOM     12  N   UNL     1       2.067  -6.544  -3.175  0.00  0.00    +0.384 N 
ATOM     13  C   UNL     1       0.794  -7.076  -2.670  0.00  0.00    -0.059 C 
ATOM     14  C   UNL     1      -0.333  -6.098  -2.996  0.00  0.00    +0.091 C 
ATOM     15  H   UNL     1       0.339  -2.451  -1.511  0.00  0.00    +0.157 HD
ATOM     16  H   UNL     1       1.984  -6.357  -4.162  0.00  0.00    -0.081 HD
BRANCH  12  17
ATOM     17  C   UNL     1       3.130  -7.534  -2.955  0.00  0.00    -0.068 C 
ATOM     18  C   UNL     1       4.458  -7.024  -3.554  0.00  0.00    -0.015 C 
ATOM     19  C   UNL     1       5.127  -8.296  -4.131  0.00  0.00    -0.002 C 
ATOM     20  C   UNL     1       3.925  -9.083  -4.708  0.00  0.00    -0.002 C 
ATOM     21  C   UNL     1       2.792  -8.843  -3.689  0.00  0.00    -0.015 C 
ENDBRANCH  12  17
ENDBRANCH   2   6
BRANCH   1  27
ATOM     22  C   UNL     1      -4.886  -3.301  -1.622  0.00  0.00    +0.011 A 
ATOM     23  C   UNL     1      -5.549  -4.046  -2.576  0.00  0.00    +0.020 A 
ATOM     24  C   UNL     1      -4.936  -4.331  -3.784  0.00  0.00    +0.041 A 
ATOM     25  C   UNL     1      -3.656  -3.871  -4.042  0.00  0.00    +0.020 A 
ATOM     26  C   UNL     1      -2.985  -3.126  -3.094  0.00  0.00    +0.011 A 
ATOM     27  C   UNL     1      -3.597  -2.836  -1.876  0.00  0.00    +0.004 A 
ATOM     28 CL   UNL     1      -5.775  -5.269  -4.980  0.00  0.00    -0.084 Cl
ENDBRANCH   1  27
BRANCH   4  29
ATOM     29  C   UNL     1      -2.601   0.307   1.809  0.00  0.00    +0.068 A 
ATOM     30  C   UNL     1      -1.798   0.267   2.941  0.00  0.00    +0.030 A 
ATOM     31  C   UNL     1      -1.976   1.198   3.946  0.00  0.00    +0.040 A 
ATOM     32  C   UNL     1      -2.954   2.170   3.825  0.00  0.00    +0.124 A 
ATOM     33  C   UNL     1      -3.756   2.212   2.696  0.00  0.00    +0.040 A 
ATOM     34  C   UNL     1      -3.578   1.286   1.687  0.00  0.00    +0.030 A 
ATOM     35  F   UNL     1      -3.127   3.079   4.809  0.00  0.00    -0.205 F 
ENDBRANCH   4  29
BRANCH   3  36
ATOM     36  N   UNL     1       0.021  -0.892   0.940  0.00  0.00    -0.342 N 
ATOM     37  H   UNL     1       0.818  -1.288   0.555  0.00  0.00    +0.144 HD
ATOM     38  H   UNL     1       0.095  -0.297   1.703  0.00  0.00    +0.144 HD
ENDBRANCH   3  36
TORSDOF 5
