REMARK  Name = ZINC40173195
REMARK  9 active torsions:
REMARK  status: ('A' for Active; 'I' for Inactive)
REMARK    1  A    between atoms: C_1  and  C_2
REMARK    2  A    between atoms: C_2  and  C_3
REMARK    3  A    between atoms: C_3  and  C_5
REMARK    4  A    between atoms: C_3  and  N_19
REMARK    5  A    between atoms: C_13  and  O_17
REMARK    6  A    between atoms: O_17  and  C_18
REMARK    7  A    between atoms: C_23  and  S_24
REMARK    8  A    between atoms: S_24  and  C_25
REMARK    9  A    between atoms: C_25  and  C_26
REMARK                            x       y       z     vdW  Elec       q    Type
REMARK                         _______ _______ _______ _____ _____    ______ ____
ROOT
ATOM      1  C   UNL     1       0.737  -0.606  -1.202  0.00  0.00    +0.178 C 
ENDROOT
BRANCH   1   2
ATOM      2  C   UNL     1       2.208  -0.296  -1.092  0.00  0.00    +0.242 C 
ATOM      3  O   UNL     1       3.021  -1.196  -1.121  0.00  0.00    -0.273 OA
ATOM      4  N   UNL     1       2.620   0.980  -0.963  0.00  0.00    -0.263 N 
ATOM      5  C   UNL     1       3.963   1.258  -0.762  0.00  0.00    +0.165 A 
ATOM      6  N   UNL     1       4.972   0.424  -0.677  0.00  0.00    -0.225 NA
ATOM      7  C   UNL     1       6.243   0.839  -0.479  0.00  0.00    +0.081 A 
ATOM      8  C   UNL     1       7.411   0.049  -0.369  0.00  0.00    +0.032 A 
ATOM      9  C   UNL     1       8.635   0.631  -0.165  0.00  0.00    +0.048 A 
ATOM     10  C   UNL     1       8.774   2.012  -0.059  0.00  0.00    +0.121 A 
ATOM     11  C   UNL     1       7.648   2.815  -0.163  0.00  0.00    +0.063 A 
ATOM     12  C   UNL     1       6.420   2.236  -0.367  0.00  0.00    +0.044 A 
ATOM     13  S   UNL     1       4.762   2.844  -0.562  0.00  0.00    -0.052 S 
ATOM     14  H   UNL     1       1.977   1.704  -1.010  0.00  0.00    +0.157 HD
BRANCH  10  15
ATOM     15  O   UNL     1       9.998   2.566   0.143  0.00  0.00    -0.495 OA
ATOM     16  C   UNL     1      11.108   1.671   0.240  0.00  0.00    +0.277 C 
ENDBRANCH  10  15
ENDBRANCH   1   2
BRANCH   1  17
ATOM     17  N   UNL     1       0.546  -2.058  -1.244  0.00  0.00    -0.279 N 
ATOM     18  C   UNL     1       0.915  -2.945  -0.274  0.00  0.00    +0.216 A 
ATOM     19  N   UNL     1       0.578  -4.147  -0.673  0.00  0.00    -0.113 NA
ATOM     20  N   UNL     1      -0.024  -4.031  -1.933  0.00  0.00    -0.121 NA
ATOM     21  C   UNL     1      -0.039  -2.762  -2.260  0.00  0.00    +0.194 A 
ATOM     22  N   UNL     1       1.538  -2.630   0.927  0.00  0.00    -0.328 N 
ATOM     23  H   UNL     1       1.750  -1.706   1.135  0.00  0.00    +0.145 HD
ATOM     24  H   UNL     1       1.763  -3.332   1.556  0.00  0.00    +0.145 HD
BRANCH  21  25
ATOM     25  S   UNL     1      -0.694  -2.083  -3.748  0.00  0.00    -0.081 S 
BRANCH  25  26
ATOM     26  C   UNL     1      -1.312  -3.527  -4.655  0.00  0.00    +0.114 C 
BRANCH  26  27
ATOM     27  C   UNL     1      -1.907  -3.080  -5.965  0.00  0.00    -0.019 A 
ATOM     28  C   UNL     1      -3.246  -2.745  -6.038  0.00  0.00    +0.006 A 
ATOM     29  C   UNL     1      -3.792  -2.335  -7.240  0.00  0.00    +0.000 A 
ATOM     30  C   UNL     1      -2.999  -2.261  -8.370  0.00  0.00    +0.001 A 
ATOM     31  C   UNL     1      -1.661  -2.597  -8.299  0.00  0.00    +0.020 A 
ATOM     32  C   UNL     1      -1.112  -3.001  -7.095  0.00  0.00    +0.045 A 
ATOM     33 CL   UNL     1       0.571  -3.417  -7.003  0.00  0.00    -0.083 Cl
ENDBRANCH  26  27
ENDBRANCH  25  26
ENDBRANCH  21  25
ENDBRANCH   1  17
BRANCH   1  35
ATOM     34  C   UNL     1      -1.504  -0.222  -0.168  0.00  0.00    +0.006 C 
ATOM     35  C   UNL     1       0.003  -0.030   0.010  0.00  0.00    +0.031 C 
ENDBRANCH   1  35
TORSDOF 7
