REMARK  Name = ZINC39639434
REMARK  6 active torsions:
REMARK  status: ('A' for Active; 'I' for Inactive)
REMARK    1  A    between atoms: C_1  and  C_2
REMARK    2  A    between atoms: C_5  and  C_8
REMARK    3  A    between atoms: C_8  and  C_10
REMARK    4  A    between atoms: C_8  and  N_11
REMARK    5  A    between atoms: C_12  and  C_14
REMARK    6  A    between atoms: C_25  and  C_27
REMARK                            x       y       z     vdW  Elec       q    Type
REMARK                         _______ _______ _______ _____ _____    ______ ____
ROOT
ATOM      1  C   UNL     1       2.451  -6.460   1.997  0.00  0.00    +0.100 C 
ATOM      2  C   UNL     1       1.733  -6.498   3.364  0.00  0.00    +0.121 C 
ATOM      3  N   UNL     1       1.234  -7.888   3.486  0.00  0.00    -0.295 N 
ATOM      4  C   UNL     1       2.325  -8.722   2.926  0.00  0.00    +0.115 C 
ATOM      5  C   UNL     1       2.842  -7.920   1.715  0.00  0.00    -0.004 C 
ATOM      6  C   UNL     1       4.358  -8.050   1.604  0.00  0.00    -0.010 C 
ATOM      7  C   UNL     1       4.718  -9.499   1.265  0.00  0.00    -0.082 C 
ATOM      8  N   UNL     1       4.080  -9.881  -0.001  0.00  0.00    +0.379 N 
ATOM      9  C   UNL     1       2.620  -9.843   0.144  0.00  0.00    -0.082 C 
ATOM     10  C   UNL     1       2.171  -8.409   0.435  0.00  0.00    -0.010 C 
ATOM     11  C   UNL     1       0.055  -8.302   3.992  0.00  0.00    +0.265 C 
ATOM     12  O   UNL     1      -0.782  -7.487   4.324  0.00  0.00    -0.268 OA
ATOM     13  H   UNL     1       4.362  -9.239  -0.725  0.00  0.00    -0.086 HD
ATOM     14  H   UNL     1       4.367 -10.815  -0.252  0.00  0.00    -0.086 HD
ENDROOT
BRANCH  11  15
ATOM     15  C   UNL     1      -0.219  -9.751   4.144  0.00  0.00    +0.126 A 
ATOM     16  C   UNL     1      -1.492 -10.167   4.561  0.00  0.00    +0.033 A 
ATOM     17  C   UNL     1      -1.758 -11.499   4.704  0.00  0.00    +0.012 A 
ATOM     18  C   UNL     1      -0.729 -12.417   4.423  0.00  0.00    +0.000 A 
ATOM     19  C   UNL     1      -0.932 -13.801   4.548  0.00  0.00    +0.010 A 
ATOM     20  C   UNL     1       0.086 -14.659   4.268  0.00  0.00    +0.001 A 
ATOM     21  C   UNL     1       1.331 -14.184   3.857  0.00  0.00    +0.002 A 
ATOM     22  C   UNL     1       1.565 -12.851   3.725  0.00  0.00    +0.028 A 
ATOM     23  C   UNL     1       0.537 -11.930   4.005  0.00  0.00    +0.072 A 
ATOM     24  N   UNL     1       0.738 -10.619   3.878  0.00  0.00    -0.242 NA
ENDBRANCH  11  15
BRANCH   1  26
ATOM     25  N   UNL     1       2.011  -5.269  -0.126  0.00  0.00    -0.308 N 
ATOM     26  C   UNL     1       1.519  -5.950   0.928  0.00  0.00    +0.219 C 
ATOM     27  O   UNL     1       0.327  -6.152   1.017  0.00  0.00    -0.275 OA
ATOM     28  H   UNL     1       2.965  -5.107  -0.197  0.00  0.00    +0.149 HD
BRANCH  25  29
ATOM     29  C   UNL     1       1.105  -4.773  -1.165  0.00  0.00    +0.100 C 
ATOM     30  C   UNL     1       0.536  -3.418  -0.741  0.00  0.00    +0.033 C 
BRANCH  29  35
ATOM     31  C   UNL     1       4.004  -4.176  -6.128  0.00  0.00    +0.044 C 
ATOM     32  C   UNL     1       3.248  -4.332  -4.833  0.00  0.00    -0.050 A 
ATOM     33  C   UNL     1       1.959  -4.833  -4.841  0.00  0.00    +0.004 A 
ATOM     34  C   UNL     1       1.266  -4.976  -3.654  0.00  0.00    +0.006 A 
ATOM     35  C   UNL     1       1.861  -4.618  -2.459  0.00  0.00    -0.027 A 
ATOM     36  C   UNL     1       3.150  -4.119  -2.451  0.00  0.00    +0.006 A 
ATOM     37  C   UNL     1       3.845  -3.980  -3.638  0.00  0.00    +0.004 A 
ENDBRANCH  29  35
ENDBRANCH  25  29
ENDBRANCH   1  26
TORSDOF 4
