REMARK  Name = ZINC40850201
REMARK  17 active torsions:
REMARK  status: ('A' for Active; 'I' for Inactive)
REMARK    1  A    between atoms: C_1  and  C_2
REMARK    2  A    between atoms: C_4  and  C_35
REMARK    3  A    between atoms: C_9  and  C_31
REMARK    4  A    between atoms: C_11  and  S_13
REMARK    5  A    between atoms: S_13  and  C_14
REMARK    6  A    between atoms: C_14  and  C_15
REMARK    7  A    between atoms: C_15  and  C_16
REMARK    8  A    between atoms: N_18  and  C_19
REMARK    9  A    between atoms: C_21  and  O_29
REMARK   10  A    between atoms: C_22  and  O_27
REMARK   11  A    between atoms: C_23  and  O_25
REMARK   12  A    between atoms: O_25  and  C_26
REMARK   13  A    between atoms: O_27  and  C_28
REMARK   14  A    between atoms: O_29  and  C_30
REMARK   15  A    between atoms: C_31  and  C_32
REMARK   16  A    between atoms: C_32  and  C_33
REMARK   17  A    between atoms: C_32  and  C_34
REMARK                            x       y       z     vdW  Elec       q    Type
REMARK                         _______ _______ _______ _____ _____    ______ ____
ROOT
ATOM      1  S   UNL     1       0.128  -7.130   0.905  0.00  0.00    -0.105 S 
ENDROOT
BRANCH   1  12
ATOM      2  C   UNL     1      -0.062   1.502   0.012  0.00  0.00    +0.067 C 
ATOM      3  C   UNL     1      -0.033  -0.005   0.003  0.00  0.00    +0.061 A 
ATOM      4  C   UNL     1      -0.028  -0.818  -1.137  0.00  0.00    +0.048 A 
ATOM      5  C   UNL     1       0.002  -2.107  -0.730  0.00  0.00    +0.045 A 
ATOM      6  N   UNL     1       0.014  -2.109   0.629  0.00  0.00    -0.202 N 
ATOM      7  N   UNL     1      -0.002  -0.776   1.059  0.00  0.00    -0.169 NA
ATOM      8  C   UNL     1       0.044  -3.237   1.450  0.00  0.00    +0.253 A 
ATOM      9  N   UNL     1       0.048  -3.079   2.764  0.00  0.00    -0.216 NA
ATOM     10  C   UNL     1       0.075  -4.125   3.576  0.00  0.00    +0.048 A 
ATOM     11  C   UNL     1       0.101  -5.397   3.039  0.00  0.00    +0.058 A 
ATOM     12  C   UNL     1       0.096  -5.532   1.648  0.00  0.00    +0.103 A 
ATOM     13  N   UNL     1       0.063  -4.437   0.894  0.00  0.00    -0.204 NA
ATOM     14  C   UNL     1       0.017  -3.322  -1.621  0.00  0.00    +0.066 C 
BRANCH  10  15
ATOM     15  C   UNL     1       0.080  -3.929   5.070  0.00  0.00    +0.058 C 
BRANCH  15  16
ATOM     16  C   UNL     1       1.244  -3.016   5.462  0.00  0.00    -0.011 C 
ATOM     17  C   UNL     1       1.175  -2.716   6.960  0.00  0.00    +0.007 C 
ATOM     18  C   UNL     1       2.568  -3.713   5.141  0.00  0.00    +0.007 C 
ENDBRANCH  15  16
ENDBRANCH  10  15
ENDBRANCH   1  12
BRANCH   1  19
ATOM     19  C   UNL     1       0.111  -6.785  -0.876  0.00  0.00    +0.085 C 
BRANCH  19  20
ATOM     20  C   UNL     1       0.136  -8.104  -1.651  0.00  0.00    +0.107 C 
BRANCH  20  21
ATOM     21  C   UNL     1       0.122  -7.818  -3.130  0.00  0.00    +0.218 C 
ATOM     22  O   UNL     1       0.094  -6.672  -3.526  0.00  0.00    -0.275 OA
ATOM     23  N   UNL     1       0.140  -8.836  -4.013  0.00  0.00    -0.285 N 
ATOM     24  H   UNL     1       0.230  -9.749  -3.699  0.00  0.00    +0.155 HD
BRANCH  23  25
ATOM     25  C   UNL     1       0.029  -8.575  -5.385  0.00  0.00    +0.041 A 
ATOM     26  C   UNL     1      -0.659  -9.459  -6.206  0.00  0.00    +0.073 A 
ATOM     27  C   UNL     1      -0.769  -9.201  -7.564  0.00  0.00    +0.167 A 
ATOM     28  C   UNL     1      -0.191  -8.058  -8.103  0.00  0.00    +0.204 A 
ATOM     29  C   UNL     1       0.497  -7.174  -7.280  0.00  0.00    +0.167 A 
ATOM     30  C   UNL     1       0.601  -7.430  -5.922  0.00  0.00    +0.073 A 
BRANCH  29  31
ATOM     31  O   UNL     1       1.063  -6.055  -7.807  0.00  0.00    -0.491 OA
ATOM     32  C   UNL     1       1.755  -5.191  -6.903  0.00  0.00    +0.277 C 
ENDBRANCH  29  31
BRANCH  28  33
ATOM     33  O   UNL     1      -0.299  -7.804  -9.436  0.00  0.00    -0.488 OA
ATOM     34  C   UNL     1      -1.428  -7.040  -9.862  0.00  0.00    +0.277 C 
ENDBRANCH  28  33
BRANCH  27  35
ATOM     35  O   UNL     1      -1.442 -10.067  -8.367  0.00  0.00    -0.491 OA
ATOM     36  C   UNL     1      -2.010 -11.221  -7.746  0.00  0.00    +0.277 C 
ENDBRANCH  27  35
ENDBRANCH  23  25
ENDBRANCH  20  21
ENDBRANCH  19  20
ENDBRANCH   1  19
TORSDOF 10
