REMARK  Name = ZINC65585462
REMARK  10 active torsions:
REMARK  status: ('A' for Active; 'I' for Inactive)
REMARK    1  A    between atoms: C_1  and  C_2
REMARK    2  A    between atoms: C_2  and  C_3
REMARK    3  A    between atoms: C_3  and  C_4
REMARK    4  A    between atoms: C_4  and  C_5
REMARK    5  A    between atoms: C_5  and  C_6
REMARK    6  A    between atoms: C_5  and  N_23
REMARK    7  A    between atoms: N_8  and  C_9
REMARK    8  A    between atoms: C_12  and  C_15
REMARK    9  A    between atoms: C_15  and  N_16
REMARK   10  A    between atoms: N_19  and  C_22
REMARK                            x       y       z     vdW  Elec       q    Type
REMARK                         _______ _______ _______ _____ _____    ______ ____
ROOT
ATOM      1  C   UNL     1      -3.226  -3.946   2.302  0.00  0.00    +0.238 C 
ATOM      2  O   UNL     1      -3.736  -4.500   3.254  0.00  0.00    -0.273 OA
ATOM      3  N   UNL     1      -2.640  -4.676   1.332  0.00  0.00    -0.284 N 
ATOM      4  H   UNL     1      -2.301  -4.240   0.535  0.00  0.00    +0.155 HD
ENDROOT
BRANCH   3   5
ATOM      5  C   UNL     1      -2.523  -6.064   1.475  0.00  0.00    +0.033 A 
ATOM      6  C   UNL     1      -2.589  -6.886   0.358  0.00  0.00    +0.023 A 
ATOM      7  C   UNL     1      -2.473  -8.255   0.503  0.00  0.00    +0.007 A 
ATOM      8  C   UNL     1      -2.291  -8.806   1.758  0.00  0.00    -0.033 A 
ATOM      9  C   UNL     1      -2.225  -7.990   2.872  0.00  0.00    +0.007 A 
ATOM     10  C   UNL     1      -2.334  -6.620   2.733  0.00  0.00    +0.023 A 
BRANCH   8  11
ATOM     11  C   UNL     1      -2.164 -10.300   1.911  0.00  0.00    +0.119 C 
BRANCH  11  12
ATOM     12  N   UNL     1      -0.750 -10.685   1.806  0.00  0.00    -0.302 NA
ATOM     13  C   UNL     1      -0.235 -10.433   0.453  0.00  0.00    +0.066 C 
ATOM     14  C   UNL     1       1.252 -10.791   0.402  0.00  0.00    -0.064 C 
ATOM     15  N   UNL     1       1.428 -12.205   0.756  0.00  0.00    +0.379 N 
ATOM     16  C   UNL     1       0.932 -12.436   2.119  0.00  0.00    -0.064 C 
ATOM     17  C   UNL     1      -0.558 -12.092   2.185  0.00  0.00    +0.066 C 
ATOM     18  C   UNL     1       2.854 -12.552   0.689  0.00  0.00    -0.096 C 
ATOM     19  H   UNL     1       0.912 -12.781   0.108  0.00  0.00    -0.082 HD
ENDBRANCH  11  12
ENDBRANCH   8  11
ENDBRANCH   3   5
BRANCH   1  20
ATOM     20  C   UNL     1      -3.247  -2.443   2.205  0.00  0.00    +0.161 C 
BRANCH  20  21
ATOM     21  N   UNL     1      -3.483  -1.871   3.533  0.00  0.00    -0.288 N 
ATOM     22  C   UNL     1      -4.614  -2.169   4.204  0.00  0.00    +0.298 C 
ATOM     23  O   UNL     1      -5.437  -2.913   3.707  0.00  0.00    -0.253 OA
ATOM     24  N   UNL     1      -4.831  -1.643   5.425  0.00  0.00    -0.313 N 
ATOM     25  H   UNL     1      -2.827  -1.277   3.929  0.00  0.00    +0.151 HD
ATOM     26  H   UNL     1      -4.174  -1.049   5.821  0.00  0.00    +0.146 HD
ATOM     27  H   UNL     1      -5.644  -1.858   5.908  0.00  0.00    +0.146 HD
ENDBRANCH  20  21
BRANCH  20  28
ATOM     28  C   UNL     1      -4.366  -2.009   1.256  0.00  0.00    +0.032 C 
BRANCH  28  29
ATOM     29  C   UNL     1      -4.308  -0.493   1.059  0.00  0.00    +0.002 C 
BRANCH  29  31
ATOM     30  C   UNL     1      -5.370   1.458  -0.086  0.00  0.00    +0.004 C 
ATOM     31  C   UNL     1      -5.427  -0.059   0.110  0.00  0.00    -0.003 C 
ENDBRANCH  29  31
ENDBRANCH  28  29
ENDBRANCH  20  28
ENDBRANCH   1  20
TORSDOF 8
