REMARK  Name = ZINC40232034
REMARK  5 active torsions:
REMARK  status: ('A' for Active; 'I' for Inactive)
REMARK    1  A    between atoms: C_1  and  C_2
REMARK    2  A    between atoms: C_2  and  C_4
REMARK    3  A    between atoms: C_2  and  N_14
REMARK    4  A    between atoms: C_7  and  N_10
REMARK    5  A    between atoms: C_15  and  C_17
REMARK                            x       y       z     vdW  Elec       q    Type
REMARK                         _______ _______ _______ _____ _____    ______ ____
ROOT
ATOM      1  C   UNL     1      -1.406  -0.541   0.024  0.00  0.00    -0.027 A 
ATOM      2  C   UNL     1      -2.059  -0.749   1.225  0.00  0.00    +0.007 A 
ATOM      3  C   UNL     1      -3.357  -1.222   1.234  0.00  0.00    +0.023 A 
ATOM      4  C   UNL     1      -4.006  -1.488   0.036  0.00  0.00    +0.035 A 
ATOM      5  C   UNL     1      -3.347  -1.279  -1.168  0.00  0.00    +0.023 A 
ATOM      6  C   UNL     1      -2.051  -0.801  -1.171  0.00  0.00    +0.007 A 
ENDROOT
BRANCH   4   7
ATOM      7  N   UNL     1      -5.320  -1.968   0.042  0.00  0.00    -0.270 N 
ATOM      8  C   UNL     1      -6.177  -1.575   1.006  0.00  0.00    +0.301 C 
ATOM      9  O   UNL     1      -5.838  -0.730   1.812  0.00  0.00    -0.253 OA
ATOM     10  N   UNL     1      -7.408  -2.117   1.075  0.00  0.00    -0.313 N 
ATOM     11  H   UNL     1      -5.615  -2.584  -0.647  0.00  0.00    +0.156 HD
ATOM     12  H   UNL     1      -7.678  -2.791   0.432  0.00  0.00    +0.146 HD
ATOM     13  H   UNL     1      -8.025  -1.834   1.769  0.00  0.00    +0.146 HD
ENDBRANCH   4   7
BRANCH   1  15
ATOM     14  C   UNL     1       0.002   1.489   0.238  0.00  0.00    +0.033 C 
ATOM     15  C   UNL     1       0.010  -0.025   0.017  0.00  0.00    +0.100 C 
BRANCH  15  16
ATOM     16  N   UNL     1       0.770  -0.671   1.090  0.00  0.00    -0.304 N 
ATOM     17  C   UNL     1       2.110  -0.780   0.995  0.00  0.00    +0.251 C 
ATOM     18  O   UNL     1       2.688  -0.342   0.018  0.00  0.00    -0.270 OA
ATOM     19  H   UNL     1       0.309  -1.020   1.869  0.00  0.00    +0.150 HD
BRANCH  17  20
ATOM     20  C   UNL     1       2.870  -1.426   2.067  0.00  0.00    +0.075 A 
ATOM     21  C   UNL     1       4.238  -1.633   2.167  0.00  0.00    +0.022 A 
ATOM     22  C   UNL     1       4.664  -2.275   3.304  0.00  0.00    +0.024 A 
ATOM     23  C   UNL     1       3.746  -2.655   4.230  0.00  0.00    +0.056 A 
ATOM     24  S   UNL     1       2.279  -2.144   3.588  0.00  0.00    -0.077 S 
ATOM     25 BR   UNL     1       4.049  -3.545   5.870  0.00  0.00    -0.043 Br
ENDBRANCH  17  20
ENDBRANCH  15  16
ENDBRANCH   1  15
TORSDOF 4
