REMARK  Name = ZINC61120878
REMARK  5 active torsions:
REMARK  status: ('A' for Active; 'I' for Inactive)
REMARK    1  A    between atoms: C_3  and  S_9
REMARK    2  A    between atoms: C_6  and  N_7
REMARK    3  A    between atoms: N_7  and  N_8
REMARK    4  A    between atoms: S_9  and  N_12
REMARK    5  A    between atoms: N_12  and  C_13
REMARK                            x       y       z     vdW  Elec       q    Type
REMARK                         _______ _______ _______ _____ _____    ______ ____
ROOT
ATOM      1  S   UNL     1       3.670   1.611   0.429  0.00  0.00    +0.072 S 
ATOM      2  O   UNL     1       4.796   0.940  -0.119  0.00  0.00    -0.150 OA
ATOM      3  O   UNL     1       2.747   2.332  -0.376  0.00  0.00    -0.150 OA
ENDROOT
BRANCH   1   6
ATOM      4  C   UNL     1       0.631  -0.409   2.108  0.00  0.00    +0.026 A 
ATOM      5  C   UNL     1       1.366   0.539   1.425  0.00  0.00    +0.030 A 
ATOM      6  C   UNL     1       2.736   0.399   1.303  0.00  0.00    +0.109 A 
ATOM      7  C   UNL     1       3.376  -0.690   1.865  0.00  0.00    +0.030 A 
ATOM      8  C   UNL     1       2.647  -1.643   2.550  0.00  0.00    +0.026 A 
ATOM      9  C   UNL     1       1.270  -1.505   2.674  0.00  0.00    +0.041 A 
BRANCH   9  10
ATOM     10  N   UNL     1       0.530  -2.466   3.367  0.00  0.00    -0.283 N 
ATOM     11  H   UNL     1      -0.431  -2.369   3.453  0.00  0.00    +0.166 HD
BRANCH  10  12
ATOM     12  N   UNL     1       1.160  -3.543   3.923  0.00  0.00    -0.257 NA
ATOM     13  H   UNL     1       1.889  -3.249   4.556  0.00  0.00    +0.140 HD
ATOM     14  H   UNL     1       0.500  -4.148   4.388  0.00  0.00    +0.140 HD
ENDBRANCH  10  12
ENDBRANCH   9  10
ENDBRANCH   1   6
BRANCH   1  15
ATOM     15  N   UNL     1       4.256   2.680   1.550  0.00  0.00    -0.216 N 
ATOM     16  H   UNL     1       5.213   2.775   1.676  0.00  0.00    +0.174 HD
BRANCH  15  17
ATOM     17  C   UNL     1       3.371   3.446   2.315  0.00  0.00    +0.054 A 
ATOM     18  C   UNL     1       2.713   4.527   1.742  0.00  0.00    +0.066 A 
ATOM     19  C   UNL     1       1.837   5.283   2.501  0.00  0.00    +0.163 A 
ATOM     20  C   UNL     1       1.616   4.963   3.831  0.00  0.00    +0.193 A 
ATOM     21  C   UNL     1       2.272   3.885   4.404  0.00  0.00    +0.163 A 
ATOM     22  C   UNL     1       3.144   3.123   3.646  0.00  0.00    +0.066 A 
ATOM     23  F   UNL     1       2.056   3.574   5.700  0.00  0.00    -0.202 F 
ATOM     24  F   UNL     1       0.761   5.702   4.570  0.00  0.00    -0.199 F 
ATOM     25  F   UNL     1       1.198   6.335   1.944  0.00  0.00    -0.202 F 
ENDBRANCH  15  17
ENDBRANCH   1  15
TORSDOF 5
