REMARK  Name = ZINC19826971
REMARK  8 active torsions:
REMARK  status: ('A' for Active; 'I' for Inactive)
REMARK    1  A    between atoms: C_4  and  C_7
REMARK    2  A    between atoms: C_9  and  C_13
REMARK    3  A    between atoms: C_16  and  S_19
REMARK    4  A    between atoms: N_17  and  N_18
REMARK    5  A    between atoms: S_19  and  C_20
REMARK    6  A    between atoms: C_20  and  C_21
REMARK    7  A    between atoms: N_23  and  C_24
REMARK    8  A    between atoms: C_29  and  C_30
REMARK                            x       y       z     vdW  Elec       q    Type
REMARK                         _______ _______ _______ _____ _____    ______ ____
ROOT
ATOM      1  C   UNL     1       3.606   0.699   0.021  0.00  0.00    +0.199 A 
ATOM      2  N   UNL     1       4.400  -0.307  -0.268  0.00  0.00    -0.125 NA
ATOM      3  N   UNL     1       5.627   0.067  -0.193  0.00  0.00    -0.120 NA
ATOM      4  C   UNL     1       5.693   1.335   0.149  0.00  0.00    +0.209 A 
ATOM      5  N   UNL     1       4.410   1.783   0.292  0.00  0.00    -0.223 N 
ENDROOT
BRANCH   1   8
ATOM      6  C   UNL     1       0.004  -0.021   0.079  0.00  0.00    +0.093 A 
ATOM      7  C   UNL     1       1.343  -0.443   0.056  0.00  0.00    +0.061 A 
ATOM      8  C   UNL     1       2.132   0.673   0.046  0.00  0.00    +0.105 A 
ATOM      9  N   UNL     1       1.306   1.760   0.062  0.00  0.00    -0.273 N 
ATOM     10  H   UNL     1       1.731   2.775   0.058  0.00  0.00    +0.189 HD
ATOM     11  N   UNL     1      -0.015   1.296   0.082  0.00  0.00    -0.173 NA
BRANCH   6  15
ATOM     12  C   UNL     1      -3.406  -2.561   0.129  0.00  0.00    +0.000 A 
ATOM     13  C   UNL     1      -3.570  -1.188   0.135  0.00  0.00    +0.001 A 
ATOM     14  C   UNL     1      -2.466  -0.358   0.118  0.00  0.00    +0.010 A 
ATOM     15  C   UNL     1      -1.186  -0.907   0.096  0.00  0.00    +0.002 A 
ATOM     16  C   UNL     1      -1.027  -2.291   0.084  0.00  0.00    +0.010 A 
ATOM     17  C   UNL     1      -2.137  -3.111   0.107  0.00  0.00    +0.001 A 
ENDBRANCH   6  15
ENDBRANCH   1   8
BRANCH   5  18
ATOM     18  N   UNL     1       4.010   3.043   0.636  0.00  0.00    -0.295 N 
ATOM     19  H   UNL     1       4.759   3.825   0.828  0.00  0.00    +0.163 HD
ATOM     20  H   UNL     1       2.938   3.275   0.720  0.00  0.00    +0.163 HD
ENDBRANCH   5  18
BRANCH   4  21
ATOM     21  S   UNL     1       7.162   2.281   0.375  0.00  0.00    -0.075 S 
BRANCH  21  22
ATOM     22  C   UNL     1       8.407   1.021   0.006  0.00  0.00    +0.173 C 
BRANCH  22  23
ATOM     23  C   UNL     1       9.783   1.621   0.140  0.00  0.00    +0.227 C 
ATOM     24  O   UNL     1       9.909   2.786   0.454  0.00  0.00    -0.275 OA
ATOM     25  N   UNL     1      10.874   0.863  -0.089  0.00  0.00    -0.284 N 
ATOM     26  H   UNL     1      10.763  -0.211  -0.300  0.00  0.00    +0.155 HD
BRANCH  25  27
ATOM     27  C   UNL     1      12.148   1.442  -0.057  0.00  0.00    +0.045 A 
ATOM     28  C   UNL     1      12.423   2.470   0.834  0.00  0.00    +0.025 A 
ATOM     29  C   UNL     1      13.680   3.040   0.864  0.00  0.00    +0.022 A 
ATOM     30  C   UNL     1      14.667   2.586   0.005  0.00  0.00    +0.042 A 
ATOM     31  C   UNL     1      14.396   1.561  -0.884  0.00  0.00    +0.034 A 
ATOM     32  C   UNL     1      13.141   0.985  -0.913  0.00  0.00    +0.077 A 
ATOM     33 CL   UNL     1      16.247   3.304   0.045  0.00  0.00    -0.084 Cl
BRANCH  32  34
ATOM     34  C   UNL     1      12.848  -0.135  -1.878  0.00  0.00    +0.419 C 
ATOM     35  F   UNL     1      13.995  -0.417  -2.628  0.00  0.00    -0.166 F 
ATOM     36  F   UNL     1      12.465  -1.276  -1.166  0.00  0.00    -0.166 F 
ATOM     37  F   UNL     1      11.812   0.248  -2.737  0.00  0.00    -0.166 F 
ENDBRANCH  32  34
ENDBRANCH  25  27
ENDBRANCH  22  23
ENDBRANCH  21  22
ENDBRANCH   4  21
TORSDOF 8
