REMARK  Name = ZINC13064570
REMARK  15 active torsions:
REMARK  status: ('A' for Active; 'I' for Inactive)
REMARK    1  A    between atoms: C_1  and  C_2
REMARK    2  A    between atoms: C_2  and  C_3
REMARK    3  A    between atoms: C_3  and  C_5
REMARK    4  A    between atoms: C_3  and  N_74
REMARK    5  A    between atoms: N_9  and  C_10
REMARK    6  A    between atoms: C_10  and  C_11
REMARK    7  A    between atoms: C_10  and  C_12
REMARK    8  A    between atoms: C_10  and  C_13
REMARK    9  A    between atoms: C_13  and  C_14
REMARK   10  A    between atoms: C_15  and  C_16
REMARK   11  A    between atoms: C_15  and  N_74
REMARK   12  A    between atoms: C_25  and  C_26
REMARK   13  A    between atoms: C_25  and  N_74
REMARK   14  A    between atoms: C_30  and  C_39
REMARK   15  A    between atoms: C_31  and  C_38
REMARK                            x       y       z     vdW  Elec       q    Type
REMARK                         _______ _______ _______ _____ _____    ______ ____
ROOT
ATOM      1  N   UNL     1      -5.864   4.233  -2.021  0.00  0.00    +0.392 N 
ATOM      2  H   UNL     1      -5.235   4.701  -2.685  0.00  0.00    -0.080 HD
ENDROOT
BRANCH   1   3
ATOM      3  C   UNL     1      -7.127   4.996  -1.936  0.00  0.00    +0.003 C 
BRANCH   3   4
ATOM      4  C   UNL     1      -6.807   6.467  -2.017  0.00  0.00    +0.139 A 
ATOM      5  N   UNL     1      -5.841   7.093  -1.389  0.00  0.00    -0.115 NA
ATOM      6  N   UNL     1      -5.896   8.338  -1.717  0.00  0.00    -0.023 NA
ATOM      7  N   UNL     1      -6.871   8.522  -2.538  0.00  0.00    -0.043 NA
ATOM      8  N   UNL     1      -7.454   7.391  -2.751  0.00  0.00    -0.225 N 
BRANCH   8   9
ATOM      9  C   UNL     1      -8.606   7.157  -3.626  0.00  0.00    +0.061 C 
ATOM     10  C   UNL     1      -8.191   6.242  -4.780  0.00  0.00    +0.036 C 
ATOM     11  C   UNL     1      -9.727   6.491  -2.825  0.00  0.00    +0.036 C 
BRANCH   9  12
ATOM     12  C   UNL     1      -9.101   8.492  -4.185  0.00  0.00    +0.026 C 
ATOM     13  C   UNL     1     -10.304   8.247  -5.098  0.00  0.00    +0.006 C 
ENDBRANCH   9  12
ENDBRANCH   8   9
ENDBRANCH   3   4
BRANCH   3  15
ATOM     14  C   UNL     1      -8.297   3.241  -0.598  0.00  0.00    +0.002 C 
ATOM     15  C   UNL     1      -7.841   4.701  -0.616  0.00  0.00    -0.011 C 
ENDBRANCH   3  15
ENDBRANCH   1   3
BRANCH   1  16
ATOM     16  C   UNL     1      -6.133   2.861  -2.501  0.00  0.00    -0.041 C 
BRANCH  16  17
ATOM     17  C   UNL     1      -6.599   2.930  -3.933  0.00  0.00    -0.060 A 
ATOM     18  C   UNL     1      -7.950   2.888  -4.221  0.00  0.00    +0.005 A 
ATOM     19  C   UNL     1      -8.383   2.956  -5.532  0.00  0.00    +0.050 A 
ATOM     20  C   UNL     1      -7.461   3.055  -6.562  0.00  0.00    +0.166 A 
ATOM     21  C   UNL     1      -6.099   3.092  -6.272  0.00  0.00    +0.166 A 
ATOM     22  C   UNL     1      -5.674   3.030  -4.955  0.00  0.00    +0.051 A 
ATOM     23  O   UNL     1      -5.406   3.191  -7.443  0.00  0.00    -0.453 OA
ATOM     24  C   UNL     1      -6.335   2.803  -8.473  0.00  0.00    +0.466 C 
ATOM     25  O   UNL     1      -7.621   3.131  -7.916  0.00  0.00    -0.453 OA
ENDBRANCH  16  17
ENDBRANCH   1  16
BRANCH   1  26
ATOM     26  C   UNL     1      -5.212   4.185  -0.695  0.00  0.00    -0.036 C 
BRANCH  26  27
ATOM     27  C   UNL     1      -3.760   3.828  -0.883  0.00  0.00    +0.001 A 
ATOM     28  C   UNL     1      -2.827   4.809  -0.960  0.00  0.00    +0.017 A 
ATOM     29  C   UNL     1      -1.426   4.428  -1.148  0.00  0.00    -0.001 A 
ATOM     30  C   UNL     1      -0.421   5.396  -1.252  0.00  0.00    +0.013 A 
ATOM     31  C   UNL     1       0.877   5.008  -1.427  0.00  0.00    -0.047 A 
ATOM     32  C   UNL     1       1.208   3.662  -1.503  0.00  0.00    -0.046 A 
ATOM     33  C   UNL     1       0.234   2.692  -1.403  0.00  0.00    +0.030 A 
ATOM     34  C   UNL     1      -1.095   3.063  -1.230  0.00  0.00    +0.049 A 
ATOM     35  N   UNL     1      -2.090   2.113  -1.133  0.00  0.00    -0.322 N 
ATOM     36  H   UNL     1      -1.860   1.173  -1.187  0.00  0.00    +0.169 HD
ATOM     37  C   UNL     1      -3.375   2.473  -0.966  0.00  0.00    +0.251 A 
ATOM     38  O   UNL     1      -4.228   1.606  -0.885  0.00  0.00    -0.268 OA
ATOM     39  C   UNL     1       2.647   3.258  -1.696  0.00  0.00    +0.044 C 
ATOM     40  C   UNL     1       1.959   6.051  -1.538  0.00  0.00    +0.044 C 
ENDBRANCH  26  27
ENDBRANCH   1  26
TORSDOF 9
