REMARK  Name = ZINC03297799
REMARK  13 active torsions:
REMARK  status: ('A' for Active; 'I' for Inactive)
REMARK    1  A    between atoms: C_1  and  C_2
REMARK    2  A    between atoms: C_2  and  O_3
REMARK    3  A    between atoms: O_3  and  C_4
REMARK    4  A    between atoms: C_9  and  N_10
REMARK    5  A    between atoms: C_11  and  C_13
REMARK    6  A    between atoms: C_13  and  C_15
REMARK    7  A    between atoms: C_13  and  S_21
REMARK    8  A    between atoms: S_21  and  C_22
REMARK    9  A    between atoms: N_32  and  C_33
REMARK   10  A    between atoms: C_33  and  C_35
REMARK   11  A    between atoms: C_33  and  C_36
REMARK   12  A    between atoms: C_36  and  O_37
REMARK   13  A    between atoms: O_37  and  C_38
REMARK                            x       y       z     vdW  Elec       q    Type
REMARK                         _______ _______ _______ _____ _____    ______ ____
ROOT
ATOM      1  C   UNL     1       2.021  -4.469  -0.945  0.00  0.00    +0.170 C 
ENDROOT
BRANCH   1   2
ATOM      2  C   UNL     1       2.470  -3.612  -2.101  0.00  0.00    -0.025 A 
ATOM      3  C   UNL     1       2.002  -3.870  -3.376  0.00  0.00    +0.005 A 
ATOM      4  C   UNL     1       2.411  -3.082  -4.435  0.00  0.00    +0.000 A 
ATOM      5  C   UNL     1       3.295  -2.041  -4.220  0.00  0.00    +0.000 A 
ATOM      6  C   UNL     1       3.767  -1.786  -2.946  0.00  0.00    +0.000 A 
ATOM      7  C   UNL     1       3.355  -2.572  -1.887  0.00  0.00    +0.005 A 
ENDBRANCH   1   2
BRANCH   1   9
ATOM      8  N   UNL     1       3.647  -6.331  -0.870  0.00  0.00    -0.281 N 
ATOM      9  C   UNL     1       2.413  -5.902  -1.200  0.00  0.00    +0.235 C 
ATOM     10  O   UNL     1       1.618  -6.668  -1.701  0.00  0.00    -0.274 OA
ATOM     11  H   UNL     1       4.266  -5.733  -0.422  0.00  0.00    +0.155 HD
BRANCH   8  17
ATOM     12  C   UNL     1       5.381  -7.939  -1.392  0.00  0.00    +0.142 A 
ATOM     13  C   UNL     1       5.761  -9.237  -1.692  0.00  0.00    +0.047 A 
ATOM     14  C   UNL     1       4.808 -10.234  -1.775  0.00  0.00    +0.004 A 
ATOM     15  C   UNL     1       3.474  -9.941  -1.559  0.00  0.00    +0.002 A 
ATOM     16  C   UNL     1       3.087  -8.650  -1.254  0.00  0.00    +0.027 A 
ATOM     17  C   UNL     1       4.037  -7.642  -1.174  0.00  0.00    +0.076 A 
BRANCH  12  18
ATOM     18  O   UNL     1       6.317  -6.956  -1.309  0.00  0.00    -0.490 OA
BRANCH  18  20
ATOM     19  C   UNL     1       8.577  -6.104  -1.408  0.00  0.00    +0.048 C 
ATOM     20  C   UNL     1       7.676  -7.333  -1.544  0.00  0.00    +0.226 C 
ENDBRANCH  18  20
ENDBRANCH  12  18
ENDBRANCH   8  17
ENDBRANCH   1   9
BRANCH   1  21
ATOM     21  S   UNL     1       0.222  -4.357  -0.775  0.00  0.00    -0.070 S 
BRANCH  21  22
ATOM     22  C   UNL     1       0.061  -2.656  -0.345  0.00  0.00    +0.173 A 
ATOM     23  N   UNL     1       1.147  -1.929  -0.254  0.00  0.00    -0.223 NA
ATOM     24  C   UNL     1       1.097  -0.622   0.071  0.00  0.00    +0.079 A 
ATOM     25  C   UNL     1       2.256   0.153   0.170  0.00  0.00    +0.028 A 
ATOM     26  C   UNL     1       2.159   1.475   0.502  0.00  0.00    +0.002 A 
ATOM     27  C   UNL     1       0.924   2.063   0.745  0.00  0.00    +0.001 A 
ATOM     28  C   UNL     1      -0.227   1.331   0.656  0.00  0.00    +0.015 A 
ATOM     29  C   UNL     1      -0.158  -0.020   0.319  0.00  0.00    +0.065 A 
ATOM     30  C   UNL     1      -1.361  -0.856   0.209  0.00  0.00    +0.263 A 
ATOM     31  O   UNL     1      -2.470  -0.395   0.410  0.00  0.00    -0.267 OA
ATOM     32  N   UNL     1      -1.191  -2.157  -0.123  0.00  0.00    -0.282 N 
BRANCH  32  33
ATOM     33  C   UNL     1      -2.357  -3.035  -0.245  0.00  0.00    +0.115 C 
ATOM     34  C   UNL     1      -3.210  -2.929   1.020  0.00  0.00    +0.033 C 
BRANCH  33  35
ATOM     35  C   UNL     1      -3.188  -2.613  -1.458  0.00  0.00    +0.184 C 
BRANCH  35  36
ATOM     36  O   UNL     1      -3.763  -1.327  -1.218  0.00  0.00    -0.381 OA
ATOM     37  C   UNL     1      -4.563  -0.837  -2.296  0.00  0.00    +0.194 C 
ENDBRANCH  35  36
ENDBRANCH  33  35
ENDBRANCH  32  33
ENDBRANCH  21  22
ENDBRANCH   1  21
TORSDOF 10
