REMARK  Name = ZINC35646257
REMARK  14 active torsions:
REMARK  status: ('A' for Active; 'I' for Inactive)
REMARK    1  A    between atoms: C_1  and  C_2
REMARK    2  A    between atoms: C_2  and  O_3
REMARK    3  A    between atoms: O_3  and  C_4
REMARK    4  A    between atoms: C_4  and  C_6
REMARK    5  A    between atoms: C_7  and  C_24
REMARK    6  A    between atoms: N_8  and  C_23
REMARK    7  A    between atoms: C_12  and  C_14
REMARK    8  A    between atoms: C_17  and  C_20
REMARK    9  A    between atoms: C_20  and  C_21
REMARK   10  A    between atoms: C_20  and  C_22
REMARK   11  A    between atoms: C_24  and  N_25
REMARK   12  A    between atoms: C_32  and  C_34
REMARK   13  A    between atoms: C_34  and  C_35
REMARK   14  A    between atoms: C_34  and  C_36
REMARK                            x       y       z     vdW  Elec       q    Type
REMARK                         _______ _______ _______ _____ _____    ______ ____
ROOT
ATOM      1  C   UNL     1      -2.187  -2.731  -4.226  0.00  0.00    +0.080 C 
ATOM      2  C   UNL     1      -1.151  -3.424  -3.706  0.00  0.00    +0.041 C 
ATOM      3  N   UNL     1       0.109  -3.296  -4.217  0.00  0.00    -0.260 N 
ATOM      4  C   UNL     1       0.415  -2.495  -5.246  0.00  0.00    +0.307 C 
ATOM      5  O   UNL     1       1.567  -2.448  -5.631  0.00  0.00    -0.252 OA
ATOM      6  N   UNL     1      -0.512  -1.741  -5.869  0.00  0.00    -0.288 N 
ATOM      7  C   UNL     1      -1.905  -1.812  -5.397  0.00  0.00    +0.144 C 
ATOM      8  C   UNL     1       1.186  -4.077  -3.605  0.00  0.00    +0.139 C 
ATOM      9  H   UNL     1      -0.268  -1.168  -6.612  0.00  0.00    +0.151 HD
ENDROOT
BRANCH   7  10
ATOM     10  C   UNL     1      -2.331  -0.420  -5.008  0.00  0.00    -0.022 A 
ATOM     11  C   UNL     1      -1.504   0.361  -4.223  0.00  0.00    +0.006 A 
ATOM     12  C   UNL     1      -1.894   1.639  -3.866  0.00  0.00    +0.004 A 
ATOM     13  C   UNL     1      -3.111   2.135  -4.295  0.00  0.00    -0.045 A 
ATOM     14  C   UNL     1      -3.937   1.354  -5.082  0.00  0.00    +0.004 A 
ATOM     15  C   UNL     1      -3.545   0.078  -5.442  0.00  0.00    +0.006 A 
BRANCH  13  16
ATOM     16  C   UNL     1      -3.537   3.527  -3.906  0.00  0.00    +0.013 C 
ATOM     17  C   UNL     1      -3.749   4.367  -5.167  0.00  0.00    +0.012 C 
ATOM     18  C   UNL     1      -4.844   3.457  -3.114  0.00  0.00    +0.012 C 
ENDBRANCH  13  16
ENDBRANCH   7  10
BRANCH   1  19
ATOM     19  C   UNL     1      -3.493  -2.863  -3.698  0.00  0.00    +0.339 C 
ATOM     20  O   UNL     1      -3.717  -3.684  -2.828  0.00  0.00    -0.245 OA
BRANCH  19  21
ATOM     21  O   UNL     1      -4.490  -2.079  -4.159  0.00  0.00    -0.462 OA
BRANCH  21  23
ATOM     22  C   UNL     1      -6.775  -1.297  -4.225  0.00  0.00    +0.048 C 
ATOM     23  C   UNL     1      -5.783  -2.267  -3.581  0.00  0.00    +0.229 C 
ENDBRANCH  21  23
ENDBRANCH  19  21
ENDBRANCH   1  19
BRANCH   2  24
ATOM     24  C   UNL     1      -1.388  -4.353  -2.544  0.00  0.00    +0.136 C 
BRANCH  24  25
ATOM     25  N   UNL     1      -1.958  -5.615  -3.034  0.00  0.00    -0.295 NA
ATOM     26  C   UNL     1      -2.525  -6.396  -1.936  0.00  0.00    +0.086 C 
ATOM     27  C   UNL     1      -3.756  -7.123  -2.429  0.00  0.00    +0.034 C 
ATOM     28  C   UNL     1      -3.363  -8.527  -2.922  0.00  0.00    +0.109 C 
ATOM     29  N   UNL     1      -2.086  -8.497  -3.662  0.00  0.00    -0.300 N 
ATOM     30  C   UNL     1      -1.759  -7.451  -4.609  0.00  0.00    +0.123 C 
ATOM     31  C   UNL     1      -1.044  -6.290  -3.877  0.00  0.00    +0.103 C 
ATOM     32  C   UNL     1      -1.191  -9.481  -3.448  0.00  0.00    +0.218 C 
ATOM     33  O   UNL     1      -0.109  -9.446  -3.996  0.00  0.00    -0.275 OA
BRANCH  32  34
ATOM     34  C   UNL     1      -1.533 -10.625  -2.529  0.00  0.00    +0.069 C 
ATOM     35  C   UNL     1      -0.536 -11.766  -2.741  0.00  0.00    +0.017 C 
ATOM     36  C   UNL     1      -1.463 -10.150  -1.076  0.00  0.00    +0.017 C 
ENDBRANCH  32  34
ENDBRANCH  24  25
ENDBRANCH   2  24
TORSDOF 8
