REMARK  Name = ZINC40035477
REMARK  11 active torsions:
REMARK  status: ('A' for Active; 'I' for Inactive)
REMARK    1  A    between atoms: C_1  and  C_2
REMARK    2  A    between atoms: C_2  and  C_3
REMARK    3  A    between atoms: C_3  and  C_39
REMARK    4  A    between atoms: N_15  and  C_31
REMARK    5  A    between atoms: N_18  and  N_19
REMARK    6  A    between atoms: C_20  and  C_21
REMARK    7  A    between atoms: C_24  and  O_27
REMARK    8  A    between atoms: O_27  and  C_28
REMARK    9  A    between atoms: C_28  and  C_29
REMARK   10  A    between atoms: C_34  and  O_37
REMARK   11  A    between atoms: O_37  and  C_38
REMARK                            x       y       z     vdW  Elec       q    Type
REMARK                         _______ _______ _______ _____ _____    ______ ____
ROOT
ATOM      1  C   UNL     1      -2.110  -1.192   0.063  0.00  0.00    +0.004 C 
ATOM      2  C   UNL     1      -2.156  -2.696  -0.194  0.00  0.00    +0.047 C 
ATOM      3  C   UNL     1      -1.417  -3.039  -1.460  0.00  0.00    -0.037 A 
ATOM      4  C   UNL     1      -0.701  -4.214  -1.555  0.00  0.00    +0.004 A 
ATOM      5  C   UNL     1      -0.028  -4.524  -2.723  0.00  0.00    +0.000 A 
ATOM      6  C   UNL     1      -0.068  -3.660  -3.804  0.00  0.00    +0.001 A 
ATOM      7  C   UNL     1      -0.779  -2.480  -3.721  0.00  0.00    +0.010 A 
ATOM      8  C   UNL     1      -1.456  -2.164  -2.547  0.00  0.00    +0.004 A 
ATOM      9  C   UNL     1      -2.219  -0.901  -2.425  0.00  0.00    +0.084 A 
ATOM     10  C   UNL     1      -2.540  -0.432  -1.159  0.00  0.00    +0.050 A 
ATOM     11  C   UNL     1      -3.270   0.758  -1.045  0.00  0.00    +0.264 A 
ATOM     12  O   UNL     1      -3.573   1.201   0.051  0.00  0.00    -0.267 OA
ATOM     13  N   UNL     1      -3.631   1.405  -2.175  0.00  0.00    -0.248 N 
ATOM     14  C   UNL     1      -3.284   0.904  -3.394  0.00  0.00    +0.223 A 
ATOM     15  N   UNL     1      -2.599  -0.216  -3.508  0.00  0.00    -0.214 NA
ATOM     16  N   UNL     1      -3.657   1.579  -4.527  0.00  0.00    -0.206 N 
ATOM     17  C   UNL     1      -3.045  -0.851   1.225  0.00  0.00    +0.016 C 
ATOM     18  H   UNL     1      -4.208   2.375  -4.459  0.00  0.00    +0.177 HD
ENDROOT
BRANCH  13  19
ATOM     19  C   UNL     1      -4.365   2.597  -2.092  0.00  0.00    +0.053 A 
ATOM     20  C   UNL     1      -5.753   2.560  -2.112  0.00  0.00    +0.030 A 
ATOM     21  C   UNL     1      -6.475   3.734  -2.030  0.00  0.00    +0.047 A 
ATOM     22  C   UNL     1      -5.814   4.950  -1.929  0.00  0.00    +0.120 A 
ATOM     23  C   UNL     1      -4.427   4.987  -1.909  0.00  0.00    +0.047 A 
ATOM     24  C   UNL     1      -3.704   3.813  -1.985  0.00  0.00    +0.030 A 
BRANCH  22  25
ATOM     25  O   UNL     1      -6.526   6.106  -1.850  0.00  0.00    -0.495 OA
ATOM     26  C   UNL     1      -5.781   7.321  -1.748  0.00  0.00    +0.277 C 
ENDBRANCH  22  25
ENDBRANCH  13  19
BRANCH   1  28
ATOM     27  C   UNL     1      -0.634   0.715   0.718  0.00  0.00    +0.005 C 
ATOM     28  C   UNL     1      -0.681  -0.787   0.431  0.00  0.00    +0.008 C 
ENDBRANCH   1  28
BRANCH  16  29
ATOM     29  N   UNL     1      -3.244   1.120  -5.785  0.00  0.00    -0.188 NA
ATOM     30  C   UNL     1      -3.597   1.759  -6.858  0.00  0.00    +0.138 C 
BRANCH  30  31
ATOM     31  C   UNL     1      -3.162   1.276  -8.181  0.00  0.00    -0.005 A 
ATOM     32  C   UNL     1      -2.373   0.127  -8.283  0.00  0.00    +0.013 A 
ATOM     33  C   UNL     1      -1.969  -0.322  -9.521  0.00  0.00    +0.046 A 
ATOM     34  C   UNL     1      -2.344   0.368 -10.668  0.00  0.00    +0.121 A 
ATOM     35  C   UNL     1      -3.127   1.511 -10.571  0.00  0.00    +0.046 A 
ATOM     36  C   UNL     1      -3.540   1.963  -9.337  0.00  0.00    +0.013 A 
BRANCH  34  37
ATOM     37  O   UNL     1      -1.942  -0.077 -11.887  0.00  0.00    -0.488 OA
BRANCH  37  38
ATOM     38  C   UNL     1      -2.362   0.679 -13.024  0.00  0.00    +0.256 C 
BRANCH  38  39
ATOM     39  C   UNL     1      -1.826   0.039 -14.279  0.00  0.00    +0.006 C 
ATOM     40  C   UNL     1      -2.606  -0.118 -15.319  0.00  0.00    +0.007 C 
ENDBRANCH  38  39
ENDBRANCH  37  38
ENDBRANCH  34  37
ENDBRANCH  30  31
ENDBRANCH  16  29
TORSDOF 8
