REMARK  Name = ZINC12704358
REMARK  9 active torsions:
REMARK  status: ('A' for Active; 'I' for Inactive)
REMARK    1  A    between atoms: C_3  and  C_6
REMARK    2  A    between atoms: C_6  and  N_7
REMARK    3  A    between atoms: N_7  and  C_8
REMARK    4  A    between atoms: C_8  and  C_10
REMARK    5  A    between atoms: C_8  and  C_15
REMARK    6  A    between atoms: N_17  and  C_18
REMARK    7  A    between atoms: C_23  and  C_25
REMARK    8  A    between atoms: C_25  and  N_26
REMARK    9  A    between atoms: C_28  and  C_31
REMARK                            x       y       z     vdW  Elec       q    Type
REMARK                         _______ _______ _______ _____ _____    ______ ____
ROOT
ATOM      1  N   UNL     1      -1.684  -1.089  -1.365  0.00  0.00    -0.277 N 
ATOM      2  C   UNL     1      -1.281  -2.159  -2.078  0.00  0.00    +0.240 C 
ATOM      3  O   UNL     1      -1.667  -2.308  -3.218  0.00  0.00    -0.273 OA
ENDROOT
BRANCH   1   4
ATOM      4  C   UNL     1      -1.218  -0.908   0.012  0.00  0.00    +0.183 C 
BRANCH   4   7
ATOM      5  C   UNL     1       1.314   1.770   0.034  0.00  0.00    +0.041 A 
ATOM      6  C   UNL     1      -0.032   1.338   0.034  0.00  0.00    +0.046 A 
ATOM      7  C   UNL     1      -0.010  -0.007   0.019  0.00  0.00    +0.122 A 
ATOM      8  O   UNL     1       1.271  -0.410   0.010  0.00  0.00    -0.466 OA
ATOM      9  C   UNL     1       2.078   0.664   0.019  0.00  0.00    +0.195 A 
ENDBRANCH   4   7
ENDBRANCH   1   4
BRANCH   1  10
ATOM     10  C   UNL     1      -2.590  -0.107  -1.966  0.00  0.00    +0.199 C 
BRANCH  10  11
ATOM     11  C   UNL     1      -3.924  -0.754  -2.238  0.00  0.00    +0.019 A 
ATOM     12  C   UNL     1      -5.169  -0.280  -1.991  0.00  0.00    +0.013 A 
ATOM     13  C   UNL     1      -6.261  -1.056  -2.329  0.00  0.00    +0.008 A 
ATOM     14  C   UNL     1      -6.055  -2.268  -2.899  0.00  0.00    +0.045 A 
ATOM     15  S   UNL     1      -4.273  -2.341  -2.978  0.00  0.00    -0.099 S 
ENDBRANCH  10  11
BRANCH  10  16
ATOM     16  C   UNL     1      -2.001   0.394  -3.260  0.00  0.00    +0.239 C 
ATOM     17  O   UNL     1      -0.930  -0.028  -3.642  0.00  0.00    -0.273 OA
ATOM     18  N   UNL     1      -2.664   1.311  -3.992  0.00  0.00    -0.311 N 
ATOM     19  H   UNL     1      -3.521   1.648  -3.686  0.00  0.00    +0.149 HD
BRANCH  18  20
ATOM     20  C   UNL     1      -2.092   1.797  -5.250  0.00  0.00    +0.073 C 
ATOM     21  C   UNL     1      -1.167   3.002  -4.978  0.00  0.00    +0.022 C 
ATOM     22  C   UNL     1      -1.406   3.943  -6.185  0.00  0.00    +0.002 C 
ATOM     23  C   UNL     1      -2.927   3.796  -6.438  0.00  0.00    +0.002 C 
ATOM     24  C   UNL     1      -3.211   2.302  -6.178  0.00  0.00    +0.022 C 
ENDBRANCH  18  20
ENDBRANCH  10  16
ENDBRANCH   1  10
BRANCH   2  25
ATOM     25  C   UNL     1      -0.349  -3.169  -1.460  0.00  0.00    +0.264 C 
BRANCH  25  26
ATOM     26  N   UNL     1      -0.062  -4.227  -2.431  0.00  0.00    -0.154 N 
ATOM     27  N   UNL     1      -0.740  -5.315  -2.570  0.00  0.00    -0.130 NA
ATOM     28  C   UNL     1      -0.185  -6.014  -3.540  0.00  0.00    +0.205 A 
ATOM     29  N   UNL     1       0.865  -5.303  -3.975  0.00  0.00    -0.108 NA
ATOM     30  N   UNL     1       0.909  -4.220  -3.276  0.00  0.00    -0.045 NA
BRANCH  28  31
ATOM     31  C   UNL     1      -0.632  -7.336  -4.048  0.00  0.00    +0.023 A 
ATOM     32  C   UNL     1      -1.745  -7.959  -3.488  0.00  0.00    +0.013 A 
ATOM     33  C   UNL     1      -2.160  -9.185  -3.968  0.00  0.00    +0.021 A 
ATOM     34  C   UNL     1      -1.466  -9.800  -4.995  0.00  0.00    +0.041 A 
ATOM     35  C   UNL     1      -0.356  -9.187  -5.550  0.00  0.00    +0.021 A 
ATOM     36  C   UNL     1       0.064  -7.959  -5.082  0.00  0.00    +0.013 A 
ATOM     37 CL   UNL     1      -1.988 -11.346  -5.588  0.00  0.00    -0.084 Cl
ENDBRANCH  28  31
ENDBRANCH  25  26
ENDBRANCH   2  25
TORSDOF 9
