REMARK  Name = ZINC67262598
REMARK  8 active torsions:
REMARK  status: ('A' for Active; 'I' for Inactive)
REMARK    1  A    between atoms: C_3  and  N_12
REMARK    2  A    between atoms: C_6  and  C_7
REMARK    3  A    between atoms: C_7  and  N_8
REMARK    4  A    between atoms: C_13  and  C_15
REMARK    5  A    between atoms: C_15  and  C_16
REMARK    6  A    between atoms: C_16  and  C_17
REMARK    7  A    between atoms: C_17  and  C_18
REMARK    8  A    between atoms: C_18  and  C_19
REMARK                            x       y       z     vdW  Elec       q    Type
REMARK                         _______ _______ _______ _____ _____    ______ ____
ROOT
ATOM      1  C   UNL     1       1.084  -0.460   0.750  0.00  0.00    +0.007 A 
ATOM      2  C   UNL     1       2.273   0.242   0.738  0.00  0.00    +0.023 A 
ATOM      3  C   UNL     1       2.381   1.409  -0.007  0.00  0.00    +0.033 A 
ATOM      4  C   UNL     1       1.292   1.866  -0.738  0.00  0.00    +0.023 A 
ATOM      5  C   UNL     1       0.105   1.159  -0.722  0.00  0.00    +0.007 A 
ATOM      6  C   UNL     1       0.001  -0.002   0.021  0.00  0.00    -0.030 A 
ENDROOT
BRANCH   3   7
ATOM      7  N   UNL     1       3.584   2.123  -0.021  0.00  0.00    -0.285 N 
ATOM      8  C   UNL     1       4.758   1.467   0.066  0.00  0.00    +0.217 C 
ATOM      9  O   UNL     1       4.777   0.255   0.060  0.00  0.00    -0.275 OA
ATOM     10  H   UNL     1       3.573   3.091  -0.093  0.00  0.00    +0.155 HD
BRANCH   8  11
ATOM     11  C   UNL     1       6.047   2.241   0.171  0.00  0.00    +0.096 C 
BRANCH  11  12
ATOM     12  C   UNL     1       7.222   1.264   0.256  0.00  0.00    +0.009 C 
BRANCH  12  13
ATOM     13  C   UNL     1       8.531   2.049   0.362  0.00  0.00    +0.002 C 
BRANCH  13  14
ATOM     14  C   UNL     1       9.706   1.073   0.448  0.00  0.00    +0.015 C 
BRANCH  14  15
ATOM     15  C   UNL     1      11.015   1.858   0.554  0.00  0.00    +0.058 C 
ATOM     16  C   UNL     1      12.209   0.893   0.726  0.00  0.00    +0.026 C 
ATOM     17  C   UNL     1      13.589   1.562   0.535  0.00  0.00    +0.082 C 
ATOM     18  S   UNL     1      13.432   2.514  -1.042  0.00  0.00    -0.093 S 
ATOM     19  S   UNL     1      11.359   2.755  -1.025  0.00  0.00    -0.090 S 
ENDBRANCH  14  15
ENDBRANCH  13  14
ENDBRANCH  12  13
ENDBRANCH  11  12
ENDBRANCH   8  11
ENDBRANCH   3   7
BRANCH   6  20
ATOM     20  C   UNL     1      -1.295  -0.771   0.036  0.00  0.00    +0.141 C 
BRANCH  20  21
ATOM     21  N   UNL     1      -2.138  -0.285   1.131  0.00  0.00    -0.295 N 
ATOM     22  C   UNL     1      -3.353  -0.830   1.339  0.00  0.00    +0.297 C 
ATOM     23  O   UNL     1      -3.749  -1.725   0.618  0.00  0.00    -0.253 OA
ATOM     24  N   UNL     1      -4.129  -0.383   2.347  0.00  0.00    -0.313 N 
ATOM     25  H   UNL     1      -1.822   0.429   1.707  0.00  0.00    +0.151 HD
ATOM     26  H   UNL     1      -3.812   0.331   2.922  0.00  0.00    +0.146 HD
ATOM     27  H   UNL     1      -5.003  -0.775   2.496  0.00  0.00    +0.146 HD
ENDBRANCH  20  21
ENDBRANCH   6  20
TORSDOF 8
