REMARK  Name = ZINC06574857
REMARK  10 active torsions:
REMARK  status: ('A' for Active; 'I' for Inactive)
REMARK    1  A    between atoms: C_4  and  C_7
REMARK    2  A    between atoms: C_7  and  C_8
REMARK    3  A    between atoms: C_8  and  C_14
REMARK    4  A    between atoms: N_9  and  N_10
REMARK    5  A    between atoms: N_10  and  C_11
REMARK    6  A    between atoms: C_11  and  N_13
REMARK    7  A    between atoms: C_14  and  C_15
REMARK    8  A    between atoms: C_15  and  C_16
REMARK    9  A    between atoms: C_15  and  C_20
REMARK   10  A    between atoms: C_15  and  O_24
REMARK                            x       y       z     vdW  Elec       q    Type
REMARK                         _______ _______ _______ _____ _____    ______ ____
ROOT
ATOM      1  C   UNL     1       4.003  -0.405   1.427  0.00  0.00    +0.044 C 
ATOM      2  N   UNL     1       3.762  -1.610   1.785  0.00  0.00    -0.190 NA
ENDROOT
BRANCH   2   3
ATOM      3  N   UNL     1       4.116  -2.043   3.070  0.00  0.00    -0.219 N 
ATOM      4  H   UNL     1       4.589  -1.445   3.670  0.00  0.00    +0.176 HD
BRANCH   3   5
ATOM      5  C   UNL     1       3.800  -3.290   3.472  0.00  0.00    +0.147 C 
ATOM      6  S   UNL     1       4.232  -3.818   5.042  0.00  0.00    -0.017 S 
BRANCH   5   7
ATOM      7  N   UNL     1       3.143  -4.120   2.638  0.00  0.00    -0.339 N 
ATOM      8  H   UNL     1       2.897  -3.821   1.749  0.00  0.00    +0.144 HD
ATOM      9  H   UNL     1       2.915  -5.018   2.928  0.00  0.00    +0.144 HD
ENDBRANCH   5   7
ENDBRANCH   3   5
ENDBRANCH   2   3
BRANCH   1  10
ATOM     10  C   UNL     1       3.469   0.112   0.116  0.00  0.00    +0.087 C 
BRANCH  10  14
ATOM     11  C   UNL     1       0.579   3.168   0.859  0.00  0.00    +0.000 A 
ATOM     12  C   UNL     1       1.913   3.499   0.713  0.00  0.00    +0.000 A 
ATOM     13  C   UNL     1       2.848   2.510   0.472  0.00  0.00    +0.004 A 
ATOM     14  C   UNL     1       2.449   1.190   0.379  0.00  0.00    -0.042 A 
ATOM     15  C   UNL     1       1.115   0.859   0.526  0.00  0.00    +0.004 A 
ATOM     16  C   UNL     1       0.180   1.848   0.765  0.00  0.00    +0.000 A 
ENDBRANCH  10  14
ENDBRANCH   1  10
BRANCH   1  17
ATOM     17  C   UNL     1       4.820   0.496   2.316  0.00  0.00    +0.106 C 
BRANCH  17  18
ATOM     18  C   UNL     1       6.308   0.267   2.045  0.00  0.00    +0.261 C 
BRANCH  18  19
ATOM     19  C   UNL     1       6.607   0.542   0.570  0.00  0.00    +0.427 C 
ATOM     20  F   UNL     1       6.137   1.814   0.228  0.00  0.00    -0.167 F 
ATOM     21  F   UNL     1       7.988   0.482   0.354  0.00  0.00    -0.167 F 
ATOM     22  F   UNL     1       5.969  -0.419  -0.222  0.00  0.00    -0.167 F 
ENDBRANCH  18  19
BRANCH  18  23
ATOM     23  C   UNL     1       7.137   1.211   2.918  0.00  0.00    +0.427 C 
ATOM     24  F   UNL     1       6.864   0.960   4.267  0.00  0.00    -0.167 F 
ATOM     25  F   UNL     1       8.498   1.001   2.671  0.00  0.00    -0.167 F 
ATOM     26  F   UNL     1       6.807   2.536   2.615  0.00  0.00    -0.167 F 
ENDBRANCH  18  23
BRANCH  18  27
ATOM     27  O   UNL     1       6.645  -1.087   2.355  0.00  0.00    -0.373 OA
ATOM     28  H   UNL     1       6.481  -1.332   3.276  0.00  0.00    +0.211 HD
ENDBRANCH  18  27
ENDBRANCH  17  18
ENDBRANCH   1  17
TORSDOF 10
