REMARK  Name = ZINC66238807
REMARK  12 active torsions:
REMARK  status: ('A' for Active; 'I' for Inactive)
REMARK    1  A    between atoms: C_1  and  C_2
REMARK    2  A    between atoms: C_4  and  O_12
REMARK    3  A    between atoms: C_5  and  C_9
REMARK    4  A    between atoms: C_9  and  C_10
REMARK    5  A    between atoms: C_9  and  C_11
REMARK    6  A    between atoms: O_12  and  C_13
REMARK    7  A    between atoms: C_13  and  C_14
REMARK    8  A    between atoms: C_14  and  C_16
REMARK    9  A    between atoms: C_14  and  O_26
REMARK   10  A    between atoms: C_16  and  S_17
REMARK   11  A    between atoms: S_17  and  C_18
REMARK   12  A    between atoms: C_22  and  N_24
REMARK                            x       y       z     vdW  Elec       q    Type
REMARK                         _______ _______ _______ _____ _____    ______ ____
ROOT
ATOM      1  C   UNL     1       0.017  -2.893  -4.798  0.00  0.00    +0.162 C 
ENDROOT
BRANCH   1   2
ATOM      2  O   UNL     1      -1.194  -3.651  -4.826  0.00  0.00    -0.388 OA
ATOM      3  H   UNL     1      -1.994  -3.111  -4.882  0.00  0.00    +0.210 HD
ENDBRANCH   1   2
BRANCH   1   4
ATOM      4  C   UNL     1       0.011  -1.966  -3.581  0.00  0.00    +0.261 C 
BRANCH   4   5
ATOM      5  O   UNL     1       0.028  -2.749  -2.386  0.00  0.00    -0.489 OA
BRANCH   5   9
ATOM      6  C   UNL     1      -0.018   1.503   0.010  0.00  0.00    +0.045 C 
ATOM      7  C   UNL     1       0.002  -0.004   0.002  0.00  0.00    -0.029 A 
ATOM      8  C   UNL     1       0.006  -0.688  -1.199  0.00  0.00    +0.050 A 
ATOM      9  C   UNL     1       0.025  -2.075  -1.206  0.00  0.00    +0.124 A 
ATOM     10  C   UNL     1       0.040  -2.773  -0.007  0.00  0.00    -0.002 A 
ATOM     11  C   UNL     1       0.036  -2.086   1.192  0.00  0.00    +0.027 A 
ATOM     12  C   UNL     1       0.023  -0.702   1.196  0.00  0.00    +0.044 A 
ATOM     13 CL   UNL     1       0.025   0.160   2.704  0.00  0.00    -0.083 Cl
BRANCH  10  14
ATOM     14  C   UNL     1       0.060  -4.279  -0.012  0.00  0.00    +0.016 C 
ATOM     15  C   UNL     1       1.319  -4.775   0.702  0.00  0.00    +0.012 C 
ATOM     16  C   UNL     1      -1.179  -4.808   0.714  0.00  0.00    +0.012 C 
ENDBRANCH  10  14
ENDBRANCH   5   9
ENDBRANCH   4   5
ENDBRANCH   1   4
BRANCH   1  17
ATOM     17  C   UNL     1       0.125  -2.056  -6.075  0.00  0.00    +0.112 C 
BRANCH  17  18
ATOM     18  S   UNL     1       0.133  -3.155  -7.518  0.00  0.00    -0.083 S 
BRANCH  18  19
ATOM     19  C   UNL     1       0.260  -2.056  -8.890  0.00  0.00    +0.192 A 
ATOM     20  N   UNL     1       0.328  -0.752  -8.667  0.00  0.00    -0.207 NA
ATOM     21  C   UNL     1       0.425   0.108  -9.679  0.00  0.00    +0.122 A 
ATOM     22  C   UNL     1       0.455  -0.380 -10.982  0.00  0.00    +0.086 A 
ATOM     23  C   UNL     1       0.381  -1.756 -11.177  0.00  0.00    +0.122 A 
ATOM     24  N   UNL     1       0.291  -2.556 -10.117  0.00  0.00    -0.207 NA
ATOM     25  N   UNL     1       0.495   1.471  -9.438  0.00  0.00    -0.343 N 
ATOM     26  H   UNL     1       0.473   1.804  -8.527  0.00  0.00    +0.144 HD
ATOM     27  H   UNL     1       0.566   2.092 -10.179  0.00  0.00    +0.144 HD
BRANCH  23  28
ATOM     28  N   UNL     1       0.407  -2.287 -12.457  0.00  0.00    -0.343 N 
ATOM     29  H   UNL     1       0.477  -1.698 -13.225  0.00  0.00    +0.144 HD
ATOM     30  H   UNL     1       0.356  -3.247 -12.585  0.00  0.00    +0.144 HD
ENDBRANCH  23  28
ENDBRANCH  18  19
ENDBRANCH  17  18
ENDBRANCH   1  17
TORSDOF 9
