REMARK  Name = ZINC30734358
REMARK  9 active torsions:
REMARK  status: ('A' for Active; 'I' for Inactive)
REMARK    1  A    between atoms: C_1  and  O_2
REMARK    2  A    between atoms: O_2  and  C_3
REMARK    3  A    between atoms: C_5  and  C_19
REMARK    4  A    between atoms: C_8  and  O_9
REMARK    5  A    between atoms: O_9  and  C_10
REMARK    6  A    between atoms: C_10  and  C_12
REMARK    7  A    between atoms: N_20  and  N_21
REMARK    8  A    between atoms: C_22  and  C_24
REMARK    9  A    between atoms: C_26  and  C_32
REMARK                            x       y       z     vdW  Elec       q    Type
REMARK                         _______ _______ _______ _____ _____    ______ ____
ROOT
ATOM      1  C   UNL     1       7.110   5.075   4.064  0.00  0.00    +0.138 C 
ATOM      2  N   UNL     1       6.838   4.379   3.003  0.00  0.00    -0.188 NA
ENDROOT
BRANCH   1   5
ATOM      3  C   UNL     1       5.332   7.431   6.386  0.00  0.00    +0.163 A 
ATOM      4  C   UNL     1       6.346   6.761   5.727  0.00  0.00    +0.059 A 
ATOM      5  C   UNL     1       6.032   5.793   4.770  0.00  0.00    -0.002 A 
ATOM      6  C   UNL     1       4.695   5.509   4.481  0.00  0.00    +0.013 A 
ATOM      7  C   UNL     1       3.689   6.177   5.146  0.00  0.00    +0.051 A 
ATOM      8  C   UNL     1       4.001   7.139   6.096  0.00  0.00    +0.173 A 
BRANCH   3  10
ATOM      9  C   UNL     1       7.019   8.624   7.563  0.00  0.00    +0.277 C 
ATOM     10  O   UNL     1       5.634   8.375   7.317  0.00  0.00    -0.491 OA
ENDBRANCH   3  10
BRANCH   8  11
ATOM     11  O   UNL     1       3.005   7.798   6.746  0.00  0.00    -0.419 OA
BRANCH  11  12
ATOM     12  C   UNL     1       2.692   9.028   6.296  0.00  0.00    +0.345 C 
ATOM     13  O   UNL     1       3.224   9.463   5.294  0.00  0.00    -0.245 OA
BRANCH  12  14
ATOM     14  C   UNL     1       1.700   9.849   7.021  0.00  0.00    +0.062 A 
ATOM     15  C   UNL     1       1.373  11.125   6.557  0.00  0.00    +0.015 A 
ATOM     16  C   UNL     1       0.447  11.888   7.238  0.00  0.00    +0.004 A 
ATOM     17  C   UNL     1      -0.159  11.392   8.379  0.00  0.00    +0.038 A 
ATOM     18  C   UNL     1       0.161  10.127   8.845  0.00  0.00    +0.124 A 
ATOM     19  C   UNL     1       1.083   9.351   8.169  0.00  0.00    +0.053 A 
ATOM     20  F   UNL     1      -0.435   9.649   9.960  0.00  0.00    -0.205 F 
ENDBRANCH  12  14
ENDBRANCH  11  12
ENDBRANCH   8  11
ENDBRANCH   1   5
BRANCH   2  21
ATOM     21  N   UNL     1       5.677   4.647   2.267  0.00  0.00    -0.206 N 
ATOM     22  C   UNL     1       5.331   3.847   1.239  0.00  0.00    +0.245 C 
ATOM     23  O   UNL     1       6.025   2.895   0.951  0.00  0.00    -0.273 OA
ATOM     24  H   UNL     1       5.048   5.510   2.528  0.00  0.00    +0.177 HD
BRANCH  22  25
ATOM     25  C   UNL     1       4.082   4.136   0.447  0.00  0.00    +0.171 C 
ATOM     26  C   UNL     1       3.897   3.086  -0.674  0.00  0.00    +0.057 C 
ATOM     27  C   UNL     1       4.568   3.787  -1.876  0.00  0.00    +0.113 C 
ATOM     28  N   UNL     1       4.478   5.225  -1.590  0.00  0.00    -0.314 N 
ATOM     29  C   UNL     1       4.211   5.449  -0.292  0.00  0.00    +0.226 C 
ATOM     30  O   UNL     1       4.093   6.545   0.213  0.00  0.00    -0.275 OA
ATOM     31  H   UNL     1       4.624   5.956  -2.399  0.00  0.00    +0.149 HD
BRANCH  26  32
ATOM     32  C   UNL     1       2.435   2.836  -0.943  0.00  0.00    -0.042 A 
ATOM     33  C   UNL     1       1.606   3.887  -1.286  0.00  0.00    +0.004 A 
ATOM     34  C   UNL     1       0.265   3.657  -1.533  0.00  0.00    +0.000 A 
ATOM     35  C   UNL     1      -0.246   2.377  -1.435  0.00  0.00    +0.000 A 
ATOM     36  C   UNL     1       0.583   1.326  -1.090  0.00  0.00    +0.000 A 
ATOM     37  C   UNL     1       1.924   1.556  -0.843  0.00  0.00    +0.004 A 
ENDBRANCH  26  32
ENDBRANCH  22  25
ENDBRANCH   2  21
TORSDOF 8
