REMARK  Name = ZINC09112998
REMARK  8 active torsions:
REMARK  status: ('A' for Active; 'I' for Inactive)
REMARK    1  A    between atoms: C_4  and  C_7
REMARK    2  A    between atoms: C_7  and  N_58
REMARK    3  A    between atoms: C_8  and  C_9
REMARK    4  A    between atoms: C_8  and  N_58
REMARK    5  A    between atoms: C_15  and  C_17
REMARK    6  A    between atoms: C_15  and  C_23
REMARK    7  A    between atoms: C_15  and  N_58
REMARK    8  A    between atoms: N_27  and  C_28
REMARK                            x       y       z     vdW  Elec       q    Type
REMARK                         _______ _______ _______ _____ _____    ______ ____
ROOT
ATOM      1  C   UNL     1       5.019  -1.077  -1.794  0.00  0.00    +0.035 C 
ENDROOT
BRANCH   1   2
ATOM      2  C   UNL     1       6.037  -0.693  -0.750  0.00  0.00    -0.054 A 
ATOM      3  C   UNL     1       6.696   0.519  -0.841  0.00  0.00    +0.002 A 
ATOM      4  C   UNL     1       7.626   0.873   0.119  0.00  0.00    +0.000 A 
ATOM      5  C   UNL     1       7.903   0.011   1.164  0.00  0.00    +0.000 A 
ATOM      6  C   UNL     1       7.247  -1.202   1.252  0.00  0.00    +0.000 A 
ATOM      7  C   UNL     1       6.314  -1.554   0.295  0.00  0.00    +0.002 A 
ENDBRANCH   1   2
BRANCH   1   8
ATOM      8  C   UNL     1       5.726  -1.635  -3.002  0.00  0.00    +0.148 A 
ATOM      9  N   UNL     1       6.583  -1.003  -3.760  0.00  0.00    -0.114 NA
ATOM     10  N   UNL     1       7.003  -1.766  -4.704  0.00  0.00    -0.023 NA
ATOM     11  N   UNL     1       6.441  -2.924  -4.623  0.00  0.00    -0.039 NA
ATOM     12  N   UNL     1       5.586  -2.880  -3.507  0.00  0.00    -0.198 N 
BRANCH  12  13
ATOM     13  C   UNL     1       4.765  -3.909  -3.023  0.00  0.00    +0.069 A 
ATOM     14  C   UNL     1       4.734  -4.192  -1.664  0.00  0.00    +0.029 A 
ATOM     15  C   UNL     1       3.921  -5.202  -1.189  0.00  0.00    +0.022 A 
ATOM     16  C   UNL     1       3.145  -5.939  -2.067  0.00  0.00    +0.041 A 
ATOM     17  C   UNL     1       3.178  -5.661  -3.423  0.00  0.00    +0.022 A 
ATOM     18  C   UNL     1       3.986  -4.649  -3.902  0.00  0.00    +0.029 A 
ATOM     19 CL   UNL     1       2.130  -7.213  -1.468  0.00  0.00    -0.084 Cl
ENDBRANCH  12  13
ENDBRANCH   1   8
BRANCH   1  20
ATOM     20  N   UNL     1       4.264   0.129  -2.193  0.00  0.00    +0.394 N 
ATOM     21  H   UNL     1       4.923   0.835  -2.542  0.00  0.00    -0.079 HD
BRANCH  20  22
ATOM     22  C   UNL     1       3.542   0.682  -1.028  0.00  0.00    -0.041 C 
BRANCH  22  26
ATOM     23  C   UNL     1       1.169  -2.342   0.835  0.00  0.00    +0.000 A 
ATOM     24  C   UNL     1       0.672  -1.644  -0.251  0.00  0.00    +0.000 A 
ATOM     25  C   UNL     1       1.440  -0.666  -0.853  0.00  0.00    +0.002 A 
ATOM     26  C   UNL     1       2.705  -0.385  -0.371  0.00  0.00    -0.064 A 
ATOM     27  C   UNL     1       3.201  -1.082   0.715  0.00  0.00    +0.002 A 
ATOM     28  C   UNL     1       2.433  -2.060   1.318  0.00  0.00    +0.000 A 
ENDBRANCH  22  26
ENDBRANCH  20  22
BRANCH  20  29
ATOM     29  C   UNL     1       3.307  -0.207  -3.268  0.00  0.00    -0.041 C 
BRANCH  29  30
ATOM     30  C   UNL     1       2.859   1.069  -3.933  0.00  0.00    -0.064 A 
ATOM     31  C   UNL     1       1.749   1.742  -3.459  0.00  0.00    +0.002 A 
ATOM     32  C   UNL     1       1.341   2.916  -4.066  0.00  0.00    +0.000 A 
ATOM     33  C   UNL     1       2.037   3.409  -5.153  0.00  0.00    +0.000 A 
ATOM     34  C   UNL     1       3.143   2.732  -5.631  0.00  0.00    +0.000 A 
ATOM     35  C   UNL     1       3.554   1.562  -5.021  0.00  0.00    +0.002 A 
ENDBRANCH  29  30
ENDBRANCH  20  29
ENDBRANCH   1  20
TORSDOF 8
