REMARK  Name = ZINC64623126
REMARK  8 active torsions:
REMARK  status: ('A' for Active; 'I' for Inactive)
REMARK    1  A    between atoms: C_1  and  O_2
REMARK    2  A    between atoms: O_2  and  C_3
REMARK    3  A    between atoms: C_6  and  C_9
REMARK    4  A    between atoms: N_27  and  C_28
REMARK    5  A    between atoms: C_31  and  O_36
REMARK    6  A    between atoms: C_33  and  O_34
REMARK    7  A    between atoms: O_34  and  C_35
REMARK    8  A    between atoms: O_36  and  C_37
REMARK                            x       y       z     vdW  Elec       q    Type
REMARK                         _______ _______ _______ _____ _____    ______ ____
ROOT
ATOM      1  C   UNL     1       1.710  -2.381   3.933  0.00  0.00    +0.134 C 
ATOM      2  C   UNL     1       3.184  -2.475   3.524  0.00  0.00    +0.131 C 
ATOM      3  C   UNL     1       3.354  -3.812   2.814  0.00  0.00    -0.035 C 
ATOM      4  C   UNL     1       3.860  -3.540   1.617  0.00  0.00    +0.001 A 
ATOM      5  C   UNL     1       4.300  -4.415   0.518  0.00  0.00    +0.030 A 
ATOM      6  C   UNL     1       4.768  -3.789  -0.596  0.00  0.00    +0.042 A 
ATOM      7  C   UNL     1       4.840  -2.397  -0.723  0.00  0.00    +0.022 A 
ATOM      8  C   UNL     1       4.461  -1.519   0.238  0.00  0.00    +0.027 A 
ATOM      9  C   UNL     1       3.957  -2.057   1.458  0.00  0.00    +0.043 A 
ATOM     10  N   UNL     1       3.547  -1.441   2.553  0.00  0.00    -0.375 N 
ATOM     11 CL   UNL     1       5.302  -4.767  -1.927  0.00  0.00    -0.084 Cl
ATOM     12  C   UNL     1       2.915  -5.118   3.430  0.00  0.00    +0.052 C 
ATOM     13  C   UNL     1       1.461  -4.921   3.897  0.00  0.00    +0.114 C 
ATOM     14  N   UNL     1       1.345  -3.639   4.602  0.00  0.00    -0.276 N 
ATOM     15  C   UNL     1       0.902  -3.614   5.875  0.00  0.00    +0.307 C 
ATOM     16  O   UNL     1       0.715  -2.550   6.433  0.00  0.00    -0.252 OA
ATOM     17  N   UNL     1       0.666  -4.768   6.529  0.00  0.00    -0.266 N 
ATOM     18  H   UNL     1       0.877  -5.616   6.108  0.00  0.00    +0.156 HD
ATOM     19  H   UNL     1       3.488  -0.483   2.696  0.00  0.00    +0.160 HD
ENDROOT
BRANCH   1  23
ATOM     20  C   UNL     1      -0.722  -1.831   0.462  0.00  0.00    +0.120 A 
ATOM     21  C   UNL     1       0.075  -2.961   0.580  0.00  0.00    +0.046 A 
ATOM     22  C   UNL     1       0.861  -3.136   1.703  0.00  0.00    +0.009 A 
ATOM     23  C   UNL     1       0.853  -2.187   2.709  0.00  0.00    -0.024 A 
ATOM     24  C   UNL     1       0.059  -1.061   2.594  0.00  0.00    +0.009 A 
ATOM     25  C   UNL     1      -0.724  -0.878   1.470  0.00  0.00    +0.046 A 
BRANCH  20  27
ATOM     26  C   UNL     1      -1.443  -2.679  -1.639  0.00  0.00    +0.277 C 
ATOM     27  O   UNL     1      -1.495  -1.657  -0.642  0.00  0.00    -0.495 OA
ENDBRANCH  20  27
ENDBRANCH   1  23
BRANCH  17  28
ATOM     28  C   UNL     1       0.115  -4.743   7.820  0.00  0.00    +0.077 A 
ATOM     29  C   UNL     1       0.335  -3.652   8.647  0.00  0.00    +0.030 A 
ATOM     30  C   UNL     1      -0.207  -3.627   9.918  0.00  0.00    +0.047 A 
ATOM     31  C   UNL     1      -0.972  -4.693  10.369  0.00  0.00    +0.124 A 
ATOM     32  C   UNL     1      -1.195  -5.786   9.546  0.00  0.00    +0.093 A 
ATOM     33  C   UNL     1      -0.658  -5.811   8.269  0.00  0.00    +0.145 A 
BRANCH  33  34
ATOM     34  O   UNL     1      -0.880  -6.879   7.457  0.00  0.00    -0.493 OA
ATOM     35  C   UNL     1      -1.682  -7.939   7.984  0.00  0.00    +0.277 C 
ENDBRANCH  33  34
BRANCH  31  36
ATOM     36  O   UNL     1      -1.504  -4.666  11.620  0.00  0.00    -0.495 OA
ATOM     37  C   UNL     1      -1.234  -3.509  12.415  0.00  0.00    +0.277 C 
ENDBRANCH  31  36
ENDBRANCH  17  28
TORSDOF 5
