REMARK  Name = ZINC46387407
REMARK  10 active torsions:
REMARK  status: ('A' for Active; 'I' for Inactive)
REMARK    1  A    between atoms: C_1  and  C_2
REMARK    2  A    between atoms: C_3  and  C_15
REMARK    3  A    between atoms: C_4  and  C_14
REMARK    4  A    between atoms: C_8  and  C_11
REMARK    5  A    between atoms: C_15  and  C_16
REMARK    6  A    between atoms: C_16  and  C_17
REMARK    7  A    between atoms: N_19  and  C_20
REMARK    8  A    between atoms: C_20  and  C_21
REMARK    9  A    between atoms: N_27  and  C_28
REMARK   10  A    between atoms: N_27  and  C_29
REMARK                            x       y       z     vdW  Elec       q    Type
REMARK                         _______ _______ _______ _____ _____    ______ ____
ROOT
ATOM      1  C   UNL     1      -2.521   0.014   0.015  0.00  0.00    +0.048 C 
ENDROOT
BRANCH   1   4
ATOM      2  C   UNL     1      -0.018   1.503   0.010  0.00  0.00    +0.066 C 
ATOM      3  C   UNL     1       0.002  -0.004   0.002  0.00  0.00    +0.045 A 
ATOM      4  C   UNL     1      -1.204  -0.719   0.004  0.00  0.00    -0.006 A 
ATOM      5  C   UNL     1      -1.176  -2.075  -0.004  0.00  0.00    +0.028 A 
ATOM      6  N   UNL     1       0.031  -2.713  -0.014  0.00  0.00    -0.287 N 
ATOM      7  C   UNL     1       0.385  -4.029  -0.022  0.00  0.00    +0.206 A 
ATOM      8  N   UNL     1       1.682  -4.134  -0.029  0.00  0.00    -0.229 NA
ATOM      9  C   UNL     1       2.239  -2.905  -0.025  0.00  0.00    +0.169 A 
ATOM     10  C   UNL     1       1.190  -1.977  -0.015  0.00  0.00    +0.170 A 
ATOM     11  N   UNL     1       1.151  -0.643  -0.012  0.00  0.00    -0.232 NA
ATOM     12  C   UNL     1      -2.459  -2.865  -0.002  0.00  0.00    +0.064 C 
BRANCH   9  13
ATOM     13  C   UNL     1       3.670  -2.600  -0.030  0.00  0.00    +0.264 C 
ATOM     14  O   UNL     1       4.045  -1.441  -0.025  0.00  0.00    -0.269 OA
ATOM     15  N   UNL     1       4.573  -3.600  -0.040  0.00  0.00    -0.324 N 
ATOM     16  H   UNL     1       4.274  -4.523  -0.044  0.00  0.00    +0.145 HD
ATOM     17  H   UNL     1       5.521  -3.398  -0.043  0.00  0.00    +0.145 HD
ENDBRANCH   9  13
ENDBRANCH   1   4
BRANCH   1  18
ATOM     18  C   UNL     1      -2.898   0.363   1.456  0.00  0.00    +0.100 C 
BRANCH  18  19
ATOM     19  C   UNL     1      -4.215   1.095   1.467  0.00  0.00    +0.214 C 
ATOM     20  O   UNL     1      -4.795   1.316   0.425  0.00  0.00    -0.276 OA
ATOM     21  N   UNL     1      -4.748   1.505   2.635  0.00  0.00    -0.311 N 
ATOM     22  H   UNL     1      -4.285   1.328   3.469  0.00  0.00    +0.149 HD
BRANCH  21  23
ATOM     23  C   UNL     1      -6.029   2.217   2.646  0.00  0.00    +0.141 C 
BRANCH  23  24
ATOM     24  C   UNL     1      -6.400   2.561   4.066  0.00  0.00    -0.014 A 
ATOM     25  C   UNL     1      -7.148   1.674   4.829  0.00  0.00    +0.010 A 
ATOM     26  C   UNL     1      -7.468   2.028   6.128  0.00  0.00    +0.042 A 
ATOM     27  C   UNL     1      -7.032   3.253   6.622  0.00  0.00    +0.098 A 
ATOM     28  N   UNL     1      -6.320   4.071   5.862  0.00  0.00    -0.349 N 
ATOM     29  C   UNL     1      -5.996   3.757   4.622  0.00  0.00    +0.089 A 
ATOM     30  N   UNL     1      -7.346   3.622   7.925  0.00  0.00    -0.323 N 
ATOM     31  C   UNL     1      -8.133   2.721   8.771  0.00  0.00    +0.130 C 
ATOM     32  C   UNL     1      -6.890   4.910   8.452  0.00  0.00    +0.130 C 
ATOM     33  H   UNL     1      -6.027   4.921   6.227  0.00  0.00    +0.167 HD
ENDBRANCH  23  24
ENDBRANCH  21  23
ENDBRANCH  18  19
ENDBRANCH   1  18
TORSDOF 6
