REMARK  Name = ZINC28832005
REMARK  7 active torsions:
REMARK  status: ('A' for Active; 'I' for Inactive)
REMARK    1  A    between atoms: C_1  and  C_2
REMARK    2  A    between atoms: C_6  and  C_34
REMARK    3  A    between atoms: C_7  and  N_8
REMARK    4  A    between atoms: C_18  and  S_19
REMARK    5  A    between atoms: S_19  and  C_20
REMARK    6  A    between atoms: C_20  and  C_21
REMARK    7  A    between atoms: C_21  and  C_23
REMARK                            x       y       z     vdW  Elec       q    Type
REMARK                         _______ _______ _______ _____ _____    ______ ____
ROOT
ATOM      1  N   UNL     1       0.037  -2.767  -0.014  0.00  0.00    -0.255 N 
ATOM      2  C   UNL     1       1.239  -2.146  -0.021  0.00  0.00    +0.267 A 
ATOM      3  O   UNL     1       2.277  -2.781  -0.035  0.00  0.00    -0.267 OA
ATOM      4  C   UNL     1       1.245  -0.677  -0.013  0.00  0.00    +0.065 A 
ATOM      5  C   UNL     1       2.432   0.055  -0.020  0.00  0.00    +0.015 A 
ATOM      6  C   UNL     1       2.381   1.421  -0.011  0.00  0.00    +0.001 A 
ATOM      7  C   UNL     1       1.161   2.086   0.002  0.00  0.00    +0.002 A 
ATOM      8  C   UNL     1      -0.017   1.394   0.010  0.00  0.00    +0.028 A 
ATOM      9  C   UNL     1       0.002  -0.004   0.002  0.00  0.00    +0.079 A 
ATOM     10  N   UNL     1      -1.141  -0.729   0.009  0.00  0.00    -0.223 NA
ATOM     11  C   UNL     1      -1.121  -2.039   0.001  0.00  0.00    +0.177 A 
ENDROOT
BRANCH   1  18
ATOM     12  C   UNL     1       0.016  -4.126   2.487  0.00  0.00    +0.046 C 
ATOM     13  C   UNL     1      -0.035  -4.869   1.177  0.00  0.00    -0.026 A 
ATOM     14  C   UNL     1      -0.099  -6.248   1.166  0.00  0.00    +0.005 A 
ATOM     15  C   UNL     1      -0.139  -6.931  -0.036  0.00  0.00    +0.001 A 
ATOM     16  C   UNL     1      -0.121  -6.235  -1.231  0.00  0.00    +0.005 A 
ATOM     17  C   UNL     1      -0.063  -4.855  -1.227  0.00  0.00    -0.026 A 
ATOM     18  C   UNL     1      -0.022  -4.167  -0.021  0.00  0.00    +0.058 A 
ATOM     19  C   UNL     1      -0.043  -4.097  -2.529  0.00  0.00    +0.046 C 
ENDBRANCH   1  18
BRANCH  11  20
ATOM     20  S   UNL     1      -2.656  -2.903   0.010  0.00  0.00    -0.079 S 
BRANCH  20  21
ATOM     21  C   UNL     1      -3.804  -1.504   0.028  0.00  0.00    +0.157 C 
BRANCH  21  22
ATOM     22  C   UNL     1      -5.221  -2.016   0.038  0.00  0.00    +0.173 C 
ATOM     23  O   UNL     1      -5.434  -3.210   0.033  0.00  0.00    -0.291 OA
BRANCH  22  24
ATOM     24  C   UNL     1      -6.344  -1.070   0.053  0.00  0.00    +0.020 A 
ATOM     25  C   UNL     1      -6.100   0.309   0.065  0.00  0.00    +0.015 A 
ATOM     26  C   UNL     1      -7.154   1.196   0.074  0.00  0.00    +0.048 A 
ATOM     27  C   UNL     1      -8.460   0.727   0.083  0.00  0.00    +0.142 A 
ATOM     28  C   UNL     1      -8.711  -0.648   0.077  0.00  0.00    +0.076 A 
ATOM     29  C   UNL     1      -7.662  -1.544   0.062  0.00  0.00    +0.038 A 
ATOM     30  N   UNL     1     -10.039  -1.102   0.087  0.00  0.00    -0.280 N 
ATOM     31  C   UNL     1     -11.029  -0.234  -0.216  0.00  0.00    +0.255 C 
ATOM     32  O   UNL     1     -12.186  -0.595  -0.184  0.00  0.00    -0.272 OA
ATOM     33  C   UNL     1     -10.689   1.186  -0.592  0.00  0.00    +0.325 C 
ATOM     34  O   UNL     1      -9.504   1.595   0.096  0.00  0.00    -0.481 OA
ATOM     35  H   UNL     1     -10.260  -2.149   0.339  0.00  0.00    +0.155 HD
ENDBRANCH  22  24
ENDBRANCH  21  22
ENDBRANCH  20  21
ENDBRANCH  11  20
TORSDOF 5
