REMARK  Name = ZINC40687340
REMARK  3 active torsions:
REMARK  status: ('A' for Active; 'I' for Inactive)
REMARK    1  A    between atoms: C_10  and  N_11
REMARK    2  A    between atoms: C_13  and  N_27
REMARK    3  A    between atoms: C_14  and  N_18
REMARK                            x       y       z     vdW  Elec       q    Type
REMARK                         _______ _______ _______ _____ _____    ______ ____
ROOT
ATOM      1  N   UNL     1       4.871   0.097  -0.054  0.00  0.00    -0.299 N 
ATOM      2  C   UNL     1       6.083  -0.578   0.040  0.00  0.00    +0.126 A 
ATOM      3  C   UNL     1       7.282   0.130   0.146  0.00  0.00    +0.104 A 
ATOM      4  C   UNL     1       8.470  -0.597   0.238  0.00  0.00    +0.151 A 
ATOM      5  N   UNL     1       8.415  -1.927   0.221  0.00  0.00    -0.220 NA
ATOM      6  C   UNL     1       7.262  -2.556   0.120  0.00  0.00    +0.200 A 
ATOM      7  N   UNL     1       6.118  -1.908   0.037  0.00  0.00    -0.333 N 
ATOM      8  H   UNL     1       4.859   1.063  -0.142  0.00  0.00    +0.154 HD
ATOM      9  H   UNL     1       5.289  -2.408  -0.032  0.00  0.00    +0.168 HD
ENDROOT
BRANCH   1  19
ATOM     10  C   UNL     1       2.421  -2.577   3.455  0.00  0.00    +0.001 A 
ATOM     11  C   UNL     1       3.623  -1.871   3.445  0.00  0.00    +0.001 A 
ATOM     12  C   UNL     1       4.047  -1.226   2.324  0.00  0.00    +0.010 A 
ATOM     13  C   UNL     1       3.265  -1.271   1.159  0.00  0.00    +0.003 A 
ATOM     14  C   UNL     1       2.043  -1.988   1.168  0.00  0.00    -0.016 A 
ATOM     15  C   UNL     1       1.637  -2.641   2.344  0.00  0.00    +0.008 A 
ATOM     16  C   UNL     1       1.259  -2.034   0.002  0.00  0.00    +0.008 A 
ATOM     17  C   UNL     1       1.677  -1.391  -1.124  0.00  0.00    +0.002 A 
ATOM     18  C   UNL     1       2.875  -0.684  -1.145  0.00  0.00    +0.024 A 
ATOM     19  C   UNL     1       3.673  -0.615  -0.022  0.00  0.00    +0.040 A 
ENDBRANCH   1  19
BRANCH   4  20
ATOM     20  N   UNL     1       9.692   0.058   0.344  0.00  0.00    -0.283 N 
ATOM     21  C   UNL     1      10.286   0.529   1.598  0.00  0.00    +0.117 C 
ATOM     22  C   UNL     1      11.620   1.177   1.194  0.00  0.00    +0.056 C 
ATOM     23  C   UNL     1      11.680   1.018  -0.309  0.00  0.00    -0.025 A 
ATOM     24  C   UNL     1      10.535   0.359  -0.728  0.00  0.00    +0.038 A 
ATOM     25  C   UNL     1      10.367   0.091  -2.088  0.00  0.00    +0.024 A 
ATOM     26  C   UNL     1      11.330   0.476  -2.997  0.00  0.00    +0.002 A 
ATOM     27  C   UNL     1      12.470   1.129  -2.567  0.00  0.00    +0.000 A 
ATOM     28  C   UNL     1      12.640   1.406  -1.223  0.00  0.00    +0.005 A 
ENDBRANCH   4  20
BRANCH   3  29
ATOM     29  N   UNL     1       7.292   1.534   0.158  0.00  0.00    -0.353 N 
ATOM     30  H   UNL     1       6.456   2.025   0.169  0.00  0.00    +0.143 HD
ATOM     31  H   UNL     1       8.136   2.013   0.157  0.00  0.00    +0.143 HD
ENDBRANCH   3  29
TORSDOF 3
