REMARK  Name = ZINC44780459
REMARK  7 active torsions:
REMARK  status: ('A' for Active; 'I' for Inactive)
REMARK    1  A    between atoms: C_1  and  C_2
REMARK    2  A    between atoms: C_2  and  C_3
REMARK    3  A    between atoms: C_3  and  C_5
REMARK    4  A    between atoms: C_3  and  N_10
REMARK    5  A    between atoms: C_11  and  C_13
REMARK    6  A    between atoms: C_13  and  C_20
REMARK    7  A    between atoms: C_20  and  N_22
REMARK                            x       y       z     vdW  Elec       q    Type
REMARK                         _______ _______ _______ _____ _____    ______ ____
ROOT
ATOM      1  N   UNL     1       1.521   1.684  -2.529  0.00  0.00    -0.307 N 
ATOM      2  C   UNL     1       2.423   1.175  -1.665  0.00  0.00    +0.226 C 
ATOM      3  O   UNL     1       2.084   0.331  -0.862  0.00  0.00    -0.275 OA
ATOM      4  H   UNL     1       1.772   2.411  -3.120  0.00  0.00    +0.149 HD
ENDROOT
BRANCH   2   5
ATOM      5  C   UNL     1       3.851   1.655  -1.697  0.00  0.00    +0.091 C 
ATOM      6  C   UNL     1       4.482   1.452  -0.347  0.00  0.00    +0.023 C 
ATOM      7  C   UNL     1       3.446   1.438   0.793  0.00  0.00    +0.001 C 
ATOM      8  C   UNL     1       2.360   2.518   0.626  0.00  0.00    +0.000 C 
ATOM      9  C   UNL     1       2.923   3.835   0.164  0.00  0.00    +0.000 C 
ATOM     10  C   UNL     1       2.819   3.900  -1.373  0.00  0.00    +0.001 C 
ATOM     11  C   UNL     1       3.885   3.160  -2.033  0.00  0.00    +0.023 C 
BRANCH   5  12
ATOM     12  C   UNL     1       4.620   0.886  -2.741  0.00  0.00    +0.061 C 
ATOM     13  S   UNL     1       5.420   1.668  -3.883  0.00  0.00    -0.040 S 
BRANCH  12  14
ATOM     14  N   UNL     1       4.633  -0.462  -2.711  0.00  0.00    -0.355 N 
ATOM     15  H   UNL     1       4.092  -0.938  -2.062  0.00  0.00    +0.143 HD
ATOM     16  H   UNL     1       5.184  -0.955  -3.338  0.00  0.00    +0.143 HD
ENDBRANCH  12  14
ENDBRANCH   5  12
ENDBRANCH   2   5
BRANCH   1  17
ATOM     17  C   UNL     1       0.162   1.138  -2.575  0.00  0.00    +0.110 C 
BRANCH  17  18
ATOM     18  C   UNL     1      -0.826   2.265  -2.734  0.00  0.00    +0.010 A 
ATOM     19  C   UNL     1      -2.035   2.429  -2.144  0.00  0.00    +0.013 A 
ATOM     20  C   UNL     1      -2.779   3.555  -2.443  0.00  0.00    +0.008 A 
ATOM     21  C   UNL     1      -2.277   4.462  -3.318  0.00  0.00    +0.045 A 
ATOM     22  S   UNL     1      -0.704   3.732  -3.744  0.00  0.00    -0.100 S 
ENDBRANCH  17  18
BRANCH  17  24
ATOM     23  C   UNL     1       0.938  -1.037  -3.529  0.00  0.00    +0.006 C 
ATOM     24  C   UNL     1       0.038   0.179  -3.760  0.00  0.00    +0.024 C 
ENDBRANCH  17  24
ENDBRANCH   1  17
TORSDOF 6
