REMARK  Name = ZINC13497985
REMARK  12 active torsions:
REMARK  status: ('A' for Active; 'I' for Inactive)
REMARK    1  A    between atoms: C_1  and  C_2
REMARK    2  A    between atoms: C_2  and  O_3
REMARK    3  A    between atoms: O_3  and  C_4
REMARK    4  A    between atoms: C_9  and  N_10
REMARK    5  A    between atoms: N_10  and  C_11
REMARK    6  A    between atoms: C_11  and  C_13
REMARK    7  A    between atoms: C_11  and  C_21
REMARK    8  A    between atoms: C_17  and  O_19
REMARK    9  A    between atoms: O_19  and  C_20
REMARK   10  A    between atoms: N_23  and  C_24
REMARK   11  A    between atoms: C_29  and  C_31
REMARK   12  A    between atoms: C_31  and  C_32
REMARK                            x       y       z     vdW  Elec       q    Type
REMARK                         _______ _______ _______ _____ _____    ______ ____
ROOT
ATOM      1  N   UNL     1       4.948   0.336  -1.359  0.00  0.00    -0.252 N 
ATOM      2  C   UNL     1       5.831   1.229  -0.871  0.00  0.00    +0.226 C 
ATOM      3  O   UNL     1       6.519   1.879  -1.630  0.00  0.00    -0.275 OA
ENDROOT
BRANCH   1   9
ATOM      4  C   UNL     1       4.506  -1.790  -0.286  0.00  0.00    +0.142 A 
ATOM      5  C   UNL     1       3.752  -2.558   0.586  0.00  0.00    +0.047 A 
ATOM      6  C   UNL     1       2.681  -1.996   1.254  0.00  0.00    +0.004 A 
ATOM      7  C   UNL     1       2.360  -0.665   1.058  0.00  0.00    +0.002 A 
ATOM      8  C   UNL     1       3.109   0.109   0.193  0.00  0.00    +0.027 A 
ATOM      9  C   UNL     1       4.186  -0.448  -0.481  0.00  0.00    +0.079 A 
BRANCH   4  10
ATOM     10  O   UNL     1       5.557  -2.343  -0.948  0.00  0.00    -0.490 OA
BRANCH  10  12
ATOM     11  C   UNL     1       7.035  -4.165  -1.527  0.00  0.00    +0.048 C 
ATOM     12  C   UNL     1       5.826  -3.724  -0.700  0.00  0.00    +0.226 C 
ENDBRANCH  10  12
ENDBRANCH   4  10
ENDBRANCH   1   9
BRANCH   1  13
ATOM     13  C   UNL     1       4.783   0.184  -2.806  0.00  0.00    +0.197 C 
BRANCH  13  14
ATOM     14  C   UNL     1       4.231   1.461  -3.386  0.00  0.00    -0.014 A 
ATOM     15  C   UNL     1       3.118   2.053  -2.817  0.00  0.00    +0.006 A 
ATOM     16  C   UNL     1       2.610   3.225  -3.346  0.00  0.00    +0.004 A 
ATOM     17  C   UNL     1       3.214   3.808  -4.444  0.00  0.00    +0.045 A 
ATOM     18  C   UNL     1       4.330   3.215  -5.016  0.00  0.00    +0.120 A 
ATOM     19  C   UNL     1       4.841   2.042  -4.481  0.00  0.00    +0.051 A 
BRANCH  18  20
ATOM     20  O   UNL     1       4.925   3.786  -6.096  0.00  0.00    -0.495 OA
ATOM     21  C   UNL     1       4.349   4.997  -6.590  0.00  0.00    +0.277 C 
ENDBRANCH  18  20
ENDBRANCH  13  14
BRANCH  13  22
ATOM     22  C   UNL     1       3.829  -0.949  -3.087  0.00  0.00    +0.239 C 
ATOM     23  O   UNL     1       2.901  -1.160  -2.336  0.00  0.00    -0.273 OA
ATOM     24  N   UNL     1       4.007  -1.726  -4.173  0.00  0.00    -0.311 N 
ATOM     25  H   UNL     1       4.749  -1.557  -4.774  0.00  0.00    +0.149 HD
BRANCH  24  26
ATOM     26  C   UNL     1       3.080  -2.827  -4.447  0.00  0.00    +0.073 C 
ATOM     27  C   UNL     1       3.550  -4.106  -3.723  0.00  0.00    +0.022 C 
ATOM     28  C   UNL     1       3.214  -5.248  -4.714  0.00  0.00    +0.002 C 
ATOM     29  C   UNL     1       3.540  -4.614  -6.089  0.00  0.00    +0.002 C 
ATOM     30  C   UNL     1       3.074  -3.150  -5.951  0.00  0.00    +0.022 C 
ENDBRANCH  24  26
ENDBRANCH  13  22
ENDBRANCH   1  13
BRANCH   2  31
ATOM     31  C   UNL     1       5.966   1.420   0.618  0.00  0.00    +0.138 C 
BRANCH  31  32
ATOM     32  C   UNL     1       7.013   2.467   0.897  0.00  0.00    -0.001 A 
ATOM     33  C   UNL     1       6.866   3.808   1.026  0.00  0.00    +0.011 A 
ATOM     34  C   UNL     1       7.982   4.583   1.280  0.00  0.00    +0.008 A 
ATOM     35  C   UNL     1       9.189   3.978   1.404  0.00  0.00    +0.045 A 
ATOM     36  S   UNL     1       8.769   2.262   1.145  0.00  0.00    -0.101 S 
ENDBRANCH  31  32
ENDBRANCH   2  31
TORSDOF 10
