REMARK  Name = ZINC20388758
REMARK  9 active torsions:
REMARK  status: ('A' for Active; 'I' for Inactive)
REMARK    1  A    between atoms: C_5  and  O_7
REMARK    2  A    between atoms: O_7  and  C_8
REMARK    3  A    between atoms: C_8  and  C_9
REMARK    4  A    between atoms: C_9  and  C_11
REMARK    5  A    between atoms: C_9  and  O_35
REMARK    6  A    between atoms: C_11  and  N_12
REMARK    7  A    between atoms: N_15  and  C_18
REMARK    8  A    between atoms: C_18  and  C_19
REMARK    9  A    between atoms: C_19  and  N_20
REMARK                            x       y       z     vdW  Elec       q    Type
REMARK                         _______ _______ _______ _____ _____    ______ ____
ROOT
ATOM      1  N   UNL     1      -0.052   1.619   0.091  0.00  0.00    -0.303 NA
ATOM      2  C   UNL     1       1.204   2.377   0.184  0.00  0.00    +0.066 C 
ATOM      3  C   UNL     1       1.913   2.025   1.494  0.00  0.00    -0.063 C 
ATOM      4  N   UNL     1       2.171   0.578   1.534  0.00  0.00    +0.382 N 
ATOM      5  C   UNL     1       0.915  -0.180   1.440  0.00  0.00    -0.063 C 
ATOM      6  C   UNL     1       0.206   0.173   0.131  0.00  0.00    +0.066 C 
ATOM      7  H   UNL     1       2.790   0.319   0.663  0.00  0.00    -0.082 HD
ENDROOT
BRANCH   1   8
ATOM      8  C   UNL     1      -0.800   1.987  -1.118  0.00  0.00    +0.119 C 
BRANCH   8   9
ATOM      9  C   UNL     1      -2.266   1.580  -0.955  0.00  0.00    +0.166 C 
BRANCH   9  10
ATOM     10  O   UNL     1      -2.841   2.301   0.137  0.00  0.00    -0.387 OA
ATOM     11  H   UNL     1      -2.422   2.196   1.148  0.00  0.00    +0.210 HD
ENDBRANCH   9  10
BRANCH   9  12
ATOM     12  C   UNL     1      -3.031   1.903  -2.240  0.00  0.00    +0.261 C 
BRANCH  12  13
ATOM     13  O   UNL     1      -4.371   1.418  -2.131  0.00  0.00    -0.488 OA
BRANCH  13  18
ATOM     14  C   UNL     1      -5.551   2.490  -5.401  0.00  0.00    +0.004 A 
ATOM     15  C   UNL     1      -6.859   2.046  -5.362  0.00  0.00    +0.002 A 
ATOM     16  C   UNL     1      -7.336   1.391  -4.241  0.00  0.00    +0.023 A 
ATOM     17  C   UNL     1      -6.505   1.179  -3.157  0.00  0.00    +0.083 A 
ATOM     18  C   UNL     1      -5.191   1.625  -3.195  0.00  0.00    +0.139 A 
ATOM     19  C   UNL     1      -4.717   2.286  -4.318  0.00  0.00    +0.047 A 
ATOM     20 CL   UNL     1      -7.104   0.358  -1.750  0.00  0.00    -0.080 Cl
ENDBRANCH  13  18
ENDBRANCH  12  13
ENDBRANCH   9  12
ENDBRANCH   8   9
ENDBRANCH   1   8
BRANCH   4  21
ATOM     21  C   UNL     1       2.919   0.210   2.743  0.00  0.00    -0.059 C 
BRANCH  21  22
ATOM     22  C   UNL     1       4.083   1.184   2.939  0.00  0.00    +0.098 C 
BRANCH  22  23
ATOM     23  N   UNL     1       4.829   0.817   4.145  0.00  0.00    -0.236 N 
ATOM     24  C   UNL     1       4.467   1.361   5.322  0.00  0.00    +0.254 C 
ATOM     25  O   UNL     1       3.535   2.141   5.367  0.00  0.00    -0.270 OA
ATOM     26  C   UNL     1       5.189   1.013   6.555  0.00  0.00    +0.046 A 
ATOM     27  C   UNL     1       4.847   1.546   7.789  0.00  0.00    +0.014 A 
ATOM     28  C   UNL     1       5.563   1.191   8.926  0.00  0.00    +0.001 A 
ATOM     29  C   UNL     1       6.612   0.318   8.867  0.00  0.00    +0.008 A 
ATOM     30  C   UNL     1       6.990  -0.245   7.636  0.00  0.00    -0.016 A 
ATOM     31  C   UNL     1       6.271   0.108   6.475  0.00  0.00    +0.006 A 
ATOM     32  C   UNL     1       6.628  -0.440   5.222  0.00  0.00    +0.046 A 
ATOM     33  C   UNL     1       7.692  -1.327   5.154  0.00  0.00    +0.014 A 
ATOM     34  C   UNL     1       8.393  -1.667   6.305  0.00  0.00    +0.001 A 
ATOM     35  C   UNL     1       8.062  -1.148   7.524  0.00  0.00    +0.008 A 
ATOM     36  C   UNL     1       5.856  -0.048   4.034  0.00  0.00    +0.254 C 
ATOM     37  O   UNL     1       6.145  -0.507   2.946  0.00  0.00    -0.270 OA
ENDBRANCH  22  23
ENDBRANCH  21  22
ENDBRANCH   4  21
TORSDOF 9
