REMARK  Name = ZINC18036744
REMARK  13 active torsions:
REMARK  status: ('A' for Active; 'I' for Inactive)
REMARK    1  A    between atoms: C_1  and  C_2
REMARK    2  A    between atoms: C_2  and  C_3
REMARK    3  A    between atoms: C_2  and  C_4
REMARK    4  A    between atoms: C_2  and  C_5
REMARK    5  A    between atoms: C_7  and  C_16
REMARK    6  A    between atoms: C_9  and  C_12
REMARK    7  A    between atoms: C_10  and  O_11
REMARK    8  A    between atoms: C_12  and  C_13
REMARK    9  A    between atoms: C_12  and  C_14
REMARK   10  A    between atoms: C_12  and  C_15
REMARK   11  A    between atoms: N_24  and  C_27
REMARK   12  A    between atoms: C_27  and  C_28
REMARK   13  A    between atoms: N_35  and  C_36
REMARK                            x       y       z     vdW  Elec       q    Type
REMARK                         _______ _______ _______ _____ _____    ______ ____
ROOT
ATOM      1  C   UNL     1       2.418   0.968  -4.270  0.00  0.00    +0.157 C 
ATOM      2  C   UNL     1       3.950   1.100  -4.114  0.00  0.00    +0.145 C 
ATOM      3  C   UNL     1       4.509   0.138  -5.197  0.00  0.00    +0.249 C 
ATOM      4  C   UNL     1       5.225  -0.920  -4.385  0.00  0.00    +0.254 C 
ATOM      5  O   UNL     1       5.832  -1.863  -4.843  0.00  0.00    -0.272 OA
ATOM      6  N   UNL     1       5.083  -0.651  -3.082  0.00  0.00    -0.235 N 
ATOM      7  C   UNL     1       4.376   0.472  -2.807  0.00  0.00    +0.231 C 
ATOM      8  O   UNL     1       4.121   0.907  -1.704  0.00  0.00    -0.275 OA
ATOM      9  O   UNL     1       3.355  -0.443  -5.832  0.00  0.00    -0.257 OA
ATOM     10  N   UNL     1       2.270   0.468  -5.659  0.00  0.00    -0.244 N 
ENDROOT
BRANCH   1  13
ATOM     11  C   UNL     1       0.707  -0.490  -1.238  0.00  0.00    +0.000 A 
ATOM     12  C   UNL     1       1.217   0.419  -2.145  0.00  0.00    +0.013 A 
ATOM     13  C   UNL     1       1.864  -0.026  -3.283  0.00  0.00    -0.021 A 
ATOM     14  C   UNL     1       2.003  -1.382  -3.516  0.00  0.00    +0.013 A 
ATOM     15  C   UNL     1       1.496  -2.295  -2.612  0.00  0.00    +0.000 A 
ATOM     16  C   UNL     1       0.851  -1.851  -1.467  0.00  0.00    +0.124 A 
BRANCH  11  18
ATOM     17  C   UNL     1      -0.019   1.526   0.010  0.00  0.00    +0.015 C 
ATOM     18  C   UNL     1       0.002  -0.004   0.002  0.00  0.00    -0.009 C 
ATOM     19  C   UNL     1       0.742  -0.511   1.242  0.00  0.00    +0.015 C 
ATOM     20  C   UNL     1      -1.433  -0.534   0.013  0.00  0.00    +0.015 C 
ENDBRANCH  11  18
BRANCH  15  21
ATOM     21  C   UNL     1       1.648  -3.773  -2.867  0.00  0.00    -0.009 C 
ATOM     22  C   UNL     1       2.396  -3.989  -4.184  0.00  0.00    +0.015 C 
ATOM     23  C   UNL     1       2.438  -4.409  -1.722  0.00  0.00    +0.015 C 
ATOM     24  C   UNL     1       0.264  -4.420  -2.953  0.00  0.00    +0.015 C 
ENDBRANCH  15  21
BRANCH  16  25
ATOM     25  O   UNL     1       0.356  -2.747  -0.573  0.00  0.00    -0.506 OA
ATOM     26  H   UNL     1      -0.556  -3.015  -0.749  0.00  0.00    +0.292 HD
ENDBRANCH  16  25
ENDBRANCH   1  13
BRANCH  10  27
ATOM     27  C   UNL     1       1.294   0.820  -6.594  0.00  0.00    +0.065 A 
ATOM     28  C   UNL     1       0.313   1.746  -6.262  0.00  0.00    +0.028 A 
ATOM     29  C   UNL     1      -0.650   2.091  -7.189  0.00  0.00    +0.002 A 
ATOM     30  C   UNL     1      -0.640   1.517  -8.447  0.00  0.00    +0.000 A 
ATOM     31  C   UNL     1       0.335   0.594  -8.781  0.00  0.00    +0.002 A 
ATOM     32  C   UNL     1       1.305   0.248  -7.860  0.00  0.00    +0.028 A 
ENDBRANCH  10  27
BRANCH   6  33
ATOM     33  C   UNL     1       5.652  -1.499  -2.031  0.00  0.00    +0.151 C 
BRANCH  33  34
ATOM     34  C   UNL     1       7.042  -1.022  -1.699  0.00  0.00    -0.030 A 
ATOM     35  C   UNL     1       8.130  -1.530  -2.385  0.00  0.00    +0.005 A 
ATOM     36  C   UNL     1       9.405  -1.093  -2.080  0.00  0.00    +0.000 A 
ATOM     37  C   UNL     1       9.593  -0.147  -1.089  0.00  0.00    +0.000 A 
ATOM     38  C   UNL     1       8.506   0.362  -0.404  0.00  0.00    +0.000 A 
ATOM     39  C   UNL     1       7.230  -0.072  -0.712  0.00  0.00    +0.005 A 
ENDBRANCH  33  34
ENDBRANCH   6  33
TORSDOF 7
