REMARK  Name = ZINC64228070
REMARK  7 active torsions:
REMARK  status: ('A' for Active; 'I' for Inactive)
REMARK    1  A    between atoms: C_8  and  C_12
REMARK    2  A    between atoms: N_14  and  C_15
REMARK    3  A    between atoms: C_15  and  C_17
REMARK    4  A    between atoms: C_15  and  C_27
REMARK    5  A    between atoms: C_17  and  C_18
REMARK    6  A    between atoms: N_29  and  C_30
REMARK    7  A    between atoms: C_30  and  C_31
REMARK                            x       y       z     vdW  Elec       q    Type
REMARK                         _______ _______ _______ _____ _____    ______ ____
ROOT
ATOM      1  C   UNL     1       2.062  -6.524   0.762  0.00  0.00    +0.163 C 
ENDROOT
BRANCH   1   4
ATOM      2  C   UNL     1       2.586  -4.234   0.117  0.00  0.00    +0.231 C 
ATOM      3  O   UNL     1       3.121  -4.668  -0.881  0.00  0.00    -0.274 OA
ATOM      4  N   UNL     1       2.025  -5.080   1.004  0.00  0.00    -0.302 N 
ATOM      5  H   UNL     1       1.597  -4.733   1.802  0.00  0.00    +0.150 HD
BRANCH   2  13
ATOM      6  C   UNL     1      -0.017   1.376   0.010  0.00  0.00    +0.000 A 
ATOM      7  C   UNL     1       1.173   2.080   0.002  0.00  0.00    +0.000 A 
ATOM      8  C   UNL     1       2.374   1.400  -0.011  0.00  0.00    +0.005 A 
ATOM      9  C   UNL     1       2.395   0.013  -0.018  0.00  0.00    -0.030 A 
ATOM     10  C   UNL     1       1.208  -0.688  -0.014  0.00  0.00    -0.041 A 
ATOM     11  C   UNL     1       0.002  -0.004   0.002  0.00  0.00    +0.004 A 
ATOM     12  C   UNL     1       1.180  -2.195  -0.033  0.00  0.00    +0.063 C 
ATOM     13  C   UNL     1       2.548  -2.748   0.366  0.00  0.00    +0.145 C 
ATOM     14  N   UNL     1       3.577  -2.081  -0.447  0.00  0.00    -0.301 NA
ATOM     15  C   UNL     1       3.730  -0.684  -0.026  0.00  0.00    +0.117 C 
ATOM     16  H   UNL     1       4.456  -2.573  -0.393  0.00  0.00    +0.123 HD
ENDBRANCH   2  13
ENDBRANCH   1   4
BRANCH   1  17
ATOM     17  C   UNL     1       3.365  -7.086   1.270  0.00  0.00    +0.234 C 
ATOM     18  O   UNL     1       4.183  -6.352   1.782  0.00  0.00    -0.274 OA
ATOM     19  N   UNL     1       3.622  -8.404   1.153  0.00  0.00    -0.307 N 
ATOM     20  H   UNL     1       2.968  -8.991   0.743  0.00  0.00    +0.149 HD
BRANCH  19  21
ATOM     21  C   UNL     1       4.889  -8.950   1.646  0.00  0.00    +0.178 C 
BRANCH  21  22
ATOM     22  C   UNL     1       4.927 -10.435   1.397  0.00  0.00    +0.122 A 
ATOM     23  C   UNL     1       5.406 -11.036   0.294  0.00  0.00    +0.046 A 
ATOM     24  C   UNL     1       5.246 -12.428   0.483  0.00  0.00    +0.041 A 
ATOM     25  C   UNL     1       4.678 -12.595   1.691  0.00  0.00    +0.195 A 
ATOM     26  O   UNL     1       4.492 -11.384   2.243  0.00  0.00    -0.466 OA
ENDBRANCH  21  22
ENDBRANCH  19  21
ENDBRANCH   1  17
BRANCH   1  27
ATOM     27  C   UNL     1       0.898  -7.194   1.496  0.00  0.00    +0.065 C 
BRANCH  27  28
ATOM     28  C   UNL     1      -0.406  -6.724   0.905  0.00  0.00    -0.039 C 
ATOM     29  C   UNL     1      -1.134  -7.342  -0.053  0.00  0.00    -0.001 A 
ATOM     30  C   UNL     1      -0.938  -8.588  -0.802  0.00  0.00    +0.010 A 
ATOM     31  C   UNL     1      -1.861  -8.954  -1.720  0.00  0.00    +0.001 A 
ATOM     32  C   UNL     1      -2.998  -8.175  -1.973  0.00  0.00    +0.002 A 
ATOM     33  C   UNL     1      -3.248  -7.018  -1.324  0.00  0.00    +0.026 A 
ATOM     34  C   UNL     1      -2.344  -6.537  -0.338  0.00  0.00    +0.043 A 
ATOM     35  N   UNL     1      -2.362  -5.463   0.414  0.00  0.00    -0.380 N 
ATOM     36  C   UNL     1      -1.168  -5.469   1.267  0.00  0.00    +0.144 C 
ATOM     37  H   UNL     1      -3.052  -4.782   0.411  0.00  0.00    +0.160 HD
ENDBRANCH  27  28
ENDBRANCH   1  27
TORSDOF 7
