REMARK  Name = ZINC00648472
REMARK  17 active torsions:
REMARK  status: ('A' for Active; 'I' for Inactive)
REMARK    1  A    between atoms: C_1  and  C_2
REMARK    2  A    between atoms: C_3  and  C_35
REMARK    3  A    between atoms: C_4  and  C_25
REMARK    4  A    between atoms: C_10  and  C_15
REMARK    5  A    between atoms: C_18  and  O_23
REMARK    6  A    between atoms: C_19  and  O_21
REMARK    7  A    between atoms: O_21  and  C_22
REMARK    8  A    between atoms: O_23  and  C_24
REMARK    9  A    between atoms: C_30  and  O_31
REMARK   10  A    between atoms: O_31  and  C_32
REMARK   11  A    between atoms: C_32  and  C_33
REMARK   12  A    between atoms: C_32  and  C_34
REMARK   13  A    between atoms: C_35  and  O_37
REMARK   14  A    between atoms: O_37  and  C_38
REMARK   15  A    between atoms: C_38  and  C_39
REMARK   16  A    between atoms: C_39  and  C_40
REMARK   17  A    between atoms: C_39  and  C_41
REMARK                            x       y       z     vdW  Elec       q    Type
REMARK                         _______ _______ _______ _____ _____    ______ ____
ROOT
ATOM      1  C   UNL     1      -2.741   7.335  -1.956  0.00  0.00    +0.061 C 
ATOM      2  C   UNL     1      -1.943   6.681  -0.858  0.00  0.00    +0.016 C 
ATOM      3  C   UNL     1      -0.720   6.192  -1.122  0.00  0.00    +0.065 C 
ATOM      4  C   UNL     1       0.101   5.527  -0.055  0.00  0.00    +0.096 C 
ATOM      5  C   UNL     1      -0.414   5.877   1.319  0.00  0.00    +0.024 C 
ATOM      6  C   UNL     1      -1.657   6.377   1.483  0.00  0.00    +0.016 C 
ATOM      7  N   UNL     1      -2.469   6.589   0.401  0.00  0.00    -0.321 N 
ATOM      8  C   UNL     1      -2.183   6.716   2.855  0.00  0.00    +0.059 C 
ATOM      9  C   UNL     1      -1.025   7.148   3.757  0.00  0.00    +0.032 C 
ATOM     10  C   UNL     1      -0.004   6.008   3.817  0.00  0.00    +0.088 C 
ATOM     11  C   UNL     1       0.436   5.670   2.419  0.00  0.00    +0.162 C 
ATOM     12  O   UNL     1       1.546   5.209   2.238  0.00  0.00    -0.292 OA
ATOM     13  H   UNL     1      -3.554   6.686   0.552  0.00  0.00    +0.152 HD
ENDROOT
BRANCH   9  14
ATOM     14  C   UNL     1      -1.543   7.438   5.142  0.00  0.00    -0.040 A 
ATOM     15  C   UNL     1      -2.174   6.443   5.865  0.00  0.00    +0.008 A 
ATOM     16  C   UNL     1      -2.651   6.704   7.136  0.00  0.00    +0.049 A 
ATOM     17  C   UNL     1      -2.497   7.965   7.688  0.00  0.00    +0.161 A 
ATOM     18  C   UNL     1      -1.861   8.967   6.961  0.00  0.00    +0.162 A 
ATOM     19  C   UNL     1      -1.381   8.697   5.689  0.00  0.00    +0.053 A 
BRANCH  18  20
ATOM     20  O   UNL     1      -1.708  10.207   7.498  0.00  0.00    -0.491 OA
ATOM     21  C   UNL     1      -1.047  11.186   6.694  0.00  0.00    +0.277 C 
ENDBRANCH  18  20
BRANCH  17  22
ATOM     22  O   UNL     1      -2.965   8.224   8.938  0.00  0.00    -0.491 OA
ATOM     23  C   UNL     1      -3.607   7.148   9.626  0.00  0.00    +0.277 C 
ENDBRANCH  17  22
ENDBRANCH   9  14
BRANCH   4  24
ATOM     24  C   UNL     1       0.038   4.033  -0.242  0.00  0.00    +0.006 A 
ATOM     25  C   UNL     1      -1.182   3.385  -0.229  0.00  0.00    +0.008 A 
ATOM     26  C   UNL     1      -1.240   2.015  -0.404  0.00  0.00    +0.001 A 
ATOM     27  C   UNL     1      -0.077   1.289  -0.583  0.00  0.00    +0.004 A 
ATOM     28  C   UNL     1       1.145   1.932  -0.597  0.00  0.00    +0.046 A 
ATOM     29  C   UNL     1       1.206   3.308  -0.426  0.00  0.00    +0.125 A 
BRANCH  29  30
ATOM     30  O   UNL     1       2.407   3.943  -0.439  0.00  0.00    -0.489 OA
BRANCH  30  31
ATOM     31  C   UNL     1       3.575   3.122  -0.516  0.00  0.00    +0.167 C 
ATOM     32  C   UNL     1       3.892   2.823  -1.983  0.00  0.00    +0.051 C 
ATOM     33  C   UNL     1       4.756   3.855   0.122  0.00  0.00    +0.051 C 
ENDBRANCH  30  31
ENDBRANCH  29  30
ENDBRANCH   4  24
BRANCH   3  34
ATOM     34  C   UNL     1      -0.195   6.305  -2.431  0.00  0.00    +0.338 C 
ATOM     35  O   UNL     1       0.852   5.755  -2.716  0.00  0.00    -0.245 OA
BRANCH  34  36
ATOM     36  O   UNL     1      -0.855   7.024  -3.362  0.00  0.00    -0.461 OA
BRANCH  36  37
ATOM     37  C   UNL     1      -0.218   7.182  -4.632  0.00  0.00    +0.235 C 
BRANCH  37  38
ATOM     38  C   UNL     1      -1.050   8.123  -5.506  0.00  0.00    +0.020 C 
ATOM     39  C   UNL     1      -1.059   9.521  -4.886  0.00  0.00    +0.010 C 
ATOM     40  C   UNL     1      -0.438   8.191  -6.907  0.00  0.00    +0.010 C 
ENDBRANCH  37  38
ENDBRANCH  36  37
ENDBRANCH  34  36
ENDBRANCH   3  34
TORSDOF 10
