REMARK  Name = ZINC36579578
REMARK  15 active torsions:
REMARK  status: ('A' for Active; 'I' for Inactive)
REMARK    1  A    between atoms: C_1  and  C_2
REMARK    2  A    between atoms: C_2  and  C_3
REMARK    3  A    between atoms: C_2  and  C_4
REMARK    4  A    between atoms: C_2  and  N_5
REMARK    5  A    between atoms: C_6  and  C_8
REMARK    6  A    between atoms: C_8  and  C_10
REMARK    7  A    between atoms: C_8  and  N_17
REMARK    8  A    between atoms: N_17  and  C_36
REMARK    9  A    between atoms: C_18  and  C_20
REMARK   10  A    between atoms: C_26  and  O_28
REMARK   11  A    between atoms: O_28  and  C_29
REMARK   12  A    between atoms: C_29  and  C_30
REMARK   13  A    between atoms: C_36  and  C_37
REMARK   14  A    between atoms: C_36  and  C_38
REMARK   15  A    between atoms: C_36  and  C_39
REMARK                            x       y       z     vdW  Elec       q    Type
REMARK                         _______ _______ _______ _____ _____    ______ ____
ROOT
ATOM      1  N   UNL     1       4.290  -0.773  -2.832  0.00  0.00    -0.279 N 
ATOM      2  C   UNL     1       5.004  -1.898  -3.038  0.00  0.00    +0.238 C 
ATOM      3  O   UNL     1       4.647  -2.943  -2.537  0.00  0.00    -0.274 OA
ENDROOT
BRANCH   2   4
ATOM      4  C   UNL     1       6.246  -1.857  -3.891  0.00  0.00    +0.165 C 
ATOM      5  C   UNL     1       7.499  -1.999  -3.001  0.00  0.00    +0.033 C 
ATOM      6  C   UNL     1       8.435  -2.890  -3.859  0.00  0.00    +0.021 C 
ATOM      7  C   UNL     1       7.420  -3.836  -4.547  0.00  0.00    +0.112 C 
ATOM      8  N   UNL     1       6.245  -2.987  -4.831  0.00  0.00    -0.256 N 
ATOM      9  C   UNL     1       5.324  -3.210  -5.790  0.00  0.00    +0.404 C 
ATOM     10  O   UNL     1       4.394  -2.440  -5.930  0.00  0.00    -0.226 OA
BRANCH   9  11
ATOM     11  O   UNL     1       5.433  -4.286  -6.591  0.00  0.00    -0.445 OA
BRANCH  11  12
ATOM     12  C   UNL     1       4.422  -4.460  -7.586  0.00  0.00    +0.269 C 
BRANCH  12  13
ATOM     13  C   UNL     1       4.709  -5.707  -8.381  0.00  0.00    -0.010 A 
ATOM     14  C   UNL     1       5.494  -5.638  -9.516  0.00  0.00    +0.007 A 
ATOM     15  C   UNL     1       5.758  -6.782 -10.246  0.00  0.00    +0.000 A 
ATOM     16  C   UNL     1       5.236  -7.996  -9.840  0.00  0.00    +0.000 A 
ATOM     17  C   UNL     1       4.451  -8.066  -8.705  0.00  0.00    +0.000 A 
ATOM     18  C   UNL     1       4.191  -6.922  -7.973  0.00  0.00    +0.007 A 
ENDBRANCH  12  13
ENDBRANCH  11  12
ENDBRANCH   9  11
ENDBRANCH   2   4
BRANCH   1  19
ATOM     19  C   UNL     1       4.766   0.505  -3.368  0.00  0.00    +0.030 C 
ATOM     20  C   UNL     1       3.969   1.649  -2.739  0.00  0.00    +0.031 C 
ATOM     21  C   UNL     1       6.250   0.675  -3.037  0.00  0.00    +0.031 C 
ATOM     22  C   UNL     1       4.576   0.524  -4.886  0.00  0.00    +0.031 C 
ENDBRANCH   1  19
BRANCH   1  23
ATOM     23  C   UNL     1       3.038  -0.829  -2.074  0.00  0.00    +0.193 C 
BRANCH  23  24
ATOM     24  C   UNL     1       3.329  -1.245  -0.655  0.00  0.00    -0.018 A 
ATOM     25  C   UNL     1       4.574  -1.747  -0.323  0.00  0.00    +0.007 A 
ATOM     26  C   UNL     1       4.841  -2.128   0.978  0.00  0.00    +0.020 A 
ATOM     27  C   UNL     1       3.862  -2.008   1.949  0.00  0.00    +0.041 A 
ATOM     28  C   UNL     1       2.616  -1.506   1.616  0.00  0.00    +0.020 A 
ATOM     29  C   UNL     1       2.352  -1.119   0.316  0.00  0.00    +0.007 A 
ATOM     30 CL   UNL     1       4.197  -2.488   3.583  0.00  0.00    -0.084 Cl
ENDBRANCH  23  24
BRANCH  23  32
ATOM     31  N   UNL     1       0.911  -2.090  -2.150  0.00  0.00    -0.309 N 
ATOM     32  C   UNL     1       2.109  -1.830  -2.710  0.00  0.00    +0.239 C 
ATOM     33  O   UNL     1       2.439  -2.403  -3.727  0.00  0.00    -0.273 OA
ATOM     34  H   UNL     1       0.647  -1.632  -1.336  0.00  0.00    +0.149 HD
BRANCH  31  36
ATOM     35  C   UNL     1       0.693  -4.430  -2.826  0.00  0.00    +0.031 C 
ATOM     36  C   UNL     1       0.008  -3.063  -2.769  0.00  0.00    +0.026 C 
ATOM     37  C   UNL     1      -0.339  -2.607  -4.187  0.00  0.00    +0.031 C 
ATOM     38  C   UNL     1      -1.273  -3.169  -1.939  0.00  0.00    +0.031 C 
ENDBRANCH  31  36
ENDBRANCH  23  32
ENDBRANCH   1  23
TORSDOF 9
