REMARK  Name = ZINC36307310
REMARK  15 active torsions:
REMARK  status: ('A' for Active; 'I' for Inactive)
REMARK    1  A    between atoms: C_1  and  C_2
REMARK    2  A    between atoms: C_7  and  O_8
REMARK    3  A    between atoms: O_8  and  C_9
REMARK    4  A    between atoms: C_9  and  C_10
REMARK    5  A    between atoms: C_10  and  C_12
REMARK    6  A    between atoms: C_10  and  O_39
REMARK    7  A    between atoms: C_12  and  N_13
REMARK    8  A    between atoms: N_13  and  C_14
REMARK    9  A    between atoms: N_13  and  C_35
REMARK   10  A    between atoms: C_14  and  C_15
REMARK   11  A    between atoms: C_16  and  C_29
REMARK   12  A    between atoms: N_18  and  C_28
REMARK   13  A    between atoms: C_19  and  O_20
REMARK   14  A    between atoms: O_20  and  C_21
REMARK   15  A    between atoms: C_35  and  C_36
REMARK                            x       y       z     vdW  Elec       q    Type
REMARK                         _______ _______ _______ _____ _____    ______ ____
ROOT
ATOM      1  C   UNL     1       0.061  -1.105   8.018  0.00  0.00    -0.035 C 
ENDROOT
BRANCH   1   2
ATOM      2  C   UNL     1       1.426  -1.744   8.058  0.00  0.00    +0.025 A 
ATOM      3  C   UNL     1       2.591  -1.177   8.608  0.00  0.00    +0.098 A 
ATOM      4  N   UNL     1       3.576  -2.035   8.453  0.00  0.00    -0.168 NA
ATOM      5  N   UNL     1       3.073  -3.169   7.803  0.00  0.00    -0.235 N 
ATOM      6  C   UNL     1       1.749  -2.971   7.575  0.00  0.00    +0.221 A 
ATOM      7  C   UNL     1       3.839  -4.364   7.438  0.00  0.00    +0.176 C 
BRANCH   3   8
ATOM      8  C   UNL     1       2.691   0.157   9.251  0.00  0.00    +0.002 A 
ATOM      9  C   UNL     1       2.061   1.259   8.676  0.00  0.00    +0.010 A 
ATOM     10  C   UNL     1       2.157   2.497   9.279  0.00  0.00    +0.001 A 
ATOM     11  C   UNL     1       2.877   2.645  10.450  0.00  0.00    +0.000 A 
ATOM     12  C   UNL     1       3.506   1.555  11.024  0.00  0.00    +0.001 A 
ATOM     13  C   UNL     1       3.411   0.311  10.434  0.00  0.00    +0.010 A 
ENDBRANCH   3   8
BRANCH   6  14
ATOM     14  O   UNL     1       0.901  -3.842   6.971  0.00  0.00    -0.438 OA
BRANCH  14  15
ATOM     15  C   UNL     1       0.242  -4.737   7.752  0.00  0.00    +0.133 A 
ATOM     16  C   UNL     1       0.362  -4.674   9.133  0.00  0.00    +0.046 A 
ATOM     17  C   UNL     1      -0.308  -5.585   9.927  0.00  0.00    +0.006 A 
ATOM     18  C   UNL     1      -1.098  -6.561   9.346  0.00  0.00    +0.038 A 
ATOM     19  C   UNL     1      -1.219  -6.627   7.968  0.00  0.00    +0.127 A 
ATOM     20  C   UNL     1      -0.555  -5.712   7.170  0.00  0.00    +0.084 A 
ATOM     21  F   UNL     1      -1.991  -7.581   7.403  0.00  0.00    -0.205 F 
ENDBRANCH  14  15
ENDBRANCH   6  14
ENDBRANCH   1   2
BRANCH   1  22
ATOM     22  N   UNL     1      -0.122  -0.423   6.730  0.00  0.00    +0.384 N 
ATOM     23  H   UNL     1       0.635   0.227   6.582  0.00  0.00    -0.081 HD
BRANCH  22  24
ATOM     24  C   UNL     1      -0.134  -1.416   5.647  0.00  0.00    -0.043 C 
BRANCH  24  25
ATOM     25  C   UNL     1      -0.200  -0.698   4.298  0.00  0.00    +0.135 C 
BRANCH  25  26
ATOM     26  O   UNL     1       0.996   0.060   4.102  0.00  0.00    -0.390 OA
ATOM     27  H   UNL     1       1.804  -0.471   4.104  0.00  0.00    +0.210 HD
ENDBRANCH  25  26
BRANCH  25  28
ATOM     28  C   UNL     1      -0.337  -1.730   3.177  0.00  0.00    +0.258 C 
BRANCH  28  29
ATOM     29  O   UNL     1      -0.515  -1.058   1.929  0.00  0.00    -0.489 OA
BRANCH  29  36
ATOM     30  C   UNL     1      -0.870   0.252  -0.549  0.00  0.00    +0.047 C 
ATOM     31  C   UNL     1      -0.831  -1.249  -0.421  0.00  0.00    -0.009 A 
ATOM     32  C   UNL     1      -0.966  -2.042  -1.545  0.00  0.00    +0.007 A 
ATOM     33  C   UNL     1      -0.931  -3.419  -1.429  0.00  0.00    +0.000 A 
ATOM     34  C   UNL     1      -0.761  -4.006  -0.188  0.00  0.00    +0.004 A 
ATOM     35  C   UNL     1      -0.625  -3.218   0.938  0.00  0.00    +0.046 A 
ATOM     36  C   UNL     1      -0.654  -1.836   0.823  0.00  0.00    +0.124 A 
ENDBRANCH  29  36
ENDBRANCH  28  29
ENDBRANCH  25  28
ENDBRANCH  24  25
ENDBRANCH  22  24
BRANCH  22  37
ATOM     37  C   UNL     1      -1.398   0.306   6.739  0.00  0.00    -0.075 C 
BRANCH  37  38
ATOM     38  C   UNL     1      -1.344   1.415   7.792  0.00  0.00    -0.028 C 
ATOM     39  C   UNL     1      -2.299   1.306   8.982  0.00  0.00    +0.002 C 
ATOM     40  C   UNL     1      -2.549   2.352   7.894  0.00  0.00    +0.002 C 
ENDBRANCH  37  38
ENDBRANCH  22  37
ENDBRANCH   1  22
TORSDOF 13
