REMARK  Name = ZINC62924580
REMARK  3 active torsions:
REMARK  status: ('A' for Active; 'I' for Inactive)
REMARK    1  A    between atoms: C_1  and  C_2
REMARK    2  A    between atoms: C_2  and  C_18
REMARK    3  A    between atoms: C_13  and  C_15
REMARK                            x       y       z     vdW  Elec       q    Type
REMARK                         _______ _______ _______ _____ _____    ______ ____
ROOT
ATOM      1  C   UNL     1      -0.051   1.489  -0.032  0.00  0.00    +0.024 C 
ATOM      2  C   UNL     1      -0.049  -0.039   0.036  0.00  0.00    +0.086 C 
ATOM      3  C   UNL     1       0.685  -0.631  -1.189  0.00  0.00    +0.038 C 
ATOM      4  C   UNL     1       2.110  -0.898  -0.641  0.00  0.00    +0.110 C 
ATOM      5  N   UNL     1       1.859  -1.357   0.745  0.00  0.00    -0.284 N 
ATOM      6  C   UNL     1       0.759  -0.520   1.256  0.00  0.00    +0.127 C 
ATOM      7  C   UNL     1       2.505  -2.341   1.403  0.00  0.00    +0.305 C 
ATOM      8  O   UNL     1       2.213  -2.594   2.556  0.00  0.00    -0.252 OA
ATOM      9  N   UNL     1       3.474  -3.043   0.783  0.00  0.00    -0.274 N 
ATOM     10  C   UNL     1       4.029  -2.749  -0.550  0.00  0.00    +0.110 C 
ATOM     11  C   UNL     1       5.443  -3.382  -0.539  0.00  0.00    +0.021 C 
ATOM     12  C   UNL     1       5.200  -4.674   0.283  0.00  0.00    +0.033 C 
ATOM     13  C   UNL     1       4.157  -4.225   1.328  0.00  0.00    +0.163 C 
ENDROOT
BRANCH  13  14
ATOM     14  C   UNL     1       3.160  -5.331   1.561  0.00  0.00    +0.231 C 
ATOM     15  O   UNL     1       1.989  -5.157   1.300  0.00  0.00    -0.274 OA
ATOM     16  N   UNL     1       3.570  -6.514   2.060  0.00  0.00    -0.328 N 
ATOM     17  H   UNL     1       4.507  -6.654   2.269  0.00  0.00    +0.145 HD
ATOM     18  H   UNL     1       2.928  -7.226   2.210  0.00  0.00    +0.145 HD
ENDBRANCH  13  14
BRANCH   2  19
ATOM     19  C   UNL     1      -1.461  -0.561   0.105  0.00  0.00    +0.363 C 
ATOM     20  O   UNL     1      -2.249  -0.307  -0.790  0.00  0.00    -0.246 OA
ATOM     21  O   UNL     1      -1.816  -1.237   1.056  0.00  0.00    -0.246 OA
ENDBRANCH   2  19
TORSDOF 2
