REMARK  Name = ZINC13064883
REMARK  11 active torsions:
REMARK  status: ('A' for Active; 'I' for Inactive)
REMARK    1  A    between atoms: C_1  and  C_2
REMARK    2  A    between atoms: C_2  and  C_3
REMARK    3  A    between atoms: C_3  and  C_5
REMARK    4  A    between atoms: C_3  and  N_69
REMARK    5  A    between atoms: N_9  and  C_10
REMARK    6  A    between atoms: C_10  and  C_11
REMARK    7  A    between atoms: C_17  and  C_18
REMARK    8  A    between atoms: C_17  and  N_69
REMARK    9  A    between atoms: C_21  and  C_31
REMARK   10  A    between atoms: C_23  and  C_30
REMARK   11  A    between atoms: C_32  and  N_69
REMARK                            x       y       z     vdW  Elec       q    Type
REMARK                         _______ _______ _______ _____ _____    ______ ____
ROOT
ATOM      1  N   UNL     1      -0.137   1.468  -0.057  0.00  0.00    +0.391 N 
ATOM      2  H   UNL     1      -0.334   1.607   0.941  0.00  0.00    -0.080 HD
ENDROOT
BRANCH   1   3
ATOM      3  C   UNL     1      -0.474   0.076  -0.424  0.00  0.00    -0.067 C 
ATOM      4  C   UNL     1      -2.006  -0.087  -0.497  0.00  0.00    -0.015 C 
ATOM      5  C   UNL     1      -2.265  -1.496   0.094  0.00  0.00    -0.002 C 
ATOM      6  C   UNL     1      -1.232  -1.581   1.244  0.00  0.00    -0.002 C 
ATOM      7  C   UNL     1       0.018  -0.873   0.682  0.00  0.00    -0.015 C 
ENDBRANCH   1   3
BRANCH   1   8
ATOM      8  C   UNL     1      -0.958   2.411  -0.845  0.00  0.00    +0.003 C 
BRANCH   8   9
ATOM      9  C   UNL     1      -0.565   2.367  -2.299  0.00  0.00    +0.138 A 
ATOM     10  N   UNL     1       0.648   2.466  -2.785  0.00  0.00    -0.115 NA
ATOM     11  N   UNL     1       0.571   2.381  -4.068  0.00  0.00    -0.023 NA
ATOM     12  N   UNL     1      -0.661   2.238  -4.414  0.00  0.00    -0.044 NA
ATOM     13  N   UNL     1      -1.392   2.225  -3.351  0.00  0.00    -0.226 N 
BRANCH  13  14
ATOM     14  C   UNL     1      -2.849   2.082  -3.300  0.00  0.00    +0.182 C 
BRANCH  14  15
ATOM     15  C   UNL     1      -3.490   3.445  -3.362  0.00  0.00    -0.026 A 
ATOM     16  C   UNL     1      -3.753   4.139  -2.196  0.00  0.00    +0.005 A 
ATOM     17  C   UNL     1      -4.336   5.391  -2.254  0.00  0.00    +0.000 A 
ATOM     18  C   UNL     1      -4.665   5.945  -3.477  0.00  0.00    +0.000 A 
ATOM     19  C   UNL     1      -4.407   5.248  -4.643  0.00  0.00    +0.000 A 
ATOM     20  C   UNL     1      -3.819   3.999  -4.585  0.00  0.00    +0.005 A 
ENDBRANCH  14  15
ENDBRANCH  13  14
ENDBRANCH   8   9
BRANCH   8  22
ATOM     21  C   UNL     1      -1.266   3.904   1.135  0.00  0.00    +0.002 C 
ATOM     22  C   UNL     1      -0.744   3.825  -0.301  0.00  0.00    -0.011 C 
ENDBRANCH   8  22
ENDBRANCH   1   8
BRANCH   1  23
ATOM     23  C   UNL     1       1.299   1.722  -0.303  0.00  0.00    -0.036 C 
BRANCH  23  24
ATOM     24  C   UNL     1       2.094   1.131   0.833  0.00  0.00    +0.001 A 
ATOM     25  C   UNL     1       2.664  -0.091   0.694  0.00  0.00    +0.017 A 
ATOM     26  C   UNL     1       3.435  -0.634   1.815  0.00  0.00    +0.002 A 
ATOM     27  C   UNL     1       4.050  -1.888   1.730  0.00  0.00    -0.041 A 
ATOM     28  C   UNL     1       4.758  -2.368   2.794  0.00  0.00    +0.007 A 
ATOM     29  C   UNL     1       4.871  -1.624   3.961  0.00  0.00    -0.048 A 
ATOM     30  C   UNL     1       4.273  -0.388   4.068  0.00  0.00    +0.029 A 
ATOM     31  C   UNL     1       3.547   0.123   2.996  0.00  0.00    +0.050 A 
ATOM     32  N   UNL     1       2.939   1.357   3.075  0.00  0.00    -0.322 N 
ATOM     33  H   UNL     1       3.018   1.878   3.890  0.00  0.00    +0.169 HD
ATOM     34  C   UNL     1       2.238   1.850   2.039  0.00  0.00    +0.251 A 
ATOM     35  O   UNL     1       1.713   2.945   2.144  0.00  0.00    -0.268 OA
ATOM     36  C   UNL     1       5.657  -2.175   5.123  0.00  0.00    +0.044 C 
ATOM     37  C   UNL     1       3.933  -2.704   0.468  0.00  0.00    +0.044 C 
ENDBRANCH  23  24
ENDBRANCH   1  23
TORSDOF 8
