REMARK  Name = ZINC39710330
REMARK  13 active torsions:
REMARK  status: ('A' for Active; 'I' for Inactive)
REMARK    1  A    between atoms: C_1  and  C_2
REMARK    2  A    between atoms: C_9  and  C_14
REMARK    3  A    between atoms: C_14  and  C_16
REMARK    4  A    between atoms: C_14  and  N_26
REMARK    5  A    between atoms: N_21  and  C_22
REMARK    6  A    between atoms: C_22  and  C_23
REMARK    7  A    between atoms: C_22  and  C_24
REMARK    8  A    between atoms: C_22  and  C_25
REMARK    9  A    between atoms: N_26  and  C_27
REMARK   10  A    between atoms: N_26  and  C_35
REMARK   11  A    between atoms: C_27  and  C_28
REMARK   12  A    between atoms: C_28  and  C_29
REMARK   13  A    between atoms: C_35  and  C_36
REMARK                            x       y       z     vdW  Elec       q    Type
REMARK                         _______ _______ _______ _____ _____    ______ ____
ROOT
ATOM      1  C   UNL     1      -0.962  -4.837   2.756  0.00  0.00    +0.115 C 
ENDROOT
BRANCH   1  10
ATOM      2  C   UNL     1      -0.919   2.289   2.285  0.00  0.00    +0.044 C 
ATOM      3  C   UNL     1      -0.799   0.901   1.710  0.00  0.00    -0.050 A 
ATOM      4  C   UNL     1      -1.010   0.707   0.345  0.00  0.00    +0.005 A 
ATOM      5  C   UNL     1      -0.918  -0.514  -0.245  0.00  0.00    +0.024 A 
ATOM      6  C   UNL     1      -0.600  -1.653   0.517  0.00  0.00    +0.040 A 
ATOM      7  N   UNL     1      -0.512  -2.845  -0.072  0.00  0.00    -0.284 N 
ATOM      8  C   UNL     1      -0.217  -3.955   0.585  0.00  0.00    +0.226 C 
ATOM      9  O   UNL     1      -0.151  -5.016  -0.008  0.00  0.00    -0.275 OA
ATOM     10  C   UNL     1       0.037  -3.901   2.074  0.00  0.00    +0.119 C 
ATOM     11  C   UNL     1      -0.061  -2.546   2.749  0.00  0.00    -0.003 C 
ATOM     12  C   UNL     1      -0.371  -1.477   1.962  0.00  0.00    -0.007 A 
ATOM     13  C   UNL     1      -0.481  -0.133   2.531  0.00  0.00    +0.012 A 
ATOM     14  H   UNL     1      -0.672  -2.902  -1.027  0.00  0.00    +0.155 HD
ENDBRANCH   1  10
BRANCH   1  15
ATOM     15  C   UNL     1      -0.462  -6.279   2.652  0.00  0.00    +0.236 C 
ATOM     16  N   UNL     1       0.941  -6.368   3.081  0.00  0.00    -0.148 NA
ATOM     17  N   UNL     1       1.623  -6.769   2.135  0.00  0.00    -0.069 NA
ATOM     18  N   UNL     1       0.869  -7.007   0.986  0.00  0.00    -0.179 N 
ATOM     19  N   UNL     1      -0.449  -6.721   1.241  0.00  0.00    -0.179 NA
ATOM     20  H   UNL     1       1.221  -7.324   0.139  0.00  0.00    +0.191 HD
BRANCH  19  21
ATOM     21  C   UNL     1      -1.294  -7.908   1.054  0.00  0.00    +0.035 C 
ATOM     22  C   UNL     1      -2.739  -7.569   1.422  0.00  0.00    +0.029 C 
ATOM     23  C   UNL     1      -1.230  -8.353  -0.409  0.00  0.00    +0.029 C 
ATOM     24  C   UNL     1      -0.790  -9.039   1.953  0.00  0.00    +0.029 C 
ENDBRANCH  19  21
ENDBRANCH   1  15
BRANCH   1  25
ATOM     25  N   UNL     1      -1.095  -4.466   4.171  0.00  0.00    -0.290 NA
BRANCH  25  26
ATOM     26  C   UNL     1      -2.210  -5.184   4.801  0.00  0.00    +0.090 C 
BRANCH  26  27
ATOM     27  C   UNL     1      -3.534  -4.666   4.236  0.00  0.00    +0.050 C 
BRANCH  27  28
ATOM     28  C   UNL     1      -4.680  -5.379   4.907  0.00  0.00    -0.046 A 
ATOM     29  C   UNL     1      -5.171  -6.554   4.372  0.00  0.00    +0.003 A 
ATOM     30  C   UNL     1      -6.222  -7.208   4.988  0.00  0.00    +0.000 A 
ATOM     31  C   UNL     1      -6.782  -6.686   6.139  0.00  0.00    +0.000 A 
ATOM     32  C   UNL     1      -6.289  -5.511   6.675  0.00  0.00    +0.000 A 
ATOM     33  C   UNL     1      -5.236  -4.859   6.062  0.00  0.00    +0.003 A 
ENDBRANCH  27  28
ENDBRANCH  26  27
ENDBRANCH  25  26
BRANCH  25  34
ATOM     34  C   UNL     1       0.161  -4.701   4.897  0.00  0.00    +0.127 C 
BRANCH  34  35
ATOM     35  C   UNL     1       0.123  -3.971   6.215  0.00  0.00    +0.004 A 
ATOM     36  C   UNL     1      -0.234  -4.435   7.438  0.00  0.00    +0.012 A 
ATOM     37  C   UNL     1      -0.190  -3.576   8.519  0.00  0.00    +0.008 A 
ATOM     38  C   UNL     1       0.208  -2.295   8.325  0.00  0.00    +0.045 A 
ATOM     39  S   UNL     1       0.544  -2.274   6.572  0.00  0.00    -0.100 S 
ENDBRANCH  34  35
ENDBRANCH  25  34
ENDBRANCH   1  25
TORSDOF 9
