REMARK  Name = ZINC44888470
REMARK  4 active torsions:
REMARK  status: ('A' for Active; 'I' for Inactive)
REMARK    1  A    between atoms: C_1  and  C_2
REMARK    2  A    between atoms: C_2  and  C_4
REMARK    3  A    between atoms: C_2  and  N_9
REMARK    4  A    between atoms: C_10  and  C_12
REMARK                            x       y       z     vdW  Elec       q    Type
REMARK                         _______ _______ _______ _____ _____    ______ ____
ROOT
ATOM      1  N   UNL     1       0.709  -0.493   1.189  0.00  0.00    -0.305 N 
ATOM      2  C   UNL     1       2.053  -0.604   1.174  0.00  0.00    +0.218 C 
ATOM      3  O   UNL     1       2.674  -0.302   0.177  0.00  0.00    -0.275 OA
ATOM      4  H   UNL     1       0.212  -0.734   1.986  0.00  0.00    +0.149 HD
ENDROOT
BRANCH   2   5
ATOM      5  C   UNL     1       2.782  -1.102   2.395  0.00  0.00    +0.092 C 
ATOM      6  C   UNL     1       4.286  -1.131   2.115  0.00  0.00    +0.016 C 
ATOM      7  C   UNL     1       5.024  -1.668   3.343  0.00  0.00    +0.020 C 
ATOM      8  C   UNL     1       4.772  -0.737   4.534  0.00  0.00    +0.109 C 
ATOM      9  N   UNL     1       3.322  -0.589   4.718  0.00  0.00    -0.285 N 
ATOM     10  C   UNL     1       2.503  -0.166   3.575  0.00  0.00    +0.122 C 
ATOM     11  C   UNL     1       2.753  -0.838   5.915  0.00  0.00    +0.300 C 
ATOM     12  O   UNL     1       1.568  -0.624   6.081  0.00  0.00    -0.253 OA
ATOM     13  N   UNL     1       3.498  -1.323   6.927  0.00  0.00    -0.313 N 
ATOM     14  H   UNL     1       4.457  -1.424   6.819  0.00  0.00    +0.146 HD
ATOM     15  H   UNL     1       3.076  -1.571   7.765  0.00  0.00    +0.146 HD
ENDBRANCH   2   5
BRANCH   1  17
ATOM     16  C   UNL     1      -0.020   1.521   0.009  0.00  0.00    +0.036 C 
ATOM     17  C   UNL     1       0.001  -0.009   0.002  0.00  0.00    +0.142 C 
BRANCH  17  18
ATOM     18  C   UNL     1      -1.413  -0.530   0.014  0.00  0.00    +0.196 A 
ATOM     19  N   UNL     1      -2.070  -1.057  -1.010  0.00  0.00    -0.109 NA
ATOM     20  N   UNL     1      -3.247  -1.379  -0.594  0.00  0.00    -0.021 NA
ATOM     21  N   UNL     1      -3.350  -1.072   0.652  0.00  0.00    -0.021 NA
ATOM     22  N   UNL     1      -2.238  -0.555   1.051  0.00  0.00    -0.109 NA
ENDBRANCH  17  18
ENDBRANCH   1  17
TORSDOF 3
