REMARK  Name = ZINC00067459
REMARK  10 active torsions:
REMARK  status: ('A' for Active; 'I' for Inactive)
REMARK    1  A    between atoms: C_1  and  C_2
REMARK    2  A    between atoms: C_6  and  C_24
REMARK    3  A    between atoms: C_7  and  N_8
REMARK    4  A    between atoms: N_8  and  C_9
REMARK    5  A    between atoms: C_9  and  N_11
REMARK    6  A    between atoms: N_11  and  N_12
REMARK    7  A    between atoms: C_13  and  C_15
REMARK    8  A    between atoms: C_15  and  C_16
REMARK    9  A    between atoms: C_16  and  C_17
REMARK   10  A    between atoms: C_20  and  O_23
REMARK                            x       y       z     vdW  Elec       q    Type
REMARK                         _______ _______ _______ _____ _____    ______ ____
ROOT
ATOM      1  N   UNL     1      -1.450  -1.748   1.308  0.00  0.00    -0.246 N 
ATOM      2  H   UNL     1      -2.295  -2.099   1.630  0.00  0.00    +0.172 HD
ENDROOT
BRANCH   1   3
ATOM      3  N   UNL     1      -0.335  -2.590   1.209  0.00  0.00    -0.235 N 
ATOM      4  C   UNL     1      -0.436  -3.887   1.562  0.00  0.00    +0.229 C 
ATOM      5  O   UNL     1      -1.492  -4.325   1.965  0.00  0.00    -0.274 OA
ATOM      6  H   UNL     1       0.510  -2.240   0.886  0.00  0.00    +0.173 HD
BRANCH   4   7
ATOM      7  C   UNL     1       0.764  -4.792   1.455  0.00  0.00    +0.102 C 
BRANCH   7   8
ATOM      8  C   UNL     1       0.383  -6.201   1.915  0.00  0.00    +0.044 C 
BRANCH   8   9
ATOM      9  C   UNL     1       1.582  -7.106   1.808  0.00  0.00    -0.047 A 
ATOM     10  C   UNL     1       1.817  -7.807   0.639  0.00  0.00    +0.007 A 
ATOM     11  C   UNL     1       2.919  -8.633   0.537  0.00  0.00    +0.045 A 
ATOM     12  C   UNL     1       3.785  -8.769   1.613  0.00  0.00    +0.117 A 
ATOM     13  C   UNL     1       3.544  -8.069   2.787  0.00  0.00    +0.045 A 
ATOM     14  C   UNL     1       2.444  -7.240   2.882  0.00  0.00    +0.007 A 
BRANCH  12  15
ATOM     15  O   UNL     1       4.867  -9.585   1.517  0.00  0.00    -0.507 OA
ATOM     16  H   UNL     1       4.698 -10.496   1.792  0.00  0.00    +0.292 HD
ENDBRANCH  12  15
ENDBRANCH   8   9
ENDBRANCH   7   8
ENDBRANCH   4   7
ENDBRANCH   1   3
BRANCH   1  17
ATOM     17  C   UNL     1      -1.349  -0.451   0.954  0.00  0.00    +0.151 C 
ATOM     18  S   UNL     1      -2.712   0.577   1.075  0.00  0.00    -0.017 S 
BRANCH  17  19
ATOM     19  N   UNL     1      -0.175   0.035   0.506  0.00  0.00    -0.295 N 
ATOM     20  H   UNL     1       0.578  -0.561   0.372  0.00  0.00    +0.154 HD
BRANCH  19  27
ATOM     21  C   UNL     1      -1.817   1.167  -1.524  0.00  0.00    +0.045 C 
ATOM     22  C   UNL     1      -0.824   1.994  -0.749  0.00  0.00    -0.029 A 
ATOM     23  C   UNL     1      -0.694   3.344  -1.012  0.00  0.00    +0.005 A 
ATOM     24  C   UNL     1       0.220   4.103  -0.305  0.00  0.00    +0.001 A 
ATOM     25  C   UNL     1       1.004   3.514   0.671  0.00  0.00    +0.005 A 
ATOM     26  C   UNL     1       0.875   2.166   0.942  0.00  0.00    -0.029 A 
ATOM     27  C   UNL     1      -0.043   1.401   0.234  0.00  0.00    +0.038 A 
ATOM     28  C   UNL     1       1.729   1.526   2.006  0.00  0.00    +0.045 C 
ENDBRANCH  19  27
ENDBRANCH  17  19
ENDBRANCH   1  17
TORSDOF 8
