REMARK  Name = ZINC20092355
REMARK  11 active torsions:
REMARK  status: ('A' for Active; 'I' for Inactive)
REMARK    1  A    between atoms: C_1  and  C_2
REMARK    2  A    between atoms: C_2  and  C_3
REMARK    3  A    between atoms: C_3  and  C_4
REMARK    4  A    between atoms: C_4  and  S_5
REMARK    5  A    between atoms: S_5  and  C_6
REMARK    6  A    between atoms: C_11  and  C_21
REMARK    7  A    between atoms: C_24  and  O_29
REMARK    8  A    between atoms: C_25  and  O_27
REMARK    9  A    between atoms: O_27  and  C_28
REMARK   10  A    between atoms: O_29  and  C_30
REMARK   11  A    between atoms: C_30  and  C_31
REMARK                            x       y       z     vdW  Elec       q    Type
REMARK                         _______ _______ _______ _____ _____    ______ ____
ROOT
ATOM      1  C   UNL     1      11.596  -1.415  -1.125  0.00  0.00    +0.210 A 
ATOM      2  N   UNL     1      11.602  -2.359  -0.173  0.00  0.00    -0.187 NA
ATOM      3  C   UNL     1      10.690  -3.254  -0.442  0.00  0.00    +0.219 A 
ATOM      4  N   UNL     1      10.068  -2.891  -1.590  0.00  0.00    -0.220 N 
ATOM      5  N   UNL     1      10.669  -1.706  -2.013  0.00  0.00    -0.141 NA
ATOM      6  C   UNL     1       8.983  -3.656  -2.191  0.00  0.00    +0.176 C 
ATOM      7  C   UNL     1       8.900  -5.026  -1.555  0.00  0.00    +0.041 C 
ATOM      8  C   UNL     1       9.544  -5.324  -0.406  0.00  0.00    +0.020 C 
ATOM      9  N   UNL     1      10.332  -4.404   0.243  0.00  0.00    -0.287 N 
ATOM     10  C   UNL     1       9.427  -6.696   0.215  0.00  0.00    +0.052 C 
ATOM     11  C   UNL     1       9.239  -7.744  -0.883  0.00  0.00    +0.014 C 
ATOM     12  C   UNL     1       7.979  -7.389  -1.679  0.00  0.00    +0.080 C 
ATOM     13  C   UNL     1       8.117  -5.991  -2.214  0.00  0.00    +0.163 C 
ATOM     14  O   UNL     1       7.540  -5.688  -3.240  0.00  0.00    -0.292 OA
ATOM     15  H   UNL     1      10.678  -4.559   1.275  0.00  0.00    +0.155 HD
ENDROOT
BRANCH   6  16
ATOM     16  C   UNL     1       7.680  -2.928  -1.980  0.00  0.00    -0.015 A 
ATOM     17  C   UNL     1       7.231  -2.676  -0.697  0.00  0.00    +0.010 A 
ATOM     18  C   UNL     1       6.040  -2.003  -0.498  0.00  0.00    +0.050 A 
ATOM     19  C   UNL     1       5.288  -1.589  -1.586  0.00  0.00    +0.162 A 
ATOM     20  C   UNL     1       5.740  -1.842  -2.877  0.00  0.00    +0.162 A 
ATOM     21  C   UNL     1       6.938  -2.512  -3.070  0.00  0.00    +0.055 A 
BRANCH  20  22
ATOM     22  O   UNL     1       5.009  -1.433  -3.948  0.00  0.00    -0.491 OA
ATOM     23  C   UNL     1       5.535  -1.728  -5.244  0.00  0.00    +0.277 C 
ENDBRANCH  20  22
BRANCH  19  24
ATOM     24  O   UNL     1       4.113  -0.932  -1.392  0.00  0.00    -0.484 OA
BRANCH  24  25
ATOM     25  C   UNL     1       3.711  -0.707  -0.039  0.00  0.00    +0.264 C 
BRANCH  25  26
ATOM     26  C   UNL     1       2.396   0.029  -0.022  0.00  0.00    -0.010 A 
ATOM     27  C   UNL     1       1.208  -0.679  -0.014  0.00  0.00    +0.007 A 
ATOM     28  C   UNL     1       0.002  -0.004   0.002  0.00  0.00    +0.000 A 
ATOM     29  C   UNL     1      -0.017   1.378   0.010  0.00  0.00    +0.000 A 
ATOM     30  C   UNL     1       1.171   2.086   0.002  0.00  0.00    +0.000 A 
ATOM     31  C   UNL     1       2.377   1.411  -0.014  0.00  0.00    +0.007 A 
ENDBRANCH  25  26
ENDBRANCH  24  25
ENDBRANCH  19  24
ENDBRANCH   6  16
BRANCH   1  32
ATOM     32  S   UNL     1      12.658  -0.010  -1.179  0.00  0.00    -0.084 S 
BRANCH  32  33
ATOM     33  C   UNL     1      13.689  -0.181   0.304  0.00  0.00    +0.077 C 
BRANCH  33  34
ATOM     34  C   UNL     1      14.670   0.989   0.381  0.00  0.00    +0.011 C 
BRANCH  34  36
ATOM     35  C   UNL     1      16.521   2.016   1.710  0.00  0.00    +0.004 C 
ATOM     36  C   UNL     1      15.539   0.845   1.632  0.00  0.00    -0.003 C 
ENDBRANCH  34  36
ENDBRANCH  33  34
ENDBRANCH  32  33
ENDBRANCH   1  32
TORSDOF 9
