REMARK  Name = ZINC54032311
REMARK  11 active torsions:
REMARK  status: ('A' for Active; 'I' for Inactive)
REMARK    1  A    between atoms: C_1  and  C_2
REMARK    2  A    between atoms: C_2  and  N_3
REMARK    3  A    between atoms: N_3  and  C_4
REMARK    4  A    between atoms: N_3  and  C_6
REMARK    5  A    between atoms: C_4  and  C_5
REMARK    6  A    between atoms: C_6  and  C_7
REMARK    7  A    between atoms: C_11  and  C_13
REMARK    8  A    between atoms: C_13  and  N_14
REMARK    9  A    between atoms: C_15  and  C_17
REMARK   10  A    between atoms: C_20  and  C_23
REMARK   11  A    between atoms: C_23  and  N_24
REMARK                            x       y       z     vdW  Elec       q    Type
REMARK                         _______ _______ _______ _____ _____    ______ ____
ROOT
ATOM      1  N   UNL     1      -4.269  -0.915  -4.523  0.00  0.00    -0.307 N 
ATOM      2  C   UNL     1      -4.913  -0.625  -5.671  0.00  0.00    +0.244 C 
ATOM      3  O   UNL     1      -5.101  -1.495  -6.499  0.00  0.00    -0.270 OA
ATOM      4  H   UNL     1      -4.120  -0.220  -3.862  0.00  0.00    +0.149 HD
ENDROOT
BRANCH   2   5
ATOM      5  C   UNL     1      -5.391   0.751  -5.923  0.00  0.00    +0.037 A 
ATOM      6  C   UNL     1      -5.172   1.754  -4.978  0.00  0.00    +0.013 A 
ATOM      7  C   UNL     1      -5.621   3.036  -5.220  0.00  0.00    +0.006 A 
ATOM      8  C   UNL     1      -6.286   3.329  -6.396  0.00  0.00    -0.030 A 
ATOM      9  C   UNL     1      -6.507   2.339  -7.338  0.00  0.00    +0.006 A 
ATOM     10  C   UNL     1      -6.059   1.054  -7.111  0.00  0.00    +0.013 A 
BRANCH   8  11
ATOM     11  C   UNL     1      -6.774   4.731  -6.654  0.00  0.00    +0.141 C 
BRANCH  11  12
ATOM     12  N   UNL     1      -5.728   5.493  -7.341  0.00  0.00    -0.295 N 
ATOM     13  C   UNL     1      -5.942   6.781  -7.675  0.00  0.00    +0.297 C 
ATOM     14  O   UNL     1      -7.003   7.311  -7.406  0.00  0.00    -0.253 OA
ATOM     15  N   UNL     1      -4.980   7.482  -8.308  0.00  0.00    -0.313 N 
ATOM     16  H   UNL     1      -4.882   5.070  -7.556  0.00  0.00    +0.151 HD
ATOM     17  H   UNL     1      -4.134   7.059  -8.523  0.00  0.00    +0.146 HD
ATOM     18  H   UNL     1      -5.134   8.409  -8.548  0.00  0.00    +0.146 HD
ENDBRANCH  11  12
ENDBRANCH   8  11
ENDBRANCH   2   5
BRANCH   1  19
ATOM     19  C   UNL     1      -3.796  -2.278  -4.273  0.00  0.00    +0.139 C 
BRANCH  19  24
ATOM     20  C   UNL     1      -1.132  -2.147  -1.601  0.00  0.00    -0.064 A 
ATOM     21  C   UNL     1      -1.865  -2.440  -0.466  0.00  0.00    +0.002 A 
ATOM     22  C   UNL     1      -3.222  -2.681  -0.563  0.00  0.00    +0.001 A 
ATOM     23  C   UNL     1      -3.847  -2.629  -1.795  0.00  0.00    +0.005 A 
ATOM     24  C   UNL     1      -3.115  -2.335  -2.930  0.00  0.00    -0.030 A 
ATOM     25  C   UNL     1      -1.757  -2.090  -2.832  0.00  0.00    +0.007 A 
BRANCH  20  26
ATOM     26  C   UNL     1       0.348  -1.884  -1.495  0.00  0.00    -0.043 C 
BRANCH  26  27
ATOM     27  N   UNL     1       0.576  -0.451  -1.269  0.00  0.00    +0.382 N 
ATOM     28  H   UNL     1       0.124   0.081  -1.998  0.00  0.00    -0.081 HD
BRANCH  27  30
ATOM     29  C   UNL     1       0.132   1.450   0.210  0.00  0.00    -0.017 C 
ATOM     30  C   UNL     1       0.019  -0.066   0.035  0.00  0.00    -0.082 C 
ENDBRANCH  27  30
BRANCH  27  31
ATOM     31  C   UNL     1       2.019  -0.176  -1.285  0.00  0.00    -0.082 C 
ATOM     32  C   UNL     1       2.573  -0.440  -2.687  0.00  0.00    -0.017 C 
ENDBRANCH  27  31
ENDBRANCH  26  27
ENDBRANCH  20  26
ENDBRANCH  19  24
ENDBRANCH   1  19
TORSDOF 9
