REMARK  Name = ZINC50670593
REMARK  8 active torsions:
REMARK  status: ('A' for Active; 'I' for Inactive)
REMARK    1  A    between atoms: C_1  and  C_2
REMARK    2  A    between atoms: C_2  and  C_3
REMARK    3  A    between atoms: C_2  and  N_4
REMARK    4  A    between atoms: C_7  and  C_10
REMARK    5  A    between atoms: C_10  and  N_11
REMARK    6  A    between atoms: N_11  and  S_12
REMARK    7  A    between atoms: S_12  and  C_15
REMARK    8  A    between atoms: C_20  and  N_21
REMARK                            x       y       z     vdW  Elec       q    Type
REMARK                         _______ _______ _______ _____ _____    ______ ____
ROOT
ATOM      1  S   UNL     1       4.756  -5.126  -2.443  0.00  0.00    +0.062 S 
ATOM      2  O   UNL     1       5.820  -5.152  -3.385  0.00  0.00    -0.153 OA
ATOM      3  O   UNL     1       4.972  -4.905  -1.056  0.00  0.00    -0.153 OA
ENDROOT
BRANCH   1   4
ATOM      4  C   UNL     1       3.921  -6.671  -2.584  0.00  0.00    +0.146 A 
ATOM      5  C   UNL     1       3.645  -7.424  -1.456  0.00  0.00    +0.048 A 
ATOM      6  C   UNL     1       2.984  -8.636  -1.614  0.00  0.00    +0.038 A 
ATOM      7  C   UNL     1       2.625  -9.050  -2.882  0.00  0.00    +0.128 A 
ATOM      8  N   UNL     1       2.902  -8.311  -3.939  0.00  0.00    -0.238 NA
ATOM      9  C   UNL     1       3.525  -7.147  -3.829  0.00  0.00    +0.143 A 
ATOM     10 BR   UNL     1       2.582  -9.707  -0.108  0.00  0.00    -0.049 Br
BRANCH   9  11
ATOM     11  N   UNL     1       3.790  -6.397  -4.970  0.00  0.00    -0.342 N 
ATOM     12  H   UNL     1       4.167  -5.508  -4.888  0.00  0.00    +0.144 HD
ATOM     13  H   UNL     1       3.598  -6.764  -5.847  0.00  0.00    +0.144 HD
ENDBRANCH   9  11
ENDBRANCH   1   4
BRANCH   1  14
ATOM     14  N   UNL     1       3.704  -3.952  -2.951  0.00  0.00    -0.190 NA
ATOM     15  H   UNL     1       3.902  -3.433  -3.746  0.00  0.00    +0.148 HD
BRANCH  14  16
ATOM     16  C   UNL     1       2.472  -3.698  -2.199  0.00  0.00    +0.107 C 
BRANCH  16  20
ATOM     17  N   UNL     1       0.483  -0.569  -1.904  0.00  0.00    +0.381 N 
ATOM     18  C   UNL     1       1.865  -0.072  -1.729  0.00  0.00    -0.078 C 
ATOM     19  C   UNL     1       2.811  -1.190  -2.205  0.00  0.00    -0.016 C 
ATOM     20  C   UNL     1       1.883  -2.352  -2.626  0.00  0.00    -0.014 C 
ATOM     21  C   UNL     1       0.576  -2.050  -1.850  0.00  0.00    -0.074 C 
ATOM     22  H   UNL     1       0.117  -0.276  -2.797  0.00  0.00    -0.081 HD
BRANCH  17  24
ATOM     23  C   UNL     1      -0.459   1.450  -0.888  0.00  0.00    -0.014 C 
ATOM     24  C   UNL     1      -0.374  -0.075  -0.818  0.00  0.00    -0.075 C 
ATOM     25  C   UNL     1      -1.776  -0.671  -0.964  0.00  0.00    -0.014 C 
ENDBRANCH  17  24
ENDBRANCH  16  20
ENDBRANCH  14  16
ENDBRANCH   1  14
TORSDOF 6
