REMARK  Name = ZINC24138455
REMARK  11 active torsions:
REMARK  status: ('A' for Active; 'I' for Inactive)
REMARK    1  A    between atoms: C_1  and  C_2
REMARK    2  A    between atoms: C_2  and  C_3
REMARK    3  A    between atoms: C_2  and  C_4
REMARK    4  A    between atoms: C_2  and  C_5
REMARK    5  A    between atoms: C_8  and  C_11
REMARK    6  A    between atoms: C_14  and  S_23
REMARK    7  A    between atoms: N_15  and  C_16
REMARK    8  A    between atoms: C_16  and  C_17
REMARK    9  A    between atoms: S_23  and  C_24
REMARK   10  A    between atoms: C_24  and  C_25
REMARK   11  A    between atoms: C_31  and  C_34
REMARK                            x       y       z     vdW  Elec       q    Type
REMARK                         _______ _______ _______ _____ _____    ______ ____
ROOT
ATOM      1  C   UNL     1      -1.719   4.905  -7.145  0.00  0.00    +0.165 A 
ATOM      2  N   UNL     1      -2.346   3.872  -6.633  0.00  0.00    -0.128 NA
ATOM      3  N   UNL     1      -1.661   3.380  -5.663  0.00  0.00    -0.122 NA
ATOM      4  C   UNL     1      -0.554   4.069  -5.497  0.00  0.00    +0.193 A 
ATOM      5  N   UNL     1      -0.555   5.067  -6.430  0.00  0.00    -0.298 N 
ENDROOT
BRANCH   1   9
ATOM      6  C   UNL     1      -3.043   7.307 -10.388  0.00  0.00    -0.042 A 
ATOM      7  C   UNL     1      -3.966   6.762  -9.513  0.00  0.00    +0.005 A 
ATOM      8  C   UNL     1      -3.542   5.981  -8.458  0.00  0.00    +0.012 A 
ATOM      9  C   UNL     1      -2.180   5.740  -8.274  0.00  0.00    +0.019 A 
ATOM     10  C   UNL     1      -1.254   6.297  -9.158  0.00  0.00    +0.012 A 
ATOM     11  C   UNL     1      -1.691   7.072 -10.212  0.00  0.00    +0.005 A 
BRANCH   6  13
ATOM     12  C   UNL     1      -4.272   9.372 -10.998  0.00  0.00    +0.015 C 
ATOM     13  C   UNL     1      -3.513   8.160 -11.539  0.00  0.00    -0.013 C 
ATOM     14  C   UNL     1      -2.304   8.634 -12.348  0.00  0.00    +0.015 C 
ATOM     15  C   UNL     1      -4.438   7.338 -12.438  0.00  0.00    +0.015 C 
ENDBRANCH   6  13
ENDBRANCH   1   9
BRANCH   5  16
ATOM     16  C   UNL     1       0.471   6.094  -6.628  0.00  0.00    +0.161 C 
BRANCH  16  17
ATOM     17  C   UNL     1       0.068   7.352  -5.904  0.00  0.00    -0.028 A 
ATOM     18  C   UNL     1      -0.626   8.343  -6.573  0.00  0.00    +0.005 A 
ATOM     19  C   UNL     1      -0.999   9.495  -5.908  0.00  0.00    +0.000 A 
ATOM     20  C   UNL     1      -0.669   9.662  -4.576  0.00  0.00    +0.000 A 
ATOM     21  C   UNL     1       0.030   8.674  -3.908  0.00  0.00    +0.000 A 
ATOM     22  C   UNL     1       0.398   7.519  -4.572  0.00  0.00    +0.005 A 
ENDBRANCH  16  17
ENDBRANCH   5  16
BRANCH   4  23
ATOM     23  S   UNL     1       0.694   3.768  -4.291  0.00  0.00    -0.077 S 
BRANCH  23  24
ATOM     24  C   UNL     1      -0.016   2.327  -3.457  0.00  0.00    +0.173 C 
BRANCH  24  25
ATOM     25  C   UNL     1       0.907   1.879  -2.353  0.00  0.00    +0.226 C 
ATOM     26  O   UNL     1       1.944   2.476  -2.150  0.00  0.00    -0.275 OA
ATOM     27  N   UNL     1       0.582   0.816  -1.591  0.00  0.00    -0.300 N 
ATOM     28  C   UNL     1      -0.671   0.084  -1.824  0.00  0.00    +0.108 C 
ATOM     29  C   UNL     1      -1.451   0.010  -0.508  0.00  0.00    +0.020 C 
ATOM     30  C   UNL     1      -0.558  -0.600   0.576  0.00  0.00    +0.016 C 
ATOM     31  C   UNL     1       0.670   0.291   0.792  0.00  0.00    +0.092 C 
ATOM     32  C   UNL     1       1.472   0.368  -0.511  0.00  0.00    +0.120 C 
BRANCH  31  33
ATOM     33  C   UNL     1       1.535  -0.291   1.880  0.00  0.00    +0.215 C 
ATOM     34  O   UNL     1       1.202  -1.317   2.435  0.00  0.00    -0.276 OA
ATOM     35  N   UNL     1       2.678   0.328   2.237  0.00  0.00    -0.329 N 
ATOM     36  H   UNL     1       3.309  -0.098   3.031  0.00  0.00    +0.145 HD
ATOM     37  H   UNL     1       2.979   1.258   1.734  0.00  0.00    +0.145 HD
ENDBRANCH  31  33
ENDBRANCH  24  25
ENDBRANCH  23  24
ENDBRANCH   4  23
TORSDOF 8
