REMARK  Name = ZINC01032666
REMARK  4 active torsions:
REMARK  status: ('A' for Active; 'I' for Inactive)
REMARK    1  A    between atoms: C_16  and  C_19
REMARK    2  A    between atoms: C_22  and  C_24
REMARK    3  A    between atoms: C_27  and  S_30
REMARK    4  A    between atoms: S_30  and  N_33
REMARK                            x       y       z     vdW  Elec       q    Type
REMARK                         _______ _______ _______ _____ _____    ______ ____
ROOT
ATOM      1  C   UNL     1      -0.017   1.378   0.010  0.00  0.00    +0.001 A 
ATOM      2  C   UNL     1       1.170   2.092   0.002  0.00  0.00    +0.002 A 
ATOM      3  C   UNL     1       2.388   1.439  -0.002  0.00  0.00    +0.024 A 
ATOM      4  C   UNL     1       2.427   0.054  -0.004  0.00  0.00    +0.040 A 
ATOM      5  C   UNL     1       1.219  -0.669  -0.015  0.00  0.00    +0.038 A 
ATOM      6  C   UNL     1       0.002  -0.004   0.002  0.00  0.00    +0.013 A 
ATOM      7  C   UNL     1       1.324  -2.141  -0.075  0.00  0.00    +0.145 A 
ATOM      8  N   UNL     1       0.405  -3.052   0.074  0.00  0.00    -0.227 NA
ATOM      9  C   UNL     1       0.965  -4.272  -0.027  0.00  0.00    +0.090 A 
ATOM     10  C   UNL     1       0.420  -5.559   0.071  0.00  0.00    +0.030 A 
ATOM     11  C   UNL     1       1.283  -6.616  -0.076  0.00  0.00    +0.002 A 
ATOM     12  C   UNL     1       2.636  -6.436  -0.310  0.00  0.00    +0.002 A 
ATOM     13  C   UNL     1       3.203  -5.176  -0.414  0.00  0.00    +0.028 A 
ATOM     14  C   UNL     1       2.351  -4.086  -0.272  0.00  0.00    +0.071 A 
ATOM     15  N   UNL     1       2.550  -2.742  -0.319  0.00  0.00    -0.297 N 
ATOM     16  C   UNL     1       3.763  -1.966  -0.590  0.00  0.00    +0.241 C 
ATOM     17  N   UNL     1       3.635  -0.638   0.024  0.00  0.00    -0.317 N 
ATOM     18  H   UNL     1       4.405  -0.236   0.456  0.00  0.00    +0.148 HD
ENDROOT
BRANCH  16  19
ATOM     19  C   UNL     1       3.943  -1.817  -2.079  0.00  0.00    +0.147 A 
ATOM     20  C   UNL     1       4.770  -2.554  -2.847  0.00  0.00    +0.049 A 
ATOM     21  C   UNL     1       4.628  -2.088  -4.169  0.00  0.00    +0.050 A 
ATOM     22  C   UNL     1       3.714  -1.083  -4.135  0.00  0.00    +0.135 A 
ATOM     23  O   UNL     1       3.302  -0.934  -2.861  0.00  0.00    -0.456 OA
BRANCH  22  24
ATOM     24  C   UNL     1       3.247  -0.294  -5.295  0.00  0.00    +0.017 A 
ATOM     25  C   UNL     1       3.748  -0.560  -6.570  0.00  0.00    +0.013 A 
ATOM     26  C   UNL     1       3.308   0.179  -7.649  0.00  0.00    +0.029 A 
ATOM     27  C   UNL     1       2.372   1.182  -7.468  0.00  0.00    +0.105 A 
ATOM     28  C   UNL     1       1.872   1.451  -6.206  0.00  0.00    +0.029 A 
ATOM     29  C   UNL     1       2.299   0.715  -5.120  0.00  0.00    +0.013 A 
BRANCH  27  30
ATOM     30  S   UNL     1       1.816   2.122  -8.851  0.00  0.00    +0.056 S 
ATOM     31  O   UNL     1       1.348   3.361  -8.338  0.00  0.00    -0.153 OA
ATOM     32  O   UNL     1       2.839   2.042  -9.834  0.00  0.00    -0.153 OA
BRANCH  30  33
ATOM     33  N   UNL     1       0.497   1.340  -9.475  0.00  0.00    -0.204 NA
ATOM     34  H   UNL     1      -0.202   1.845  -9.919  0.00  0.00    +0.144 HD
ATOM     35  H   UNL     1       0.423   0.376  -9.398  0.00  0.00    +0.144 HD
ENDBRANCH  30  33
ENDBRANCH  27  30
ENDBRANCH  22  24
ENDBRANCH  16  19
TORSDOF 4
