REMARK  Name = ZINC16837155
REMARK  9 active torsions:
REMARK  status: ('A' for Active; 'I' for Inactive)
REMARK    1  A    between atoms: C_1  and  C_2
REMARK    2  A    between atoms: C_2  and  C_3
REMARK    3  A    between atoms: C_2  and  N_62
REMARK    4  A    between atoms: C_9  and  N_15
REMARK    5  A    between atoms: C_10  and  C_11
REMARK    6  A    between atoms: C_11  and  O_13
REMARK    7  A    between atoms: O_13  and  C_14
REMARK    8  A    between atoms: C_16  and  C_18
REMARK    9  A    between atoms: C_20  and  C_28
REMARK                            x       y       z     vdW  Elec       q    Type
REMARK                         _______ _______ _______ _____ _____    ______ ____
ROOT
ATOM      1  N   UNL     1       0.002  -0.004   0.017  0.00  0.00    -0.275 N 
ATOM      2  C   UNL     1      -1.156  -0.694   0.009  0.00  0.00    +0.249 C 
ATOM      3  O   UNL     1      -2.217  -0.100   0.010  0.00  0.00    -0.270 OA
ATOM      4  H   UNL     1       0.849  -0.478   0.016  0.00  0.00    +0.156 HD
ENDROOT
BRANCH   1  10
ATOM      5  C   UNL     1       1.142   6.087  -0.389  0.00  0.00    -0.073 C 
ATOM      6  C   UNL     1       1.817   4.782   0.044  0.00  0.00    +0.018 C 
ATOM      7  C   UNL     1       0.765   3.679   0.039  0.00  0.00    -0.025 A 
ATOM      8  C   UNL     1      -0.550   3.995   0.038  0.00  0.00    -0.021 A 
ATOM      9  S   UNL     1      -1.389   2.438   0.018  0.00  0.00    -0.079 S 
ATOM     10  C   UNL     1      -0.017   1.380   0.024  0.00  0.00    +0.086 A 
ATOM     11  C   UNL     1       1.061   2.259   0.032  0.00  0.00    +0.091 A 
ATOM     12  C   UNL     1      -1.132   5.374   0.046  0.00  0.00    -0.035 C 
ATOM     13  N   UNL     1      -0.058   6.317   0.441  0.00  0.00    +0.384 N 
ATOM     14  H   UNL     1       0.181   6.158   1.427  0.00  0.00    -0.081 HD
BRANCH  13  16
ATOM     15  C   UNL     1      -0.909   7.981  -1.177  0.00  0.00    -0.014 C 
ATOM     16  C   UNL     1      -0.524   7.712   0.280  0.00  0.00    -0.074 C 
ATOM     17  C   UNL     1      -1.742   7.936   1.179  0.00  0.00    -0.014 C 
ENDBRANCH  13  16
BRANCH  11  18
ATOM     18  C   UNL     1       2.441   1.769   0.033  0.00  0.00    +0.342 C 
ATOM     19  O   UNL     1       3.017   1.572  -1.020  0.00  0.00    -0.245 OA
BRANCH  18  20
ATOM     20  O   UNL     1       3.074   1.538   1.202  0.00  0.00    -0.464 OA
ATOM     21  C   UNL     1       4.441   1.054   1.127  0.00  0.00    +0.280 C 
ENDBRANCH  18  20
ENDBRANCH  11  18
ENDBRANCH   1  10
BRANCH   2  22
ATOM     22  C   UNL     1      -1.136  -2.172   0.001  0.00  0.00    +0.048 A 
ATOM     23  C   UNL     1       0.054  -2.877  -0.117  0.00  0.00    +0.042 A 
ATOM     24  C   UNL     1       0.026  -4.280  -0.120  0.00  0.00    +0.072 A 
ATOM     25  N   UNL     1      -1.096  -4.961  -0.014  0.00  0.00    -0.247 NA
ATOM     26  C   UNL     1      -2.284  -4.366   0.103  0.00  0.00    +0.072 A 
ATOM     27  C   UNL     1      -2.368  -2.950   0.124  0.00  0.00    +0.013 A 
ATOM     28  C   UNL     1      -3.615  -2.330   0.254  0.00  0.00    +0.011 A 
ATOM     29  C   UNL     1      -4.739  -3.093   0.366  0.00  0.00    +0.001 A 
ATOM     30  C   UNL     1      -4.662  -4.484   0.352  0.00  0.00    +0.002 A 
ATOM     31  C   UNL     1      -3.466  -5.120   0.215  0.00  0.00    +0.028 A 
BRANCH  24  32
ATOM     32  C   UNL     1       1.304  -5.021  -0.247  0.00  0.00    +0.000 A 
ATOM     33  C   UNL     1       2.506  -4.327  -0.366  0.00  0.00    +0.010 A 
ATOM     34  C   UNL     1       3.693  -5.022  -0.479  0.00  0.00    +0.001 A 
ATOM     35  C   UNL     1       3.690  -6.405  -0.485  0.00  0.00    +0.000 A 
ATOM     36  C   UNL     1       2.499  -7.099  -0.372  0.00  0.00    +0.001 A 
ATOM     37  C   UNL     1       1.306  -6.415  -0.253  0.00  0.00    +0.010 A 
ENDBRANCH  24  32
ENDBRANCH   2  22
TORSDOF 6
