REMARK  Name = ZINC12661785
REMARK  6 active torsions:
REMARK  status: ('A' for Active; 'I' for Inactive)
REMARK    1  A    between atoms: C_1  and  C_2
REMARK    2  A    between atoms: C_2  and  C_32
REMARK    3  A    between atoms: C_5  and  O_31
REMARK    4  A    between atoms: C_10  and  O_30
REMARK    5  A    between atoms: C_12  and  O_29
REMARK    6  A    between atoms: C_20  and  O_22
REMARK                            x       y       z     vdW  Elec       q    Type
REMARK                         _______ _______ _______ _____ _____    ______ ____
ROOT
ATOM      1  C   UNL     1       4.480   0.086  -2.801  0.00  0.00    +0.011 C 
ATOM      2  C   UNL     1       4.579   0.689  -1.384  0.00  0.00    -0.029 C 
ATOM      3  C   UNL     1       5.949   1.367  -1.274  0.00  0.00    +0.009 C 
ATOM      4  C   UNL     1       6.059   2.125   0.044  0.00  0.00    +0.032 C 
ATOM      5  C   UNL     1       4.989   3.217   0.103  0.00  0.00    +0.124 C 
ATOM      6  C   UNL     1       3.599   2.605   0.014  0.00  0.00    +0.030 C 
ATOM      7  C   UNL     1       3.468   1.701  -1.211  0.00  0.00    +0.040 C 
ATOM      8  C   UNL     1       2.079   1.062  -1.216  0.00  0.00    +0.179 C 
ATOM      9  C   UNL     1       1.285   1.561  -0.002  0.00  0.00    +0.210 C 
ATOM     10  C   UNL     1       1.174   3.070   0.039  0.00  0.00    +0.119 C 
ATOM     11  C   UNL     1       2.547   3.717  -0.196  0.00  0.00    +0.022 C 
ATOM     12  C   UNL     1       2.750   4.867   0.783  0.00  0.00    +0.006 C 
ATOM     13  C   UNL     1       1.529   5.792   0.775  0.00  0.00    +0.011 C 
ATOM     14  C   UNL     1       0.256   4.990   1.088  0.00  0.00    +0.052 C 
ATOM     15  C   UNL     1       0.695   3.539   1.438  0.00  0.00    +0.141 C 
ATOM     16  C   UNL     1      -0.478   4.794  -0.235  0.00  0.00    -0.006 C 
ATOM     17  C   UNL     1      -1.496   5.520  -0.695  0.00  0.00    +0.016 C 
ATOM     18  C   UNL     1       0.155   3.644  -0.909  0.00  0.00    +0.173 C 
ATOM     19  O   UNL     1      -0.124   3.248  -2.022  0.00  0.00    -0.292 OA
ATOM     20  O   UNL     1       2.029   1.146   1.164  0.00  0.00    -0.345 OA
ATOM     21  C   UNL     1       3.259   1.864   1.304  0.00  0.00    +0.173 C 
ATOM     22  C   UNL     1       4.502  -0.461  -0.381  0.00  0.00    +0.011 C 
ENDROOT
BRANCH  15  23
ATOM     23  O   UNL     1      -0.419   2.766   1.897  0.00  0.00    -0.390 OA
ATOM     24  H   UNL     1      -0.831   3.109   2.702  0.00  0.00    +0.210 HD
ENDBRANCH  15  23
BRANCH   9  25
ATOM     25  O   UNL     1      -0.011   0.963   0.007  0.00  0.00    -0.362 OA
ATOM     26  H   UNL     1       0.002  -0.004   0.002  0.00  0.00    +0.213 HD
ENDBRANCH   9  25
BRANCH   8  27
ATOM     27  O   UNL     1       1.400   1.405  -2.427  0.00  0.00    -0.386 OA
ATOM     28  H   UNL     1       0.513   1.028  -2.501  0.00  0.00    +0.210 HD
ENDBRANCH   8  27
BRANCH   5  29
ATOM     29  O   UNL     1       5.138   3.916   1.345  0.00  0.00    -0.391 OA
ATOM     30  H   UNL     1       6.005   4.329   1.462  0.00  0.00    +0.210 HD
ENDBRANCH   5  29
TORSDOF 4
