REMARK  Name = ZINC56949997
REMARK  10 active torsions:
REMARK  status: ('A' for Active; 'I' for Inactive)
REMARK    1  A    between atoms: C_1  and  N_2
REMARK    2  A    between atoms: N_2  and  C_3
REMARK    3  A    between atoms: N_2  and  C_4
REMARK    4  A    between atoms: C_4  and  C_6
REMARK    5  A    between atoms: C_4  and  C_20
REMARK    6  A    between atoms: C_6  and  N_7
REMARK    7  A    between atoms: N_10  and  N_11
REMARK    8  A    between atoms: N_11  and  C_12
REMARK    9  A    between atoms: C_12  and  N_14
REMARK   10  A    between atoms: N_14  and  C_15
REMARK                            x       y       z     vdW  Elec       q    Type
REMARK                         _______ _______ _______ _____ _____    ______ ____
ROOT
ATOM      1  N   UNL     1       0.204  -2.151   0.755  0.00  0.00    -0.299 N 
ATOM      2  C   UNL     1       0.640  -3.421   0.866  0.00  0.00    +0.316 C 
ATOM      3  O   UNL     1       0.252  -4.268   0.085  0.00  0.00    -0.251 OA
ATOM      4  N   UNL     1       1.507  -3.753   1.844  0.00  0.00    -0.219 N 
ATOM      5  H   UNL     1       0.514  -1.475   1.378  0.00  0.00    +0.150 HD
ATOM      6  H   UNL     1       1.821  -4.667   1.924  0.00  0.00    +0.174 HD
ENDROOT
BRANCH   4   7
ATOM      7  N   UNL     1       1.954  -2.777   2.744  0.00  0.00    -0.245 N 
ATOM      8  H   UNL     1       1.640  -1.863   2.664  0.00  0.00    +0.172 HD
BRANCH   7   9
ATOM      9  C   UNL     1       2.820  -3.109   3.722  0.00  0.00    +0.147 C 
ATOM     10  S   UNL     1       3.366  -1.917   4.822  0.00  0.00    -0.017 S 
BRANCH   9  11
ATOM     11  N   UNL     1       3.256  -4.379   3.833  0.00  0.00    -0.323 N 
ATOM     12  H   UNL     1       2.947  -5.055   3.210  0.00  0.00    +0.148 HD
BRANCH  11  13
ATOM     13  C   UNL     1       4.198  -4.740   4.896  0.00  0.00    +0.072 C 
ATOM     14  C   UNL     1       3.428  -5.122   6.177  0.00  0.00    +0.022 C 
ATOM     15  C   UNL     1       3.328  -6.666   6.114  0.00  0.00    +0.002 C 
ATOM     16  C   UNL     1       4.702  -7.074   5.529  0.00  0.00    +0.002 C 
ATOM     17  C   UNL     1       5.008  -5.981   4.484  0.00  0.00    +0.022 C 
ENDBRANCH  11  13
ENDBRANCH   9  11
ENDBRANCH   7   9
ENDBRANCH   4   7
BRANCH   1  18
ATOM     18  C   UNL     1      -0.738  -1.790  -0.308  0.00  0.00    +0.095 C 
BRANCH  18  19
ATOM     19  C   UNL     1      -1.168  -0.333  -0.135  0.00  0.00    -0.021 C 
BRANCH  19  20
ATOM     20  C   UNL     1      -1.946  -0.188   1.148  0.00  0.00    -0.059 A 
ATOM     21  C   UNL     1      -3.277  -0.556   1.194  0.00  0.00    +0.005 A 
ATOM     22  C   UNL     1      -3.991  -0.424   2.370  0.00  0.00    +0.038 A 
ATOM     23  C   UNL     1      -3.372   0.078   3.502  0.00  0.00    +0.123 A 
ATOM     24  C   UNL     1      -2.038   0.447   3.455  0.00  0.00    +0.038 A 
ATOM     25  C   UNL     1      -1.325   0.309   2.279  0.00  0.00    +0.005 A 
ATOM     26  F   UNL     1      -4.069   0.208   4.652  0.00  0.00    -0.205 F 
ENDBRANCH  19  20
BRANCH  19  28
ATOM     27  C   UNL     1      -2.469   1.450  -1.077  0.00  0.00    -0.096 C 
ATOM     28  N   UNL     1      -2.014   0.066  -1.268  0.00  0.00    +0.382 N 
ATOM     29  C   UNL     1      -1.241  -0.027  -2.513  0.00  0.00    -0.096 C 
ATOM     30  H   UNL     1      -2.814  -0.546  -1.322  0.00  0.00    -0.082 HD
ENDBRANCH  19  28
ENDBRANCH  18  19
ENDBRANCH   1  18
TORSDOF 8
