REMARK  Name = ZINC33293793
REMARK  12 active torsions:
REMARK  status: ('A' for Active; 'I' for Inactive)
REMARK    1  A    between atoms: C_1  and  C_2
REMARK    2  A    between atoms: C_2  and  C_3
REMARK    3  A    between atoms: C_3  and  N_4
REMARK    4  A    between atoms: C_8  and  C_9
REMARK    5  A    between atoms: C_13  and  O_16
REMARK    6  A    between atoms: C_14  and  O_15
REMARK    7  A    between atoms: O_16  and  C_17
REMARK    8  A    between atoms: C_17  and  C_18
REMARK    9  A    between atoms: N_21  and  C_22
REMARK   10  A    between atoms: C_25  and  O_28
REMARK   11  A    between atoms: O_28  and  C_29
REMARK   12  A    between atoms: C_29  and  C_30
REMARK                            x       y       z     vdW  Elec       q    Type
REMARK                         _______ _______ _______ _____ _____    ______ ____
ROOT
ATOM      1  N   UNL     1      -0.359  -2.092  -0.115  0.00  0.00    -0.246 N 
ATOM      2  C   UNL     1      -0.625  -2.734  -1.240  0.00  0.00    +0.259 C 
ATOM      3  O   UNL     1      -0.524  -2.188  -2.323  0.00  0.00    -0.269 OA
ATOM      4  C   UNL     1      -1.051  -4.141  -1.123  0.00  0.00    +0.078 C 
ATOM      5  C   UNL     1      -1.382  -5.025  -2.098  0.00  0.00    +0.032 C 
ATOM      6  S   UNL     1      -1.012  -4.371   0.649  0.00  0.00    -0.049 S 
ATOM      7  C   UNL     1      -0.474  -2.729   1.102  0.00  0.00    +0.168 C 
ATOM      8  N   UNL     1      -0.246  -2.247   2.302  0.00  0.00    -0.225 NA
ENDROOT
BRANCH   5   9
ATOM      9  C   UNL     1      -1.505  -4.571  -3.489  0.00  0.00    +0.021 A 
ATOM     10  C   UNL     1      -2.134  -3.353  -3.780  0.00  0.00    +0.012 A 
ATOM     11  C   UNL     1      -2.246  -2.932  -5.086  0.00  0.00    +0.004 A 
ATOM     12  C   UNL     1      -1.740  -3.706  -6.118  0.00  0.00    +0.049 A 
ATOM     13  C   UNL     1      -1.116  -4.913  -5.847  0.00  0.00    +0.162 A 
ATOM     14  C   UNL     1      -0.989  -5.351  -4.534  0.00  0.00    +0.166 A 
BRANCH  14  15
ATOM     15  O   UNL     1      -0.372  -6.531  -4.265  0.00  0.00    -0.503 OA
ATOM     16  H   UNL     1      -0.968  -7.293  -4.256  0.00  0.00    +0.292 HD
ENDBRANCH  14  15
BRANCH  13  17
ATOM     17  O   UNL     1      -0.623  -5.666  -6.866  0.00  0.00    -0.489 OA
BRANCH  17  18
ATOM     18  C   UNL     1      -0.783  -5.152  -8.190  0.00  0.00    +0.226 C 
ATOM     19  C   UNL     1      -0.171  -6.130  -9.195  0.00  0.00    +0.048 C 
ENDBRANCH  17  18
ENDBRANCH  13  17
ENDBRANCH   5   9
BRANCH   8  20
ATOM     20  C   UNL     1      -0.417  -3.042   3.404  0.00  0.00    +0.067 A 
ATOM     21  C   UNL     1      -1.550  -3.851   3.514  0.00  0.00    +0.031 A 
ATOM     22  C   UNL     1      -1.719  -4.650   4.626  0.00  0.00    +0.048 A 
ATOM     23  C   UNL     1      -0.764  -4.650   5.634  0.00  0.00    +0.121 A 
ATOM     24  C   UNL     1       0.363  -3.848   5.529  0.00  0.00    +0.048 A 
ATOM     25  C   UNL     1       0.543  -3.050   4.418  0.00  0.00    +0.031 A 
BRANCH  23  26
ATOM     26  O   UNL     1      -0.935  -5.439   6.728  0.00  0.00    -0.492 OA
BRANCH  26  27
ATOM     27  C   UNL     1       0.085  -5.392   7.728  0.00  0.00    +0.225 C 
ATOM     28  C   UNL     1      -0.278  -6.339   8.873  0.00  0.00    +0.048 C 
ENDBRANCH  26  27
ENDBRANCH  23  26
ENDBRANCH   8  20
BRANCH   1  29
ATOM     29  C   UNL     1       0.068  -0.691  -0.162  0.00  0.00    +0.116 C 
BRANCH  29  31
ATOM     30  C   UNL     1       2.040   0.836  -0.320  0.00  0.00    +0.005 C 
ATOM     31  C   UNL     1       1.593  -0.627  -0.270  0.00  0.00    +0.016 C 
ENDBRANCH  29  31
ENDBRANCH   1  29
TORSDOF 9
