REMARK  Name = ZINC51088673
REMARK  4 active torsions:
REMARK  status: ('A' for Active; 'I' for Inactive)
REMARK    1  A    between atoms: C_3  and  N_16
REMARK    2  A    between atoms: C_5  and  C_8
REMARK    3  A    between atoms: N_10  and  C_11
REMARK    4  A    between atoms: N_16  and  N_17
REMARK                            x       y       z     vdW  Elec       q    Type
REMARK                         _______ _______ _______ _____ _____    ______ ____
ROOT
ATOM      1  C   UNL     1      -0.017   1.384   0.010  0.00  0.00    +0.026 A 
ATOM      2  C   UNL     1       1.189   2.062   0.002  0.00  0.00    +0.046 A 
ATOM      3  C   UNL     1       2.380   1.339  -0.013  0.00  0.00    +0.133 A 
ATOM      4  N   UNL     1       2.369   0.018  -0.021  0.00  0.00    -0.225 NA
ATOM      5  C   UNL     1       1.229  -0.668  -0.013  0.00  0.00    +0.150 A 
ATOM      6  C   UNL     1       0.002  -0.004   0.002  0.00  0.00    +0.072 A 
ATOM      7 CL   UNL     1      -1.483  -0.903   0.012  0.00  0.00    -0.081 Cl
ENDROOT
BRANCH   5   8
ATOM      8  C   UNL     1       1.263  -2.144  -0.021  0.00  0.00    +0.300 C 
ATOM      9  O   UNL     1       0.107  -2.847  -0.014  0.00  0.00    -0.263 OA
ATOM     10  N   UNL     1       2.413  -2.773  -0.036  0.00  0.00    -0.180 NA
BRANCH  10  11
ATOM     11  C   UNL     1       2.444  -4.132  -0.043  0.00  0.00    +0.218 A 
ATOM     12  N   UNL     1       1.442  -5.011  -0.044  0.00  0.00    -0.122 NA
ATOM     13  N   UNL     1       1.719  -6.244  -0.052  0.00  0.00    -0.148 NA
ATOM     14  C   UNL     1       2.956  -6.684  -0.059  0.00  0.00    +0.183 A 
ATOM     15  S   UNL     1       3.840  -5.248  -0.063  0.00  0.00    -0.034 S 
ENDBRANCH  10  11
ENDBRANCH   5   8
BRANCH   3  16
ATOM     16  N   UNL     1       3.595   2.015  -0.022  0.00  0.00    -0.268 N 
ATOM     17  H   UNL     1       3.610   2.985  -0.017  0.00  0.00    +0.167 HD
BRANCH  16  18
ATOM     18  N   UNL     1       4.767   1.314  -0.037  0.00  0.00    -0.255 NA
ATOM     19  H   UNL     1       4.800   0.681  -0.822  0.00  0.00    +0.140 HD
ATOM     20  H   UNL     1       5.561   1.937  -0.042  0.00  0.00    +0.140 HD
ENDBRANCH  16  18
ENDBRANCH   3  16
TORSDOF 4
