REMARK  Name = ZINC62135118
REMARK  2 active torsions:
REMARK  status: ('A' for Active; 'I' for Inactive)
REMARK    1  A    between atoms: C_3  and  C_18
REMARK    2  A    between atoms: C_12  and  C_15
REMARK                            x       y       z     vdW  Elec       q    Type
REMARK                         _______ _______ _______ _____ _____    ______ ____
ROOT
ATOM      1  C   UNL     1      -0.114   0.894   0.105  0.00  0.00    +0.021 C 
ATOM      2  C   UNL     1       1.362   1.293   0.371  0.00  0.00    +0.033 C 
ATOM      3  C   UNL     1       2.064   0.753  -0.900  0.00  0.00    +0.163 C 
ATOM      4  N   UNL     1       1.368  -0.509  -1.208  0.00  0.00    -0.274 N 
ATOM      5  C   UNL     1       0.020  -0.459  -0.624  0.00  0.00    +0.110 C 
ATOM      6  C   UNL     1       1.881  -1.538  -1.911  0.00  0.00    +0.305 C 
ATOM      7  O   UNL     1       3.041  -1.507  -2.276  0.00  0.00    -0.252 OA
ATOM      8  N   UNL     1       1.110  -2.603  -2.208  0.00  0.00    -0.285 N 
ATOM      9  C   UNL     1      -0.302  -2.768  -1.836  0.00  0.00    +0.110 C 
ATOM     10  C   UNL     1      -0.773  -4.120  -2.412  0.00  0.00    +0.035 C 
ATOM     11  C   UNL     1       0.240  -4.381  -3.558  0.00  0.00    +0.121 C 
ATOM     12  C   UNL     1       1.542  -3.792  -2.966  0.00  0.00    +0.124 C 
ENDROOT
BRANCH   3  13
ATOM     13  C   UNL     1       3.523   0.496  -0.625  0.00  0.00    +0.231 C 
ATOM     14  O   UNL     1       3.874  -0.566  -0.156  0.00  0.00    -0.274 OA
ATOM     15  N   UNL     1       4.438   1.447  -0.900  0.00  0.00    -0.328 N 
ATOM     16  H   UNL     1       4.157   2.296  -1.275  0.00  0.00    +0.145 HD
ATOM     17  H   UNL     1       5.377   1.282  -0.723  0.00  0.00    +0.145 HD
ENDBRANCH   3  13
BRANCH  11  18
ATOM     18  C   UNL     1       0.385  -5.857  -3.826  0.00  0.00    +0.361 C 
ATOM     19  O   UNL     1      -0.580  -6.508  -4.189  0.00  0.00    -0.246 OA
ATOM     20  O   UNL     1       1.466  -6.400  -3.680  0.00  0.00    -0.246 OA
ENDBRANCH  11  18
TORSDOF 2
