REMARK  Name = ZINC37204668
REMARK  7 active torsions:
REMARK  status: ('A' for Active; 'I' for Inactive)
REMARK    1  A    between atoms: C_1  and  C_2
REMARK    2  A    between atoms: C_7  and  N_12
REMARK    3  A    between atoms: C_9  and  C_11
REMARK    4  A    between atoms: C_13  and  C_15
REMARK    5  A    between atoms: C_15  and  S_16
REMARK    6  A    between atoms: S_16  and  C_17
REMARK    7  A    between atoms: C_20  and  N_24
REMARK                            x       y       z     vdW  Elec       q    Type
REMARK                         _______ _______ _______ _____ _____    ______ ____
ROOT
ATOM      1  N   UNL     1       0.735  -0.503   3.687  0.00  0.00    -0.312 N 
ATOM      2  C   UNL     1       0.634   0.166   4.853  0.00  0.00    +0.223 C 
ATOM      3  O   UNL     1      -0.044   1.170   4.919  0.00  0.00    -0.275 OA
ATOM      4  H   UNL     1       1.276  -1.306   3.634  0.00  0.00    +0.149 HD
ENDROOT
BRANCH   1  10
ATOM      5  C   UNL     1      -0.019   1.526   0.010  0.00  0.00    +0.008 C 
ATOM      6  C   UNL     1       0.002  -0.004   0.002  0.00  0.00    -0.009 C 
ATOM      7  C   UNL     1      -1.433  -0.534   0.013  0.00  0.00    +0.003 C 
ATOM      8  C   UNL     1      -2.149  -0.040   1.272  0.00  0.00    +0.002 C 
ATOM      9  C   UNL     1      -1.409  -0.547   2.511  0.00  0.00    +0.022 C 
ATOM     10  C   UNL     1       0.026  -0.018   2.500  0.00  0.00    +0.076 C 
ATOM     11  C   UNL     1       0.742  -0.511   1.242  0.00  0.00    +0.009 C 
ATOM     12  C   UNL     1       2.178   0.019   1.231  0.00  0.00    +0.009 C 
ENDBRANCH   1  10
BRANCH   2  13
ATOM     13  C   UNL     1       1.363  -0.333   6.074  0.00  0.00    +0.170 C 
BRANCH  13  14
ATOM     14  S   UNL     1       1.030   0.774   7.471  0.00  0.00    -0.114 S 
BRANCH  14  15
ATOM     15  C   UNL     1       1.939   0.065   8.803  0.00  0.00    +0.027 A 
ATOM     16  C   UNL     1       2.685  -1.089   8.598  0.00  0.00    +0.018 A 
ATOM     17  C   UNL     1       3.398  -1.645   9.642  0.00  0.00    +0.024 A 
ATOM     18  C   UNL     1       3.371  -1.050  10.897  0.00  0.00    +0.026 A 
ATOM     19  C   UNL     1       2.625   0.103  11.103  0.00  0.00    +0.043 A 
ATOM     20  C   UNL     1       1.916   0.663  10.058  0.00  0.00    +0.056 A 
ATOM     21 CL   UNL     1       0.989   2.109  10.313  0.00  0.00    -0.082 Cl
BRANCH  18  22
ATOM     22  N   UNL     1       4.094  -1.614  11.954  0.00  0.00    -0.358 N 
ATOM     23  H   UNL     1       4.614  -2.420  11.811  0.00  0.00    +0.142 HD
ATOM     24  H   UNL     1       4.075  -1.199  12.831  0.00  0.00    +0.142 HD
ENDBRANCH  18  22
ENDBRANCH  14  15
ENDBRANCH  13  14
ENDBRANCH   2  13
TORSDOF 5
