REMARK  Name = ZINC19861344
REMARK  7 active torsions:
REMARK  status: ('A' for Active; 'I' for Inactive)
REMARK    1  A    between atoms: C_1  and  C_2
REMARK    2  A    between atoms: C_5  and  N_8
REMARK    3  A    between atoms: C_17  and  S_18
REMARK    4  A    between atoms: S_18  and  C_19
REMARK    5  A    between atoms: C_19  and  C_20
REMARK    6  A    between atoms: N_22  and  N_23
REMARK    7  A    between atoms: C_24  and  C_25
REMARK                            x       y       z     vdW  Elec       q    Type
REMARK                         _______ _______ _______ _____ _____    ______ ____
ROOT
ATOM      1  N   UNL     1       1.530  -4.815   4.097  0.00  0.00    -0.255 N 
ATOM      2  C   UNL     1       1.775  -3.935   5.096  0.00  0.00    +0.268 A 
ATOM      3  O   UNL     1       2.864  -3.861   5.641  0.00  0.00    -0.267 OA
ATOM      4  C   UNL     1       0.677  -3.096   5.475  0.00  0.00    +0.076 A 
ATOM      5  C   UNL     1       0.680  -2.076   6.511  0.00  0.00    -0.023 A 
ATOM      6  C   UNL     1      -0.475  -1.400   6.700  0.00  0.00    -0.004 A 
ATOM      7  S   UNL     1      -1.612  -2.081   5.519  0.00  0.00    -0.073 S 
ATOM      8  C   UNL     1      -0.539  -3.269   4.776  0.00  0.00    +0.117 A 
ATOM      9  N   UNL     1      -0.716  -4.153   3.802  0.00  0.00    -0.215 NA
ATOM     10  C   UNL     1       0.320  -4.914   3.476  0.00  0.00    +0.178 A 
ATOM     11  C   UNL     1      -0.736  -0.310   7.694  0.00  0.00    +0.043 C 
ATOM     12  C   UNL     1       0.396  -0.315   8.730  0.00  0.00    +0.005 C 
ATOM     13  C   UNL     1       1.736  -0.381   7.991  0.00  0.00    +0.005 C 
ATOM     14  C   UNL     1       1.911  -1.762   7.357  0.00  0.00    +0.037 C 
ENDROOT
BRANCH   1  19
ATOM     15  C   UNL     1       5.726  -8.249   2.422  0.00  0.00    +0.044 C 
ATOM     16  C   UNL     1       4.612  -7.337   2.866  0.00  0.00    -0.050 A 
ATOM     17  C   UNL     1       4.464  -6.092   2.283  0.00  0.00    +0.005 A 
ATOM     18  C   UNL     1       3.444  -5.254   2.689  0.00  0.00    +0.026 A 
ATOM     19  C   UNL     1       2.566  -5.663   3.683  0.00  0.00    +0.052 A 
ATOM     20  C   UNL     1       2.720  -6.912   4.271  0.00  0.00    +0.026 A 
ATOM     21  C   UNL     1       3.738  -7.747   3.857  0.00  0.00    +0.005 A 
ENDBRANCH   1  19
BRANCH  10  22
ATOM     22  S   UNL     1       0.126  -6.100   2.188  0.00  0.00    -0.078 S 
BRANCH  22  23
ATOM     23  C   UNL     1      -1.604  -5.803   1.744  0.00  0.00    +0.174 C 
BRANCH  23  24
ATOM     24  C   UNL     1      -2.003  -6.732   0.628  0.00  0.00    +0.242 C 
ATOM     25  O   UNL     1      -1.198  -7.519   0.176  0.00  0.00    -0.273 OA
ATOM     26  N   UNL     1      -3.256  -6.690   0.131  0.00  0.00    -0.206 N 
ATOM     27  H   UNL     1      -3.961  -5.923   0.483  0.00  0.00    +0.177 HD
BRANCH  26  28
ATOM     28  N   UNL     1      -3.659  -7.623  -0.832  0.00  0.00    -0.188 NA
ATOM     29  C   UNL     1      -4.823  -7.513  -1.395  0.00  0.00    +0.139 C 
BRANCH  29  30
ATOM     30  C   UNL     1      -5.629  -6.296  -1.189  0.00  0.00    +0.013 A 
ATOM     31  C   UNL     1      -5.003  -5.078  -0.912  0.00  0.00    +0.011 A 
ATOM     32  C   UNL     1      -5.763  -3.942  -0.727  0.00  0.00    +0.001 A 
ATOM     33  C   UNL     1      -7.144  -4.008  -0.803  0.00  0.00    +0.001 A 
ATOM     34  C   UNL     1      -7.772  -5.211  -1.071  0.00  0.00    +0.020 A 
ATOM     35  C   UNL     1      -7.024  -6.356  -1.264  0.00  0.00    +0.050 A 
ATOM     36 CL   UNL     1      -7.813  -7.865  -1.600  0.00  0.00    -0.083 Cl
ENDBRANCH  29  30
ENDBRANCH  26  28
ENDBRANCH  23  24
ENDBRANCH  22  23
ENDBRANCH  10  22
TORSDOF 6
