REMARK  Name = ZINC39762084
REMARK  13 active torsions:
REMARK  status: ('A' for Active; 'I' for Inactive)
REMARK    1  A    between atoms: C_1  and  C_2
REMARK    2  A    between atoms: C_2  and  N_3
REMARK    3  A    between atoms: C_4  and  C_22
REMARK    4  A    between atoms: C_7  and  S_8
REMARK    5  A    between atoms: S_8  and  C_9
REMARK    6  A    between atoms: C_9  and  C_10
REMARK    7  A    between atoms: C_10  and  C_12
REMARK    8  A    between atoms: C_16  and  N_18
REMARK    9  A    between atoms: C_22  and  C_23
REMARK   10  A    between atoms: N_25  and  C_26
REMARK   11  A    between atoms: C_31  and  C_32
REMARK   12  A    between atoms: C_32  and  C_33
REMARK   13  A    between atoms: C_32  and  C_34
REMARK                            x       y       z     vdW  Elec       q    Type
REMARK                         _______ _______ _______ _____ _____    ______ ____
ROOT
ATOM      1  N   UNL     1       0.682  -0.464  -1.188  0.00  0.00    -0.306 N 
ATOM      2  C   UNL     1       0.120  -0.744  -2.402  0.00  0.00    +0.143 A 
ATOM      3  N   UNL     1       1.077  -1.145  -3.190  0.00  0.00    -0.133 NA
ATOM      4  N   UNL     1       2.198  -1.139  -2.561  0.00  0.00    -0.122 NA
ATOM      5  C   UNL     1       2.015  -0.724  -1.328  0.00  0.00    +0.192 A 
ENDROOT
BRANCH   1   7
ATOM      6  C   UNL     1      -0.020   1.550   0.009  0.00  0.00    +0.027 C 
ATOM      7  C   UNL     1      -0.003   0.020   0.014  0.00  0.00    +0.122 C 
ENDBRANCH   1   7
BRANCH   5   8
ATOM      8  S   UNL     1       3.255  -0.540  -0.090  0.00  0.00    -0.078 S 
BRANCH   8   9
ATOM      9  C   UNL     1       4.785  -1.047  -0.922  0.00  0.00    +0.157 C 
BRANCH   9  10
ATOM     10  C   UNL     1       5.940  -0.936   0.039  0.00  0.00    +0.173 C 
ATOM     11  O   UNL     1       5.750  -0.553   1.174  0.00  0.00    -0.291 OA
BRANCH  10  12
ATOM     12  C   UNL     1       7.298  -1.292  -0.399  0.00  0.00    +0.020 A 
ATOM     13  C   UNL     1       7.522  -1.729  -1.709  0.00  0.00    +0.013 A 
ATOM     14  C   UNL     1       8.798  -2.061  -2.112  0.00  0.00    +0.023 A 
ATOM     15  C   UNL     1       9.857  -1.963  -1.224  0.00  0.00    +0.071 A 
ATOM     16  C   UNL     1       9.642  -1.532   0.075  0.00  0.00    +0.145 A 
ATOM     17  C   UNL     1       8.373  -1.190   0.491  0.00  0.00    +0.045 A 
ATOM     18 CL   UNL     1      11.460  -2.384  -1.741  0.00  0.00    -0.081 Cl
BRANCH  16  19
ATOM     19  N   UNL     1      10.780  -1.431   1.017  0.00  0.00    +0.058 N 
ATOM     20  O   UNL     1      10.594  -1.055   2.151  0.00  0.00    -0.126 OA
ATOM     21  O   UNL     1      11.894  -1.726   0.653  0.00  0.00    -0.126 OA
ENDBRANCH  16  19
ENDBRANCH  10  12
ENDBRANCH   9  10
ENDBRANCH   8   9
ENDBRANCH   5   8
BRANCH   2  22
ATOM     22  C   UNL     1      -1.337  -0.612  -2.764  0.00  0.00    +0.172 C 
BRANCH  22  23
ATOM     23  C   UNL     1      -1.600   0.773  -3.296  0.00  0.00    +0.225 C 
ATOM     24  O   UNL     1      -0.693   1.574  -3.374  0.00  0.00    -0.275 OA
ATOM     25  N   UNL     1      -2.843   1.121  -3.685  0.00  0.00    -0.285 N 
ATOM     26  H   UNL     1      -3.550   0.458  -3.698  0.00  0.00    +0.155 HD
BRANCH  25  27
ATOM     27  C   UNL     1      -3.112   2.439  -4.070  0.00  0.00    +0.037 A 
ATOM     28  C   UNL     1      -2.323   3.478  -3.594  0.00  0.00    +0.023 A 
ATOM     29  C   UNL     1      -2.592   4.777  -3.976  0.00  0.00    +0.002 A 
ATOM     30  C   UNL     1      -3.644   5.045  -4.832  0.00  0.00    +0.000 A 
ATOM     31  C   UNL     1      -4.432   4.013  -5.308  0.00  0.00    +0.006 A 
ATOM     32  C   UNL     1      -4.164   2.710  -4.934  0.00  0.00    -0.024 A 
BRANCH  32  33
ATOM     33  C   UNL     1      -5.018   1.584  -5.460  0.00  0.00    +0.015 C 
ATOM     34  C   UNL     1      -6.488   1.868  -5.141  0.00  0.00    +0.012 C 
ATOM     35  C   UNL     1      -4.838   1.471  -6.975  0.00  0.00    +0.012 C 
ENDBRANCH  32  33
ENDBRANCH  25  27
ENDBRANCH  22  23
ENDBRANCH   2  22
TORSDOF 10
