REMARK  Name = ZINC01302538
REMARK  5 active torsions:
REMARK  status: ('A' for Active; 'I' for Inactive)
REMARK    1  A    between atoms: C_3  and  C_9
REMARK    2  A    between atoms: C_18  and  C_26
REMARK    3  A    between atoms: C_19  and  N_25
REMARK    4  A    between atoms: C_20  and  C_21
REMARK    5  A    between atoms: C_20  and  C_23
REMARK                            x       y       z     vdW  Elec       q    Type
REMARK                         _______ _______ _______ _____ _____    ______ ____
ROOT
ATOM      1  C   UNL     1      -0.736   1.963  -1.246  0.00  0.00    +0.069 C 
ATOM      2  C   UNL     1      -2.121   1.389  -0.946  0.00  0.00    +0.044 C 
ATOM      3  C   UNL     1      -3.011   1.395  -2.169  0.00  0.00    +0.090 C 
ATOM      4  N   UNL     1      -3.934   2.533  -2.170  0.00  0.00    -0.312 NA
ATOM      5  C   UNL     1      -4.803   2.484  -0.981  0.00  0.00    +0.108 C 
ATOM      6  C   UNL     1      -3.922   2.621   0.237  0.00  0.00    -0.007 C 
ATOM      7  C   UNL     1      -2.694   2.136   0.224  0.00  0.00    -0.026 C 
ATOM      8  C   UNL     1      -1.797   2.372   1.383  0.00  0.00    +0.074 C 
ATOM      9  C   UNL     1      -0.462   2.183   1.235  0.00  0.00    +0.054 C 
ATOM     10  C   UNL     1       0.174   1.720  -0.041  0.00  0.00    +0.188 C 
ATOM     11  H   UNL     1      -3.360   3.471  -2.157  0.00  0.00    +0.122 HD
ENDROOT
BRANCH   1  14
ATOM     12  C   UNL     1       0.409  -0.725  -3.637  0.00  0.00    +0.002 A 
ATOM     13  C   UNL     1      -0.116  -0.099  -2.522  0.00  0.00    +0.005 A 
ATOM     14  C   UNL     1      -0.158   1.281  -2.459  0.00  0.00    -0.021 A 
ATOM     15  C   UNL     1       0.335   2.037  -3.508  0.00  0.00    +0.063 A 
ATOM     16  C   UNL     1       0.866   1.409  -4.622  0.00  0.00    +0.060 A 
ATOM     17  C   UNL     1       0.902   0.028  -4.685  0.00  0.00    +0.021 A 
ATOM     18 CL   UNL     1       1.485   2.355  -5.939  0.00  0.00    -0.082 Cl
ATOM     19 CL   UNL     1       0.290   3.770  -3.427  0.00  0.00    -0.082 Cl
ENDBRANCH   1  14
BRANCH   9  20
ATOM     20  N   UNL     1       0.346   2.427   2.310  0.00  0.00    -0.358 N 
ATOM     21  H   UNL     1       1.433   2.284   2.224  0.00  0.00    +0.142 HD
ATOM     22  H   UNL     1      -0.091   2.767   3.260  0.00  0.00    +0.142 HD
ENDBRANCH   9  20
BRANCH  10  23
ATOM     23  C   UNL     1       0.462   0.281   0.061  0.00  0.00    +0.091 C 
ATOM     24  N   UNL     1       0.684  -0.831   0.139  0.00  0.00    -0.194 NA
ENDBRANCH  10  23
BRANCH  10  25
ATOM     25  C   UNL     1       1.437   2.449  -0.238  0.00  0.00    +0.091 C 
ATOM     26  N   UNL     1       2.413   3.012  -0.391  0.00  0.00    -0.194 NA
ENDBRANCH  10  25
BRANCH   8  27
ATOM     27  C   UNL     1      -2.335   2.793   2.641  0.00  0.00    +0.101 C 
ATOM     28  N   UNL     1      -2.762   3.127   3.639  0.00  0.00    -0.191 NA
ENDBRANCH   8  27
TORSDOF 5
