REMARK  Name = ZINC38990418
REMARK  6 active torsions:
REMARK  status: ('A' for Active; 'I' for Inactive)
REMARK    1  A    between atoms: C_4  and  C_7
REMARK    2  A    between atoms: C_9  and  C_13
REMARK    3  A    between atoms: C_17  and  S_21
REMARK    4  A    between atoms: N_19  and  N_20
REMARK    5  A    between atoms: S_21  and  C_22
REMARK    6  A    between atoms: C_22  and  C_23
REMARK                            x       y       z     vdW  Elec       q    Type
REMARK                         _______ _______ _______ _____ _____    ______ ____
ROOT
ATOM      1  C   UNL     1       5.758  -2.993  -1.336  0.00  0.00    +0.185 C 
ATOM      2  N   UNL     1       5.078  -4.311  -1.427  0.00  0.00    -0.234 NA
ATOM      3  N   UNL     1       5.958  -5.120  -2.276  0.00  0.00    -0.228 NA
ATOM      4  C   UNL     1       7.308  -4.530  -2.178  0.00  0.00    +0.214 C 
ATOM      5  N   UNL     1       7.196  -3.363  -1.269  0.00  0.00    -0.197 NA
ATOM      6  H   UNL     1       4.973  -4.728  -0.514  0.00  0.00    +0.143 HD
ATOM      7  H   UNL     1       5.634  -5.125  -3.231  0.00  0.00    +0.143 HD
ENDROOT
BRANCH   1  10
ATOM      8  C   UNL     1       3.692  -0.695  -0.043  0.00  0.00    +0.091 C 
ATOM      9  C   UNL     1       3.827  -2.035  -0.055  0.00  0.00    +0.034 C 
ATOM     10  C   UNL     1       5.330  -2.249  -0.069  0.00  0.00    +0.187 C 
ATOM     11  N   UNL     1       5.865  -0.878  -0.062  0.00  0.00    -0.176 NA
ATOM     12  N   UNL     1       4.912  -0.095  -0.053  0.00  0.00    -0.154 NA
BRANCH   8  16
ATOM     13  C   UNL     1      -0.025   1.370   0.004  0.00  0.00    +0.000 A 
ATOM     14  C   UNL     1       1.160   2.084  -0.005  0.00  0.00    +0.001 A 
ATOM     15  C   UNL     1       2.369   1.419  -0.020  0.00  0.00    +0.010 A 
ATOM     16  C   UNL     1       2.395   0.026  -0.026  0.00  0.00    +0.002 A 
ATOM     17  C   UNL     1       1.199  -0.688  -0.018  0.00  0.00    +0.010 A 
ATOM     18  C   UNL     1      -0.005  -0.013  -0.003  0.00  0.00    +0.001 A 
ENDBRANCH   8  16
ENDBRANCH   1  10
BRANCH   5  19
ATOM     19  N   UNL     1       8.038  -2.265  -1.718  0.00  0.00    -0.264 NA
ATOM     20  H   UNL     1       9.014  -2.516  -1.673  0.00  0.00    +0.137 HD
ATOM     21  H   UNL     1       7.783  -1.972  -2.649  0.00  0.00    +0.137 HD
ENDBRANCH   5  19
BRANCH   4  22
ATOM     22  S   UNL     1       8.469  -5.745  -1.495  0.00  0.00    -0.115 S 
BRANCH  22  23
ATOM     23  C   UNL     1       7.760  -6.172   0.118  0.00  0.00    +0.168 C 
BRANCH  23  24
ATOM     24  C   UNL     1       8.639  -7.188   0.801  0.00  0.00    +0.228 C 
ATOM     25  O   UNL     1       9.646  -7.585   0.252  0.00  0.00    -0.275 OA
ATOM     26  N   UNL     1       8.307  -7.656   2.020  0.00  0.00    -0.270 N 
ATOM     27  C   UNL     1       9.062  -8.672   2.606  0.00  0.00    +0.125 A 
ATOM     28  C   UNL     1       8.653  -9.223   3.816  0.00  0.00    +0.045 A 
ATOM     29  C   UNL     1       9.410 -10.231   4.386  0.00  0.00    +0.025 A 
ATOM     30  C   UNL     1      10.556 -10.655   3.725  0.00  0.00    +0.059 A 
ATOM     31  C   UNL     1      10.902 -10.062   2.525  0.00  0.00    +0.132 A 
ATOM     32  N   UNL     1      10.156  -9.107   2.003  0.00  0.00    -0.239 NA
ATOM     33 CL   UNL     1      11.541 -11.915   4.397  0.00  0.00    -0.082 Cl
ATOM     34  H   UNL     1       7.544  -7.286   2.491  0.00  0.00    +0.156 HD
ENDBRANCH  23  24
ENDBRANCH  22  23
ENDBRANCH   4  22
TORSDOF 6
