REMARK  Name = ZINC27016023
REMARK  10 active torsions:
REMARK  status: ('A' for Active; 'I' for Inactive)
REMARK    1  A    between atoms: C_1  and  C_2
REMARK    2  A    between atoms: C_5  and  C_8
REMARK    3  A    between atoms: C_9  and  N_26
REMARK    4  A    between atoms: N_13  and  N_14
REMARK    5  A    between atoms: C_15  and  C_16
REMARK    6  A    between atoms: C_19  and  C_22
REMARK    7  A    between atoms: C_22  and  C_23
REMARK    8  A    between atoms: C_22  and  C_24
REMARK    9  A    between atoms: C_22  and  C_25
REMARK   10  A    between atoms: C_27  and  C_29
REMARK                            x       y       z     vdW  Elec       q    Type
REMARK                         _______ _______ _______ _____ _____    ______ ____
ROOT
ATOM      1  C   UNL     1      -1.407  -2.076   0.004  0.00  0.00    +0.102 A 
ATOM      2  C   UNL     1      -1.195  -0.717   0.010  0.00  0.00    +0.101 A 
ATOM      3  S   UNL     1      -2.879  -0.118   0.037  0.00  0.00    -0.035 S 
ATOM      4  C   UNL     1      -3.688  -1.711   0.029  0.00  0.00    +0.180 A 
ATOM      5  N   UNL     1      -2.657  -2.535   0.014  0.00  0.00    -0.222 NA
ATOM      6  N   UNL     1      -5.042  -2.005   0.041  0.00  0.00    -0.215 N 
ATOM      7  H   UNL     1      -5.378  -3.053   0.038  0.00  0.00    +0.176 HD
ENDROOT
BRANCH   1  12
ATOM      8  C   UNL     1       3.045  -5.725  -0.062  0.00  0.00    +0.044 C 
ATOM      9  C   UNL     1       1.880  -4.770  -0.044  0.00  0.00    -0.050 A 
ATOM     10  C   UNL     1       0.731  -5.097   0.654  0.00  0.00    +0.004 A 
ATOM     11  C   UNL     1      -0.339  -4.226   0.674  0.00  0.00    +0.010 A 
ATOM     12  C   UNL     1      -0.262  -3.014  -0.013  0.00  0.00    +0.003 A 
ATOM     13  C   UNL     1       0.897  -2.693  -0.720  0.00  0.00    +0.010 A 
ATOM     14  C   UNL     1       1.963  -3.569  -0.727  0.00  0.00    +0.004 A 
ENDBRANCH   1  12
BRANCH   2  15
ATOM     15  N   UNL     1       0.002  -0.004   0.002  0.00  0.00    -0.272 N 
ATOM     16  C   UNL     1      -0.016   1.344   0.009  0.00  0.00    +0.284 C 
ATOM     17  O   UNL     1      -1.079   1.938   0.018  0.00  0.00    -0.266 OA
ATOM     18  H   UNL     1       0.962  -0.541  -0.010  0.00  0.00    +0.156 HD
BRANCH  16  19
ATOM     19  C   UNL     1       1.243   2.094   0.001  0.00  0.00    +0.189 A 
ATOM     20  C   UNL     1       1.367   3.454   0.008  0.00  0.00    +0.054 A 
ATOM     21  C   UNL     1       2.743   3.734  -0.004  0.00  0.00    +0.042 A 
ATOM     22  C   UNL     1       3.390   2.547  -0.017  0.00  0.00    +0.196 A 
ATOM     23  O   UNL     1       2.483   1.562  -0.007  0.00  0.00    -0.458 OA
ENDBRANCH  16  19
ENDBRANCH   2  15
BRANCH   6  24
ATOM     24  N   UNL     1      -5.984  -0.968   0.056  0.00  0.00    -0.188 NA
ATOM     25  C   UNL     1      -7.253  -1.243   0.067  0.00  0.00    +0.138 C 
BRANCH  25  26
ATOM     26  C   UNL     1      -8.244  -0.152   0.083  0.00  0.00    -0.005 A 
ATOM     27  C   UNL     1      -7.821   1.180   0.091  0.00  0.00    +0.010 A 
ATOM     28  C   UNL     1      -8.754   2.196   0.101  0.00  0.00    +0.005 A 
ATOM     29  C   UNL     1     -10.105   1.899   0.113  0.00  0.00    -0.042 A 
ATOM     30  C   UNL     1     -10.531   0.582   0.110  0.00  0.00    +0.005 A 
ATOM     31  C   UNL     1      -9.610  -0.444   0.095  0.00  0.00    +0.010 A 
BRANCH  29  32
ATOM     32  C   UNL     1     -11.118   3.014   0.130  0.00  0.00    -0.013 C 
ATOM     33  C   UNL     1     -11.982   2.900   1.388  0.00  0.00    +0.015 C 
ATOM     34  C   UNL     1     -10.393   4.362   0.131  0.00  0.00    +0.015 C 
ATOM     35  C   UNL     1     -12.008   2.914  -1.110  0.00  0.00    +0.015 C 
ENDBRANCH  29  32
ENDBRANCH  25  26
ENDBRANCH   6  24
TORSDOF 6
