REMARK  Name = ZINC39676420
REMARK  5 active torsions:
REMARK  status: ('A' for Active; 'I' for Inactive)
REMARK    1  A    between atoms: C_3  and  C_8
REMARK    2  A    between atoms: C_12  and  C_21
REMARK    3  A    between atoms: N_23  and  C_24
REMARK    4  A    between atoms: C_24  and  C_25
REMARK    5  A    between atoms: C_25  and  C_26
REMARK                            x       y       z     vdW  Elec       q    Type
REMARK                         _______ _______ _______ _____ _____    ______ ____
ROOT
ATOM      1  C   UNL     1       3.655   2.161  -0.022  0.00  0.00    +0.247 C 
ATOM      2  O   UNL     1       3.642   3.372  -0.124  0.00  0.00    -0.270 OA
ATOM      3  N   UNL     1       4.829   1.504   0.065  0.00  0.00    -0.296 N 
ATOM      4  C   UNL     1       5.053   0.040   0.066  0.00  0.00    +0.121 C 
ATOM      5  C   UNL     1       6.328  -0.161  -0.783  0.00  0.00    +0.100 C 
ATOM      6  C   UNL     1       7.069   1.184  -0.702  0.00  0.00    -0.004 C 
ATOM      7  C   UNL     1       6.189   2.085   0.176  0.00  0.00    +0.115 C 
ATOM      8  C   UNL     1       7.215   1.792  -2.093  0.00  0.00    -0.010 C 
ATOM      9  C   UNL     1       8.005   3.100  -1.993  0.00  0.00    -0.082 C 
ATOM     10  N   UNL     1       9.327   2.833  -1.413  0.00  0.00    +0.379 N 
ATOM     11  C   UNL     1       9.180   2.335  -0.040  0.00  0.00    -0.082 C 
ATOM     12  C   UNL     1       8.439   0.994  -0.058  0.00  0.00    -0.010 C 
ATOM     13  H   UNL     1       9.804   2.141  -1.971  0.00  0.00    -0.086 HD
ATOM     14  H   UNL     1       9.868   3.685  -1.404  0.00  0.00    -0.086 HD
ENDROOT
BRANCH   1  17
ATOM     15  C   UNL     1       1.136  -0.546   0.636  0.00  0.00    +0.002 A 
ATOM     16  C   UNL     1       2.325   0.152   0.613  0.00  0.00    +0.013 A 
ATOM     17  C   UNL     1       2.383   1.407   0.005  0.00  0.00    +0.038 A 
ATOM     18  C   UNL     1       1.235   1.949  -0.575  0.00  0.00    +0.033 A 
ATOM     19  C   UNL     1       0.051   1.240  -0.545  0.00  0.00    +0.042 A 
ATOM     20  C   UNL     1       0.001  -0.005   0.060  0.00  0.00    +0.020 A 
ATOM     21 CL   UNL     1      -1.379   1.911  -1.266  0.00  0.00    -0.084 Cl
ENDBRANCH   1  17
BRANCH   5  22
ATOM     22  C   UNL     1       7.175  -1.266  -0.205  0.00  0.00    +0.218 C 
ATOM     23  O   UNL     1       7.091  -1.540   0.973  0.00  0.00    -0.275 OA
ATOM     24  N   UNL     1       8.025  -1.948  -0.998  0.00  0.00    -0.315 N 
ATOM     25  H   UNL     1       8.092  -1.728  -1.940  0.00  0.00    +0.149 HD
BRANCH  24  26
ATOM     26  C   UNL     1       8.848  -3.022  -0.436  0.00  0.00    +0.109 C 
BRANCH  26  27
ATOM     27  C   UNL     1       9.718  -3.628  -1.540  0.00  0.00    +0.056 C 
BRANCH  27  28
ATOM     28  C   UNL     1      10.565  -4.733  -0.962  0.00  0.00    -0.021 A 
ATOM     29  C   UNL     1      10.166  -6.130  -0.776  0.00  0.00    +0.004 A 
ATOM     30  C   UNL     1       8.998  -6.848  -1.039  0.00  0.00    +0.030 A 
ATOM     31  C   UNL     1       8.942  -8.191  -0.739  0.00  0.00    +0.042 A 
ATOM     32  C   UNL     1      10.040  -8.832  -0.179  0.00  0.00    +0.022 A 
ATOM     33  C   UNL     1      11.199  -8.136   0.086  0.00  0.00    +0.027 A 
ATOM     34  C   UNL     1      11.277  -6.780  -0.209  0.00  0.00    +0.047 A 
ATOM     35  N   UNL     1      12.270  -5.835  -0.066  0.00  0.00    -0.360 N 
ATOM     36  C   UNL     1      11.829  -4.624  -0.525  0.00  0.00    +0.087 A 
ATOM     37 CL   UNL     1       7.492  -9.089  -1.064  0.00  0.00    -0.084 Cl
ATOM     38  H   UNL     1      13.151  -6.004   0.302  0.00  0.00    +0.165 HD
ENDBRANCH  27  28
ENDBRANCH  26  27
ENDBRANCH  24  26
ENDBRANCH   5  22
TORSDOF 5
