REMARK  Name = ZINC08694320
REMARK  10 active torsions:
REMARK  status: ('A' for Active; 'I' for Inactive)
REMARK    1  A    between atoms: C_1  and  C_2
REMARK    2  A    between atoms: C_5  and  S_8
REMARK    3  A    between atoms: S_8  and  N_11
REMARK    4  A    between atoms: N_28  and  S_29
REMARK    5  A    between atoms: S_29  and  C_32
REMARK    6  A    between atoms: C_35  and  C_38
REMARK    7  A    between atoms: C_39  and  C_40
REMARK    8  A    between atoms: C_39  and  N_72
REMARK    9  A    between atoms: C_40  and  C_41
REMARK   10  A    between atoms: C_41  and  C_42
REMARK                            x       y       z     vdW  Elec       q    Type
REMARK                         _______ _______ _______ _____ _____    ______ ____
ROOT
ATOM      1  N   UNL     1      -0.815   1.786  -1.435  0.00  0.00    -0.212 N 
ATOM      2  C   UNL     1      -0.578   2.990  -2.110  0.00  0.00    +0.053 A 
ATOM      3  C   UNL     1       0.246   3.951  -1.542  0.00  0.00    +0.025 A 
ATOM      4  C   UNL     1       0.483   5.137  -2.209  0.00  0.00    +0.002 A 
ATOM      5  C   UNL     1      -0.103   5.364  -3.442  0.00  0.00    +0.000 A 
ATOM      6  C   UNL     1      -0.925   4.409  -4.008  0.00  0.00    +0.005 A 
ATOM      7  C   UNL     1      -1.168   3.219  -3.345  0.00  0.00    -0.020 A 
ATOM      8  C   UNL     1      -2.067   2.188  -3.975  0.00  0.00    +0.080 C 
ATOM      9  C   UNL     1      -1.902   0.922  -1.926  0.00  0.00    +0.080 C 
ATOM     10  C   UNL     1      -3.224   1.517  -1.518  0.00  0.00    -0.020 A 
ATOM     11  C   UNL     1      -3.712   1.286  -0.245  0.00  0.00    +0.005 A 
ATOM     12  C   UNL     1      -4.923   1.826   0.143  0.00  0.00    +0.000 A 
ATOM     13  C   UNL     1      -5.655   2.601  -0.738  0.00  0.00    +0.002 A 
ATOM     14  C   UNL     1      -5.175   2.837  -2.011  0.00  0.00    +0.025 A 
ATOM     15  C   UNL     1      -3.958   2.295  -2.403  0.00  0.00    +0.053 A 
ATOM     16  N   UNL     1      -3.470   2.536  -3.693  0.00  0.00    -0.212 N 
ATOM     17  N   UNL     1      -1.826   0.849  -3.396  0.00  0.00    +0.412 N 
ATOM     18  H   UNL     1      -2.546   0.202  -3.737  0.00  0.00    -0.075 HD
ENDROOT
BRANCH   1  19
ATOM     19  S   UNL     1       0.104   1.344  -0.130  0.00  0.00    +0.074 S 
ATOM     20  O   UNL     1      -0.097  -0.051   0.054  0.00  0.00    -0.150 OA
ATOM     21  O   UNL     1       1.392   1.908  -0.331  0.00  0.00    -0.150 OA
BRANCH  19  26
ATOM     22  C   UNL     1      -2.242   4.079   4.710  0.00  0.00    +0.044 C 
ATOM     23  C   UNL     1      -1.656   3.396   3.501  0.00  0.00    -0.050 A 
ATOM     24  C   UNL     1      -2.103   2.141   3.132  0.00  0.00    +0.005 A 
ATOM     25  C   UNL     1      -1.566   1.514   2.023  0.00  0.00    +0.029 A 
ATOM     26  C   UNL     1      -0.581   2.143   1.283  0.00  0.00    +0.109 A 
ATOM     27  C   UNL     1      -0.130   3.395   1.656  0.00  0.00    +0.029 A 
ATOM     28  C   UNL     1      -0.670   4.024   2.762  0.00  0.00    +0.005 A 
ENDBRANCH  19  26
ENDBRANCH   1  19
BRANCH  16  29
ATOM     29  S   UNL     1      -4.442   3.182  -4.867  0.00  0.00    +0.074 S 
ATOM     30  O   UNL     1      -3.809   2.915  -6.111  0.00  0.00    -0.150 OA
ATOM     31  O   UNL     1      -5.766   2.755  -4.579  0.00  0.00    -0.150 OA
BRANCH  29  32
ATOM     32  C   UNL     1      -4.420   4.931  -4.657  0.00  0.00    +0.109 A 
ATOM     33  C   UNL     1      -5.356   5.541  -3.843  0.00  0.00    +0.029 A 
ATOM     34  C   UNL     1      -5.337   6.913  -3.675  0.00  0.00    +0.005 A 
ATOM     35  C   UNL     1      -4.387   7.676  -4.328  0.00  0.00    -0.050 A 
ATOM     36  C   UNL     1      -3.454   7.067  -5.146  0.00  0.00    +0.005 A 
ATOM     37  C   UNL     1      -3.471   5.694  -5.311  0.00  0.00    +0.029 A 
ATOM     38  C   UNL     1      -4.368   9.172  -4.148  0.00  0.00    +0.044 C 
ENDBRANCH  29  32
ENDBRANCH  16  29
BRANCH  17  39
ATOM     39  C   UNL     1      -0.496   0.351  -3.808  0.00  0.00    -0.072 C 
BRANCH  39  40
ATOM     40  C   UNL     1      -0.365  -1.115  -3.391  0.00  0.00    -0.007 C 
BRANCH  40  41
ATOM     41  C   UNL     1       1.000  -1.650  -3.827  0.00  0.00    +0.123 C 
BRANCH  41  42
ATOM     42  C   UNL     1       1.129  -3.094  -3.417  0.00  0.00    +0.356 C 
ATOM     43  O   UNL     1       0.222  -3.640  -2.834  0.00  0.00    -0.246 OA
ATOM     44  O   UNL     1       2.252  -3.774  -3.697  0.00  0.00    -0.246 OA
ENDBRANCH  41  42
ENDBRANCH  40  41
ENDBRANCH  39  40
ENDBRANCH  17  39
TORSDOF 8
