REMARK  Name = ZINC22327810
REMARK  7 active torsions:
REMARK  status: ('A' for Active; 'I' for Inactive)
REMARK    1  A    between atoms: C_1  and  C_2
REMARK    2  A    between atoms: C_2  and  C_3
REMARK    3  A    between atoms: C_3  and  C_5
REMARK    4  A    between atoms: C_3  and  N_12
REMARK    5  A    between atoms: C_13  and  C_15
REMARK    6  A    between atoms: C_18  and  C_21
REMARK    7  A    between atoms: C_21  and  N_22
REMARK                            x       y       z     vdW  Elec       q    Type
REMARK                         _______ _______ _______ _____ _____    ______ ____
ROOT
ATOM      1  N   UNL     1       2.065   1.683  -1.260  0.00  0.00    -0.305 N 
ATOM      2  C   UNL     1       2.647   0.475  -1.388  0.00  0.00    +0.245 C 
ATOM      3  O   UNL     1       2.634  -0.307  -0.457  0.00  0.00    -0.270 OA
ATOM      4  H   UNL     1       2.076   2.391  -2.103  0.00  0.00    +0.150 HD
ENDROOT
BRANCH   2   5
ATOM      5  C   UNL     1       3.301   0.099  -2.659  0.00  0.00    +0.037 A 
ATOM      6  C   UNL     1       3.313   0.992  -3.732  0.00  0.00    +0.013 A 
ATOM      7  C   UNL     1       3.929   0.638  -4.914  0.00  0.00    +0.006 A 
ATOM      8  C   UNL     1       4.526  -0.604  -5.041  0.00  0.00    -0.030 A 
ATOM      9  C   UNL     1       4.513  -1.496  -3.984  0.00  0.00    +0.006 A 
ATOM     10  C   UNL     1       3.905  -1.152  -2.794  0.00  0.00    +0.013 A 
BRANCH   8  11
ATOM     11  C   UNL     1       5.193  -0.986  -6.337  0.00  0.00    +0.141 C 
BRANCH  11  12
ATOM     12  N   UNL     1       4.218  -1.637  -7.216  0.00  0.00    -0.295 N 
ATOM     13  C   UNL     1       4.592  -2.067  -8.437  0.00  0.00    +0.297 C 
ATOM     14  O   UNL     1       5.739  -1.915  -8.810  0.00  0.00    -0.253 OA
ATOM     15  N   UNL     1       3.694  -2.665  -9.245  0.00  0.00    -0.313 N 
ATOM     16  H   UNL     1       3.180  -1.774  -6.878  0.00  0.00    +0.151 HD
ATOM     17  H   UNL     1       3.999  -3.016 -10.242  0.00  0.00    +0.146 HD
ATOM     18  H   UNL     1       2.656  -2.802  -8.908  0.00  0.00    +0.146 HD
ENDBRANCH  11  12
ENDBRANCH   8  11
ENDBRANCH   2   5
BRANCH   1  19
ATOM     19  C   UNL     1       1.417   2.055  -0.000  0.00  0.00    +0.103 C 
BRANCH  19  20
ATOM     20  C   UNL     1       1.399   3.557   0.132  0.00  0.00    -0.027 A 
ATOM     21  C   UNL     1       1.142   4.345  -0.975  0.00  0.00    +0.007 A 
ATOM     22  C   UNL     1       1.121   5.721  -0.853  0.00  0.00    +0.020 A 
ATOM     23  C   UNL     1       1.367   6.311   0.374  0.00  0.00    +0.041 A 
ATOM     24  C   UNL     1       1.630   5.522   1.480  0.00  0.00    +0.020 A 
ATOM     25  C   UNL     1       1.646   4.145   1.358  0.00  0.00    +0.007 A 
ATOM     26 CL   UNL     1       1.348   8.040   0.526  0.00  0.00    -0.084 Cl
ENDBRANCH  19  20
BRANCH  19  28
ATOM     27  C   UNL     1       0.002  -0.004   0.002  0.00  0.00    +0.006 C 
ATOM     28  C   UNL     1      -0.019   1.526   0.010  0.00  0.00    +0.024 C 
ENDBRANCH  19  28
ENDBRANCH   1  19
TORSDOF 6
