REMARK  Name = ZINC21731240
REMARK  7 active torsions:
REMARK  status: ('A' for Active; 'I' for Inactive)
REMARK    1  A    between atoms: C_1  and  C_2
REMARK    2  A    between atoms: C_3  and  N_9
REMARK    3  A    between atoms: C_13  and  S_15
REMARK    4  A    between atoms: S_15  and  C_16
REMARK    5  A    between atoms: C_16  and  C_18
REMARK    6  A    between atoms: C_16  and  C_19
REMARK    7  A    between atoms: C_22  and  C_24
REMARK                            x       y       z     vdW  Elec       q    Type
REMARK                         _______ _______ _______ _____ _____    ______ ____
ROOT
ATOM      1  N   UNL     1      -7.371  10.204  -1.690  0.00  0.00    -0.292 N 
ATOM      2  C   UNL     1      -6.674   9.050  -1.347  0.00  0.00    +0.187 A 
ATOM      3  N   UNL     1      -5.867   8.833  -0.327  0.00  0.00    -0.125 NA
ATOM      4  N   UNL     1      -5.279   7.599  -0.169  0.00  0.00    -0.133 NA
ATOM      5  C   UNL     1      -5.517   6.643  -1.046  0.00  0.00    +0.161 A 
ATOM      6  S   UNL     1      -6.635   7.465  -2.171  0.00  0.00    -0.024 S 
ATOM      7  H   UNL     1      -8.085  10.187  -2.526  0.00  0.00    +0.154 HD
ENDROOT
BRANCH   1  10
ATOM      8  C   UNL     1      -9.105  12.403  -2.192  0.00  0.00    +0.047 C 
ATOM      9  C   UNL     1      -7.986  12.483  -1.186  0.00  0.00    -0.011 A 
ATOM     10  C   UNL     1      -7.163  11.384  -0.972  0.00  0.00    +0.037 A 
ATOM     11  C   UNL     1      -6.137  11.460  -0.038  0.00  0.00    +0.023 A 
ATOM     12  C   UNL     1      -5.930  12.630   0.666  0.00  0.00    +0.003 A 
ATOM     13  C   UNL     1      -6.751  13.722   0.452  0.00  0.00    +0.020 A 
ATOM     14  C   UNL     1      -7.778  13.649  -0.474  0.00  0.00    +0.046 A 
ATOM     15 CL   UNL     1      -8.805  15.023  -0.740  0.00  0.00    -0.083 Cl
ENDBRANCH   1  10
BRANCH   5  16
ATOM     16  S   UNL     1      -4.901   4.992  -1.092  0.00  0.00    -0.084 S 
BRANCH  16  17
ATOM     17  C   UNL     1      -3.828   4.884   0.366  0.00  0.00    +0.138 C 
ATOM     18  C   UNL     1      -4.671   5.034   1.633  0.00  0.00    +0.029 C 
BRANCH  17  19
ATOM     19  C   UNL     1      -3.133   3.546   0.380  0.00  0.00    +0.231 A 
ATOM     20  N   UNL     1      -3.687   2.389   0.148  0.00  0.00    -0.111 NA
ATOM     21  N   UNL     1      -2.801   1.461   0.244  0.00  0.00    -0.107 NA
ATOM     22  C   UNL     1      -1.642   1.999   0.541  0.00  0.00    +0.248 A 
ATOM     23  O   UNL     1      -1.832   3.330   0.638  0.00  0.00    -0.419 OA
BRANCH  22  24
ATOM     24  C   UNL     1      -0.366   1.279   0.740  0.00  0.00    +0.038 A 
ATOM     25  C   UNL     1       0.797   1.986   1.049  0.00  0.00    +0.013 A 
ATOM     26  C   UNL     1       1.986   1.308   1.228  0.00  0.00    +0.001 A 
ATOM     27  C   UNL     1       2.026  -0.069   1.101  0.00  0.00    +0.000 A 
ATOM     28  C   UNL     1       0.877  -0.775   0.794  0.00  0.00    +0.001 A 
ATOM     29  C   UNL     1      -0.318  -0.110   0.613  0.00  0.00    +0.013 A 
ENDBRANCH  22  24
ENDBRANCH  17  19
ENDBRANCH  16  17
ENDBRANCH   5  16
TORSDOF 5
