REMARK  Name = ZINC00886044
REMARK  11 active torsions:
REMARK  status: ('A' for Active; 'I' for Inactive)
REMARK    1  A    between atoms: C_1  and  O_2
REMARK    2  A    between atoms: O_2  and  C_3
REMARK    3  A    between atoms: C_6  and  C_9
REMARK    4  A    between atoms: N_12  and  C_14
REMARK    5  A    between atoms: C_14  and  C_15
REMARK    6  A    between atoms: N_17  and  C_18
REMARK    7  A    between atoms: N_17  and  C_24
REMARK    8  A    between atoms: C_18  and  C_19
REMARK    9  A    between atoms: C_24  and  C_26
REMARK   10  A    between atoms: C_24  and  C_33
REMARK   11  A    between atoms: N_35  and  C_36
REMARK                            x       y       z     vdW  Elec       q    Type
REMARK                         _______ _______ _______ _____ _____    ______ ____
ROOT
ATOM      1  C   UNL     1       5.539  -5.297  -5.450  0.00  0.00    +0.240 C 
ATOM      2  O   UNL     1       6.517  -4.808  -4.926  0.00  0.00    -0.273 OA
ATOM      3  N   UNL     1       5.645  -6.460  -6.123  0.00  0.00    -0.279 N 
ENDROOT
BRANCH   1   4
ATOM      4  C   UNL     1       4.205  -4.604  -5.349  0.00  0.00    +0.264 C 
BRANCH   4   8
ATOM      5  C   UNL     1       4.426  -2.014  -2.963  0.00  0.00    +0.205 A 
ATOM      6  N   UNL     1       4.689  -1.355  -4.101  0.00  0.00    -0.108 NA
ATOM      7  N   UNL     1       4.636  -2.213  -5.062  0.00  0.00    -0.045 NA
ATOM      8  N   UNL     1       4.353  -3.370  -4.573  0.00  0.00    -0.154 N 
ATOM      9  N   UNL     1       4.226  -3.274  -3.295  0.00  0.00    -0.130 NA
BRANCH   5  13
ATOM     10  C   UNL     1       4.284  -0.363   0.955  0.00  0.00    +0.120 A 
ATOM     11  C   UNL     1       4.565   0.454  -0.131  0.00  0.00    +0.046 A 
ATOM     12  C   UNL     1       4.612  -0.078  -1.403  0.00  0.00    +0.015 A 
ATOM     13  C   UNL     1       4.377  -1.438  -1.596  0.00  0.00    +0.023 A 
ATOM     14  C   UNL     1       4.095  -2.256  -0.504  0.00  0.00    +0.015 A 
ATOM     15  C   UNL     1       4.055  -1.719   0.766  0.00  0.00    +0.046 A 
BRANCH  10  17
ATOM     16  C   UNL     1       4.484   1.567   2.329  0.00  0.00    +0.277 C 
ATOM     17  O   UNL     1       4.238   0.164   2.207  0.00  0.00    -0.495 OA
ENDBRANCH  10  17
ENDBRANCH   5  13
ENDBRANCH   4   8
ENDBRANCH   1   4
BRANCH   3  18
ATOM     18  C   UNL     1       4.463  -7.051  -6.756  0.00  0.00    +0.151 C 
BRANCH  18  19
ATOM     19  C   UNL     1       4.201  -6.363  -8.071  0.00  0.00    +0.007 A 
ATOM     20  C   UNL     1       4.541  -6.757  -9.323  0.00  0.00    +0.013 A 
ATOM     21  C   UNL     1       4.192  -5.958 -10.395  0.00  0.00    +0.008 A 
ATOM     22  C   UNL     1       3.521  -4.803 -10.164  0.00  0.00    +0.045 A 
ATOM     23  S   UNL     1       3.356  -4.822  -8.386  0.00  0.00    -0.100 S 
ENDBRANCH  18  19
ENDBRANCH   3  18
BRANCH   3  24
ATOM     24  C   UNL     1       6.942  -7.134  -6.222  0.00  0.00    +0.193 C 
BRANCH  24  25
ATOM     25  C   UNL     1       7.277  -7.776  -4.900  0.00  0.00    -0.018 A 
ATOM     26  C   UNL     1       6.277  -8.359  -4.143  0.00  0.00    +0.009 A 
ATOM     27  C   UNL     1       6.583  -8.948  -2.931  0.00  0.00    +0.038 A 
ATOM     28  C   UNL     1       7.890  -8.955  -2.475  0.00  0.00    +0.123 A 
ATOM     29  C   UNL     1       8.890  -8.371  -3.234  0.00  0.00    +0.038 A 
ATOM     30  C   UNL     1       8.583  -7.787  -4.449  0.00  0.00    +0.009 A 
ATOM     31  F   UNL     1       8.190  -9.531  -1.290  0.00  0.00    -0.205 F 
ENDBRANCH  24  25
BRANCH  24  32
ATOM     32  C   UNL     1       6.879  -8.192  -7.293  0.00  0.00    +0.238 C 
ATOM     33  O   UNL     1       5.922  -8.246  -8.036  0.00  0.00    -0.273 OA
ATOM     34  N   UNL     1       7.885  -9.079  -7.425  0.00  0.00    -0.311 N 
ATOM     35  H   UNL     1       8.650  -9.035  -6.830  0.00  0.00    +0.149 HD
BRANCH  34  36
ATOM     36  C   UNL     1       7.823 -10.107  -8.466  0.00  0.00    +0.073 C 
ATOM     37  C   UNL     1       7.086 -11.354  -7.934  0.00  0.00    +0.022 C 
ATOM     38  C   UNL     1       7.846 -12.545  -8.569  0.00  0.00    +0.002 C 
ATOM     39  C   UNL     1       9.320 -12.072  -8.524  0.00  0.00    +0.002 C 
ATOM     40  C   UNL     1       9.244 -10.564  -8.841  0.00  0.00    +0.022 C 
ENDBRANCH  34  36
ENDBRANCH  24  32
ENDBRANCH   3  24
TORSDOF 10
