REMARK  Name = ZINC38620981
REMARK  10 active torsions:
REMARK  status: ('A' for Active; 'I' for Inactive)
REMARK    1  A    between atoms: C_1  and  C_2
REMARK    2  A    between atoms: C_4  and  S_10
REMARK    3  A    between atoms: C_7  and  O_8
REMARK    4  A    between atoms: O_8  and  C_9
REMARK    5  A    between atoms: S_10  and  N_13
REMARK    6  A    between atoms: N_13  and  C_14
REMARK    7  A    between atoms: C_14  and  C_15
REMARK    8  A    between atoms: C_15  and  C_17
REMARK    9  A    between atoms: C_15  and  N_26
REMARK   10  A    between atoms: N_29  and  C_32
REMARK                            x       y       z     vdW  Elec       q    Type
REMARK                         _______ _______ _______ _____ _____    ______ ____
ROOT
ATOM      1  C   UNL     1       3.749  -4.348  -3.141  0.00  0.00    +0.102 C 
ENDROOT
BRANCH   1   2
ATOM      2  C   UNL     1       4.473  -5.331  -2.257  0.00  0.00    -0.025 A 
ATOM      3  C   UNL     1       5.836  -5.513  -2.401  0.00  0.00    +0.009 A 
ATOM      4  C   UNL     1       6.505  -6.413  -1.593  0.00  0.00    +0.050 A 
ATOM      5  C   UNL     1       5.811  -7.136  -0.636  0.00  0.00    +0.166 A 
ATOM      6  C   UNL     1       4.438  -6.952  -0.492  0.00  0.00    +0.167 A 
ATOM      7  C   UNL     1       3.775  -6.044  -1.302  0.00  0.00    +0.054 A 
ATOM      8  O   UNL     1       3.991  -7.770   0.506  0.00  0.00    -0.453 OA
ATOM      9  C   UNL     1       5.028  -8.751   0.692  0.00  0.00    +0.466 C 
ATOM     10  O   UNL     1       6.224  -8.068   0.271  0.00  0.00    -0.453 OA
ENDBRANCH   1   2
BRANCH   1  11
ATOM     11  N   UNL     1       2.870  -5.077  -4.066  0.00  0.00    -0.291 NA
ATOM     12  C   UNL     1       1.902  -5.902  -3.332  0.00  0.00    +0.104 C 
ATOM     13  C   UNL     1       0.894  -6.500  -4.319  0.00  0.00    +0.120 C 
ATOM     14  N   UNL     1       1.636  -7.204  -5.376  0.00  0.00    -0.325 N 
ATOM     15  C   UNL     1       2.717  -6.483  -6.065  0.00  0.00    +0.120 C 
ATOM     16  C   UNL     1       3.654  -5.886  -5.009  0.00  0.00    +0.104 C 
BRANCH  14  17
ATOM     17  C   UNL     1       1.321  -8.523  -5.718  0.00  0.00    +0.065 A 
ATOM     18  C   UNL     1       0.383  -8.780  -6.709  0.00  0.00    +0.026 A 
ATOM     19  C   UNL     1       0.075 -10.084  -7.044  0.00  0.00    +0.002 A 
ATOM     20  C   UNL     1       0.698 -11.134  -6.394  0.00  0.00    +0.003 A 
ATOM     21  C   UNL     1       1.632 -10.883  -5.406  0.00  0.00    +0.040 A 
ATOM     22  C   UNL     1       1.951  -9.580  -5.069  0.00  0.00    +0.144 A 
ATOM     23  F   UNL     1       2.868  -9.334  -4.108  0.00  0.00    -0.204 F 
ENDBRANCH  14  17
ENDBRANCH   1  11
BRANCH   1  24
ATOM     24  C   UNL     1       2.909  -3.407  -2.275  0.00  0.00    +0.129 C 
BRANCH  24  25
ATOM     25  N   UNL     1       2.114  -2.530  -3.138  0.00  0.00    -0.188 NA
ATOM     26  H   UNL     1       2.328  -2.452  -4.080  0.00  0.00    +0.148 HD
BRANCH  25  27
ATOM     27  S   UNL     1       0.848  -1.671  -2.503  0.00  0.00    +0.058 S 
ATOM     28  O   UNL     1       0.071  -2.591  -1.748  0.00  0.00    -0.153 OA
ATOM     29  O   UNL     1       0.301  -0.906  -3.568  0.00  0.00    -0.153 OA
BRANCH  27  33
ATOM     30  C   UNL     1       2.837   3.019  -1.340  0.00  0.00    +0.047 C 
ATOM     31  C   UNL     1       2.429   1.645  -0.876  0.00  0.00    -0.007 A 
ATOM     32  C   UNL     1       1.899   0.741  -1.777  0.00  0.00    +0.035 A 
ATOM     33  C   UNL     1       1.524  -0.520  -1.352  0.00  0.00    +0.106 A 
ATOM     34  C   UNL     1       1.677  -0.880  -0.026  0.00  0.00    +0.032 A 
ATOM     35  C   UNL     1       2.206   0.020   0.878  0.00  0.00    +0.048 A 
ATOM     36  C   UNL     1       2.589   1.285   0.453  0.00  0.00    +0.123 A 
BRANCH  36  37
ATOM     37  O   UNL     1       3.115   2.170   1.340  0.00  0.00    -0.495 OA
ATOM     38  C   UNL     1       3.251   1.731   2.693  0.00  0.00    +0.277 C 
ENDBRANCH  36  37
ENDBRANCH  27  33
ENDBRANCH  25  27
ENDBRANCH  24  25
ENDBRANCH   1  24
TORSDOF 8
