REMARK  Name = ZINC20157332
REMARK  9 active torsions:
REMARK  status: ('A' for Active; 'I' for Inactive)
REMARK    1  A    between atoms: C_1  and  C_2
REMARK    2  A    between atoms: C_2  and  N_18
REMARK    3  A    between atoms: C_3  and  N_4
REMARK    4  A    between atoms: C_7  and  N_9
REMARK    5  A    between atoms: N_9  and  C_10
REMARK    6  A    between atoms: N_18  and  C_19
REMARK    7  A    between atoms: C_19  and  C_20
REMARK    8  A    between atoms: C_23  and  O_26
REMARK    9  A    between atoms: O_26  and  C_27
REMARK                            x       y       z     vdW  Elec       q    Type
REMARK                         _______ _______ _______ _____ _____    ______ ____
ROOT
ATOM      1  C   UNL     1      -1.764   1.362   0.191  0.00  0.00    +0.060 C 
ATOM      2  C   UNL     1      -1.636  -0.139   0.182  0.00  0.00    +0.003 C 
ATOM      3  C   UNL     1      -1.306  -0.786   1.298  0.00  0.00    +0.130 C 
ENDROOT
BRANCH   3   4
ATOM      4  N   UNL     1      -1.085  -0.092   2.445  0.00  0.00    -0.228 NA
ATOM      5  C   UNL     1      -0.759  -0.729   3.546  0.00  0.00    +0.198 C 
ATOM      6  N   UNL     1      -0.530  -2.030   3.996  0.00  0.00    -0.198 NA
ATOM      7  C   UNL     1      -0.200  -2.159   5.312  0.00  0.00    +0.188 C 
ATOM      8  S   UNL     1      -0.371  -0.390   5.248  0.00  0.00    -0.013 S 
BRANCH   7   9
ATOM      9  N   UNL     1       0.108  -3.137   6.212  0.00  0.00    -0.190 NA
BRANCH   9  10
ATOM     10  C   UNL     1       0.216  -2.829   7.572  0.00  0.00    +0.057 A 
ATOM     11  C   UNL     1      -0.399  -1.690   8.077  0.00  0.00    +0.028 A 
ATOM     12  C   UNL     1      -0.292  -1.387   9.420  0.00  0.00    +0.042 A 
ATOM     13  C   UNL     1       0.429  -2.216  10.263  0.00  0.00    +0.142 A 
ATOM     14  C   UNL     1       1.044  -3.352   9.761  0.00  0.00    +0.078 A 
ATOM     15  C   UNL     1       0.934  -3.662   8.419  0.00  0.00    +0.048 A 
ATOM     16 CL   UNL     1       1.948  -4.388  10.820  0.00  0.00    -0.081 Cl
ATOM     17  F   UNL     1       0.534  -1.916  11.576  0.00  0.00    -0.204 F 
ENDBRANCH   9  10
ENDBRANCH   7   9
ENDBRANCH   3   4
BRANCH   2  18
ATOM     18  N   UNL     1      -1.863  -0.853  -0.998  0.00  0.00    -0.404 NA
ATOM     19  H   UNL     1      -1.540  -0.312  -1.786  0.00  0.00    +0.123 HD
ATOM     20  H   UNL     1      -1.363  -1.729  -0.963  0.00  0.00    +0.123 HD
BRANCH  18  21
ATOM     21  C   UNL     1      -3.301  -1.116  -1.142  0.00  0.00    +0.118 C 
BRANCH  21  22
ATOM     22  C   UNL     1      -3.547  -1.886  -2.414  0.00  0.00    -0.032 A 
ATOM     23  C   UNL     1      -3.782  -1.208  -3.596  0.00  0.00    +0.009 A 
ATOM     24  C   UNL     1      -4.007  -1.911  -4.764  0.00  0.00    +0.046 A 
ATOM     25  C   UNL     1      -3.997  -3.299  -4.750  0.00  0.00    +0.120 A 
ATOM     26  C   UNL     1      -3.761  -3.976  -3.562  0.00  0.00    +0.046 A 
ATOM     27  C   UNL     1      -3.531  -3.268  -2.398  0.00  0.00    +0.009 A 
BRANCH  25  28
ATOM     28  O   UNL     1      -4.219  -3.993  -5.897  0.00  0.00    -0.495 OA
ATOM     29  C   UNL     1      -4.194  -5.419  -5.807  0.00  0.00    +0.277 C 
ENDBRANCH  25  28
ENDBRANCH  21  22
ENDBRANCH  18  21
ENDBRANCH   2  18
TORSDOF 7
