REMARK  Name = ZINC13500195
REMARK  12 active torsions:
REMARK  status: ('A' for Active; 'I' for Inactive)
REMARK    1  A    between atoms: C_1  and  C_2
REMARK    2  A    between atoms: C_2  and  C_3
REMARK    3  A    between atoms: C_3  and  C_4
REMARK    4  A    between atoms: C_4  and  C_6
REMARK    5  A    between atoms: C_4  and  N_73
REMARK    6  A    between atoms: N_10  and  C_11
REMARK    7  A    between atoms: C_11  and  C_12
REMARK    8  A    between atoms: C_15  and  O_18
REMARK    9  A    between atoms: O_18  and  C_19
REMARK   10  A    between atoms: C_20  and  C_21
REMARK   11  A    between atoms: C_20  and  N_73
REMARK   12  A    between atoms: C_36  and  N_73
REMARK                            x       y       z     vdW  Elec       q    Type
REMARK                         _______ _______ _______ _____ _____    ______ ____
ROOT
ATOM      1  N   UNL     1      -1.190   0.848   2.231  0.00  0.00    +0.391 N 
ATOM      2  H   UNL     1      -1.226   1.525   3.002  0.00  0.00    -0.080 HD
ENDROOT
BRANCH   1   3
ATOM      3  C   UNL     1      -0.148   1.269   1.272  0.00  0.00    -0.067 C 
ATOM      4  C   UNL     1      -0.598   2.545   0.517  0.00  0.00    -0.015 C 
ATOM      5  C   UNL     1       0.748   3.180   0.087  0.00  0.00    -0.002 C 
ATOM      6  C   UNL     1       1.687   2.923   1.284  0.00  0.00    -0.002 C 
ATOM      7  C   UNL     1       1.118   1.708   2.037  0.00  0.00    -0.015 C 
ENDBRANCH   1   3
BRANCH   1   8
ATOM      8  C   UNL     1      -2.508   0.812   1.562  0.00  0.00    +0.003 C 
BRANCH   8   9
ATOM      9  C   UNL     1      -2.480  -0.136   0.391  0.00  0.00    +0.138 A 
ATOM     10  N   UNL     1      -1.664  -1.148   0.222  0.00  0.00    -0.115 NA
ATOM     11  N   UNL     1      -1.956  -1.712  -0.899  0.00  0.00    -0.023 NA
ATOM     12  N   UNL     1      -2.937  -1.086  -1.450  0.00  0.00    -0.044 NA
ATOM     13  N   UNL     1      -3.292  -0.111  -0.683  0.00  0.00    -0.226 N 
BRANCH  13  14
ATOM     14  C   UNL     1      -4.372   0.845  -0.934  0.00  0.00    +0.182 C 
BRANCH  14  15
ATOM     15  C   UNL     1      -3.864   1.958  -1.814  0.00  0.00    -0.026 A 
ATOM     16  C   UNL     1      -3.403   3.131  -1.245  0.00  0.00    +0.009 A 
ATOM     17  C   UNL     1      -2.930   4.151  -2.049  0.00  0.00    +0.046 A 
ATOM     18  C   UNL     1      -2.930   4.001  -3.428  0.00  0.00    +0.120 A 
ATOM     19  C   UNL     1      -3.398   2.825  -3.996  0.00  0.00    +0.046 A 
ATOM     20  C   UNL     1      -3.864   1.807  -3.188  0.00  0.00    +0.009 A 
BRANCH  18  21
ATOM     21  O   UNL     1      -2.470   5.005  -4.221  0.00  0.00    -0.495 OA
ATOM     22  C   UNL     1      -2.004   6.186  -3.567  0.00  0.00    +0.277 C 
ENDBRANCH  18  21
ENDBRANCH  14  15
ENDBRANCH  13  14
ENDBRANCH   8   9
BRANCH   8  23
ATOM     23  C   UNL     1      -3.564   0.349   2.568  0.00  0.00    -0.008 C 
BRANCH  23  25
ATOM     24  C   UNL     1      -4.599   0.810   4.794  0.00  0.00    +0.004 C 
ATOM     25  C   UNL     1      -3.594   1.313   3.755  0.00  0.00    -0.005 C 
ENDBRANCH  23  25
ENDBRANCH   8  23
ENDBRANCH   1   8
BRANCH   1  26
ATOM     26  C   UNL     1      -0.865  -0.486   2.778  0.00  0.00    -0.036 C 
BRANCH  26  27
ATOM     27  C   UNL     1       0.197  -0.328   3.836  0.00  0.00    +0.001 A 
ATOM     28  C   UNL     1      -0.134   0.168   5.056  0.00  0.00    +0.017 A 
ATOM     29  C   UNL     1       0.917   0.303   6.063  0.00  0.00    +0.002 A 
ATOM     30  C   UNL     1       0.633   0.805   7.340  0.00  0.00    +0.059 A 
ATOM     31  C   UNL     1       1.645   0.924   8.267  0.00  0.00    +0.167 A 
ATOM     32  C   UNL     1       2.953   0.547   7.938  0.00  0.00    +0.168 A 
ATOM     33  C   UNL     1       3.242   0.052   6.679  0.00  0.00    +0.075 A 
ATOM     34  C   UNL     1       2.233  -0.074   5.732  0.00  0.00    +0.053 A 
ATOM     35  N   UNL     1       2.504  -0.565   4.471  0.00  0.00    -0.322 N 
ATOM     36  H   UNL     1       3.410  -0.824   4.244  0.00  0.00    +0.169 HD
ATOM     37  C   UNL     1       1.529  -0.690   3.554  0.00  0.00    +0.251 A 
ATOM     38  O   UNL     1       1.805  -1.128   2.450  0.00  0.00    -0.268 OA
ATOM     39  O   UNL     1       3.751   0.763   9.022  0.00  0.00    -0.453 OA
ATOM     40  C   UNL     1       2.856   0.885  10.143  0.00  0.00    +0.466 C 
ATOM     41  O   UNL     1       1.635   1.375   9.557  0.00  0.00    -0.453 OA
ENDBRANCH  26  27
ENDBRANCH   1  26
TORSDOF 10
