REMARK  Name = ZINC35354705
REMARK  5 active torsions:
REMARK  status: ('A' for Active; 'I' for Inactive)
REMARK    1  A    between atoms: C_3  and  S_9
REMARK    2  A    between atoms: C_6  and  N_7
REMARK    3  A    between atoms: N_7  and  N_8
REMARK    4  A    between atoms: S_9  and  N_12
REMARK    5  A    between atoms: N_12  and  C_13
REMARK                            x       y       z     vdW  Elec       q    Type
REMARK                         _______ _______ _______ _____ _____    ______ ____
ROOT
ATOM      1  S   UNL     1       3.998   2.321  -0.051  0.00  0.00    +0.072 S 
ATOM      2  O   UNL     1       5.045   1.507  -0.561  0.00  0.00    -0.150 OA
ATOM      3  O   UNL     1       3.688   3.595  -0.597  0.00  0.00    -0.150 OA
ENDROOT
BRANCH   1   6
ATOM      4  C   UNL     1       0.135   1.240  -0.269  0.00  0.00    +0.026 A 
ATOM      5  C   UNL     1       1.293   1.990  -0.196  0.00  0.00    +0.030 A 
ATOM      6  C   UNL     1       2.523   1.361  -0.142  0.00  0.00    +0.109 A 
ATOM      7  C   UNL     1       2.599  -0.020  -0.162  0.00  0.00    +0.030 A 
ATOM      8  C   UNL     1       1.446  -0.775  -0.234  0.00  0.00    +0.026 A 
ATOM      9  C   UNL     1       0.208  -0.147  -0.288  0.00  0.00    +0.041 A 
BRANCH   9  10
ATOM     10  N   UNL     1      -0.961  -0.908  -0.361  0.00  0.00    -0.283 N 
ATOM     11  H   UNL     1      -1.825  -0.468  -0.399  0.00  0.00    +0.166 HD
BRANCH  10  12
ATOM     12  N   UNL     1      -0.888  -2.272  -0.380  0.00  0.00    -0.257 NA
ATOM     13  H   UNL     1      -1.808  -2.683  -0.435  0.00  0.00    +0.140 HD
ATOM     14  H   UNL     1      -0.303  -2.592  -1.138  0.00  0.00    +0.140 HD
ENDBRANCH  10  12
ENDBRANCH   9  10
ENDBRANCH   1   6
BRANCH   1  15
ATOM     15  N   UNL     1       4.326   2.562   1.555  0.00  0.00    -0.215 N 
ATOM     16  H   UNL     1       4.361   3.463   1.913  0.00  0.00    +0.174 HD
BRANCH  15  17
ATOM     17  C   UNL     1       4.554   1.466   2.394  0.00  0.00    +0.062 A 
ATOM     18  C   UNL     1       5.218   0.346   1.911  0.00  0.00    +0.028 A 
ATOM     19  C   UNL     1       5.442  -0.734   2.742  0.00  0.00    +0.040 A 
ATOM     20  C   UNL     1       5.005  -0.702   4.056  0.00  0.00    +0.125 A 
ATOM     21  C   UNL     1       4.342   0.413   4.540  0.00  0.00    +0.055 A 
ATOM     22  C   UNL     1       4.120   1.499   3.714  0.00  0.00    +0.043 A 
ATOM     23 BR   UNL     1       3.222   3.025   4.377  0.00  0.00    -0.048 Br
ATOM     24  F   UNL     1       5.224  -1.760   4.866  0.00  0.00    -0.205 F 
ENDBRANCH  15  17
ENDBRANCH   1  15
TORSDOF 5
