REMARK  Name = ZINC15942420
REMARK  13 active torsions:
REMARK  status: ('A' for Active; 'I' for Inactive)
REMARK    1  A    between atoms: C_1  and  C_2
REMARK    2  A    between atoms: C_2  and  C_3
REMARK    3  A    between atoms: N_9  and  C_10
REMARK    4  A    between atoms: C_10  and  C_11
REMARK    5  A    between atoms: C_11  and  C_12
REMARK    6  A    between atoms: C_12  and  N_13
REMARK    7  A    between atoms: C_14  and  C_16
REMARK    8  A    between atoms: C_16  and  S_17
REMARK    9  A    between atoms: S_17  and  C_18
REMARK   10  A    between atoms: C_22  and  C_36
REMARK   11  A    between atoms: C_23  and  C_28
REMARK   12  A    between atoms: C_24  and  C_27
REMARK   13  A    between atoms: C_28  and  C_29
REMARK                            x       y       z     vdW  Elec       q    Type
REMARK                         _______ _______ _______ _____ _____    ______ ____
ROOT
ATOM      1  C   UNL     1      -4.999   7.235  -6.999  0.00  0.00    +0.211 A 
ATOM      2  N   UNL     1      -5.580   6.535  -7.971  0.00  0.00    -0.183 NA
ATOM      3  C   UNL     1      -6.321   7.342  -8.723  0.00  0.00    +0.254 A 
ATOM      4  N   UNL     1      -7.085   7.122  -9.799  0.00  0.00    -0.216 NA
ATOM      5  C   UNL     1      -7.735   8.107 -10.377  0.00  0.00    +0.047 A 
ATOM      6  C   UNL     1      -7.637   9.409  -9.873  0.00  0.00    -0.001 A 
ATOM      7  C   UNL     1      -6.864   9.642  -8.780  0.00  0.00    +0.049 A 
ATOM      8  N   UNL     1      -6.205   8.602  -8.206  0.00  0.00    -0.200 N 
ATOM      9  N   UNL     1      -5.355   8.501  -7.097  0.00  0.00    -0.137 NA
ATOM     10  C   UNL     1      -6.739  11.033  -8.215  0.00  0.00    +0.066 C 
ATOM     11  C   UNL     1      -8.588   7.834 -11.589  0.00  0.00    +0.066 C 
ENDROOT
BRANCH   1  12
ATOM     12  S   UNL     1      -3.928   6.572  -5.768  0.00  0.00    -0.075 S 
BRANCH  12  13
ATOM     13  C   UNL     1      -3.836   4.806  -6.171  0.00  0.00    +0.173 C 
BRANCH  13  15
ATOM     14  N   UNL     1      -2.720   2.784  -5.284  0.00  0.00    -0.315 N 
ATOM     15  C   UNL     1      -2.938   4.110  -5.180  0.00  0.00    +0.223 C 
ATOM     16  O   UNL     1      -2.412   4.743  -4.290  0.00  0.00    -0.275 OA
ATOM     17  H   UNL     1      -3.142   2.277  -5.996  0.00  0.00    +0.149 HD
BRANCH  14  18
ATOM     18  C   UNL     1      -1.848   2.108  -4.321  0.00  0.00    +0.102 C 
BRANCH  18  19
ATOM     19  C   UNL     1      -1.771   0.618  -4.661  0.00  0.00    +0.000 C 
BRANCH  19  20
ATOM     20  C   UNL     1      -0.859  -0.088  -3.656  0.00  0.00    -0.077 C 
BRANCH  20  26
ATOM     21  C   UNL     1      -0.020  -2.218  -2.943  0.00  0.00    -0.069 C 
ATOM     22  C   UNL     1      -0.009  -3.720  -3.235  0.00  0.00    -0.015 C 
ATOM     23  C   UNL     1       0.640  -3.963  -4.600  0.00  0.00    -0.003 C 
ATOM     24  C   UNL     1      -0.121  -3.170  -5.666  0.00  0.00    -0.019 C 
ATOM     25  C   UNL     1      -0.127  -1.688  -5.283  0.00  0.00    -0.078 C 
ATOM     26  N   UNL     1      -0.785  -1.519  -3.982  0.00  0.00    +0.382 N 
ATOM     27  H   UNL     1      -1.718  -1.900  -4.026  0.00  0.00    -0.081 HD
BRANCH  21  29
ATOM     28  C   UNL     1       0.199  -2.588  -0.481  0.00  0.00    +0.002 C 
ATOM     29  C   UNL     1      -0.669  -1.969  -1.579  0.00  0.00    -0.019 C 
ENDBRANCH  21  29
ENDBRANCH  20  26
ENDBRANCH  19  20
ENDBRANCH  18  19
ENDBRANCH  14  18
ENDBRANCH  13  15
ENDBRANCH  12  13
ENDBRANCH   1  12
BRANCH   6  30
ATOM     30  C   UNL     1      -8.381  10.541 -10.536  0.00  0.00    +0.075 C 
BRANCH  30  31
ATOM     31  C   UNL     1      -9.765  10.644  -9.948  0.00  0.00    -0.025 A 
ATOM     32  C   UNL     1     -10.775   9.821 -10.410  0.00  0.00    +0.005 A 
ATOM     33  C   UNL     1     -12.044   9.916  -9.871  0.00  0.00    +0.000 A 
ATOM     34  C   UNL     1     -12.305  10.834  -8.870  0.00  0.00    +0.001 A 
ATOM     35  C   UNL     1     -11.295  11.657  -8.408  0.00  0.00    +0.020 A 
ATOM     36  C   UNL     1     -10.023  11.559  -8.943  0.00  0.00    +0.044 A 
ATOM     37 CL   UNL     1      -8.753  12.588  -8.358  0.00  0.00    -0.083 Cl
ENDBRANCH  30  31
ENDBRANCH   6  30
TORSDOF 10
