REMARK  Name = ZINC32527472
REMARK  9 active torsions:
REMARK  status: ('A' for Active; 'I' for Inactive)
REMARK    1  A    between atoms: C_1  and  C_2
REMARK    2  A    between atoms: C_2  and  C_3
REMARK    3  A    between atoms: C_3  and  C_5
REMARK    4  A    between atoms: C_3  and  N_20
REMARK    5  A    between atoms: N_7  and  C_8
REMARK    6  A    between atoms: C_9  and  C_17
REMARK    7  A    between atoms: C_24  and  C_33
REMARK    8  A    between atoms: C_27  and  C_32
REMARK    9  A    between atoms: C_29  and  C_31
REMARK                            x       y       z     vdW  Elec       q    Type
REMARK                         _______ _______ _______ _____ _____    ______ ____
ROOT
ATOM      1  C   UNL     1      -1.702   2.274   5.389  0.00  0.00    +0.241 C 
ATOM      2  O   UNL     1      -2.378   3.243   5.116  0.00  0.00    -0.273 OA
ATOM      3  N   UNL     1      -0.619   1.977   4.645  0.00  0.00    -0.278 N 
ATOM      4  H   UNL     1      -0.005   1.098   4.893  0.00  0.00    +0.155 HD
ENDROOT
BRANCH   3   5
ATOM      5  C   UNL     1      -0.276   2.780   3.568  0.00  0.00    +0.084 A 
ATOM      6  C   UNL     1       0.791   2.639   2.692  0.00  0.00    +0.068 A 
ATOM      7  C   UNL     1       0.930   3.626   1.637  0.00  0.00    -0.023 A 
ATOM      8  C   UNL     1      -0.019   4.590   1.622  0.00  0.00    -0.004 A 
ATOM      9  S   UNL     1      -1.078   4.202   2.987  0.00  0.00    -0.077 S 
ATOM     10  C   UNL     1      -0.133   5.731   0.659  0.00  0.00    +0.043 C 
ATOM     11  C   UNL     1       1.199   5.864  -0.094  0.00  0.00    +0.005 C 
ATOM     12  C   UNL     1       1.626   4.479  -0.589  0.00  0.00    +0.005 C 
ATOM     13  C   UNL     1       2.043   3.608   0.597  0.00  0.00    +0.037 C 
BRANCH   6  14
ATOM     14  C   UNL     1       1.746   1.535   2.829  0.00  0.00    +0.244 C 
ATOM     15  O   UNL     1       1.545   0.481   2.253  0.00  0.00    -0.270 OA
ATOM     16  N   UNL     1       2.847   1.686   3.592  0.00  0.00    -0.325 N 
ATOM     17  H   UNL     1       3.563   0.858   3.695  0.00  0.00    +0.145 HD
ATOM     18  H   UNL     1       3.029   2.638   4.112  0.00  0.00    +0.145 HD
ENDBRANCH   6  14
ENDBRANCH   3   5
BRANCH   1  19
ATOM     19  C   UNL     1      -2.075   1.401   6.560  0.00  0.00    +0.176 C 
BRANCH  19  20
ATOM     20  N   UNL     1      -3.281   1.932   7.200  0.00  0.00    -0.296 N 
ATOM     21  C   UNL     1      -4.355   1.136   7.352  0.00  0.00    +0.253 A 
ATOM     22  O   UNL     1      -4.303  -0.014   6.953  0.00  0.00    -0.268 OA
ATOM     23  C   UNL     1      -5.540   1.600   7.962  0.00  0.00    +0.074 A 
ATOM     24  C   UNL     1      -5.621   2.876   8.414  0.00  0.00    -0.036 A 
ATOM     25  C   UNL     1      -4.457   3.751   8.254  0.00  0.00    +0.002 A 
ATOM     26  C   UNL     1      -3.297   3.237   7.643  0.00  0.00    +0.056 A 
ATOM     27  C   UNL     1      -2.189   4.062   7.480  0.00  0.00    -0.026 A 
ATOM     28  C   UNL     1      -2.235   5.365   7.928  0.00  0.00    +0.008 A 
ATOM     29  C   UNL     1      -3.378   5.865   8.535  0.00  0.00    -0.050 A 
ATOM     30  C   UNL     1      -4.481   5.075   8.700  0.00  0.00    +0.013 A 
ATOM     31  C   UNL     1      -3.404   7.293   9.016  0.00  0.00    +0.044 C 
ATOM     32  C   UNL     1      -0.942   3.531   6.823  0.00  0.00    +0.046 C 
ATOM     33  C   UNL     1      -6.881   3.383   9.067  0.00  0.00    +0.044 C 
ENDBRANCH  19  20
BRANCH  19  35
ATOM     34  C   UNL     1      -2.353  -0.980   7.264  0.00  0.00    +0.006 C 
ATOM     35  C   UNL     1      -2.341  -0.023   6.070  0.00  0.00    +0.031 C 
ENDBRANCH  19  35
ENDBRANCH   1  19
TORSDOF 5
