REMARK  Name = ZINC20182729
REMARK  5 active torsions:
REMARK  status: ('A' for Active; 'I' for Inactive)
REMARK    1  A    between atoms: C_1  and  C_2
REMARK    2  A    between atoms: C_5  and  S_9
REMARK    3  A    between atoms: C_6  and  C_8
REMARK    4  A    between atoms: S_9  and  N_12
REMARK    5  A    between atoms: C_19  and  N_21
REMARK                            x       y       z     vdW  Elec       q    Type
REMARK                         _______ _______ _______ _____ _____    ______ ____
ROOT
ATOM      1  N   UNL     1       1.434  -4.886   1.225  0.00  0.00    -0.202 N 
ATOM      2  C   UNL     1       2.698  -5.143   0.530  0.00  0.00    +0.136 C 
ATOM      3  C   UNL     1       3.713  -5.456   1.642  0.00  0.00    +0.058 C 
ATOM      4  C   UNL     1       2.919  -5.348   2.925  0.00  0.00    -0.021 A 
ATOM      5  C   UNL     1       1.613  -5.010   2.607  0.00  0.00    +0.055 A 
ATOM      6  C   UNL     1       0.683  -4.847   3.636  0.00  0.00    +0.027 A 
ATOM      7  C   UNL     1       1.062  -5.015   4.951  0.00  0.00    +0.024 A 
ATOM      8  C   UNL     1       2.373  -5.349   5.262  0.00  0.00    +0.025 A 
ATOM      9  C   UNL     1       3.299  -5.522   4.241  0.00  0.00    +0.028 A 
ENDROOT
BRANCH   1  10
ATOM     10  S   UNL     1       0.005  -4.498   0.483  0.00  0.00    +0.075 S 
ATOM     11  O   UNL     1      -1.033  -4.996   1.316  0.00  0.00    -0.150 OA
ATOM     12  O   UNL     1       0.138  -4.880  -0.879  0.00  0.00    -0.150 OA
BRANCH  10  17
ATOM     13  C   UNL     1      -0.465   1.516   0.547  0.00  0.00    +0.044 C 
ATOM     14  C   UNL     1      -0.347   0.014   0.531  0.00  0.00    -0.050 A 
ATOM     15  C   UNL     1       0.867  -0.587   0.807  0.00  0.00    +0.005 A 
ATOM     16  C   UNL     1       0.974  -1.965   0.792  0.00  0.00    +0.029 A 
ATOM     17  C   UNL     1      -0.132  -2.742   0.503  0.00  0.00    +0.112 A 
ATOM     18  C   UNL     1      -1.346  -2.141   0.229  0.00  0.00    -0.024 A 
ATOM     19  C   UNL     1      -1.455  -0.762   0.247  0.00  0.00    +0.008 A 
ATOM     20  C   UNL     1      -2.552  -2.987  -0.087  0.00  0.00    +0.046 C 
ENDBRANCH  10  17
ENDBRANCH   1  10
BRANCH   8  21
ATOM     21  N   UNL     1       2.758  -5.521   6.597  0.00  0.00    -0.358 N 
ATOM     22  H   UNL     1       2.108  -5.406   7.307  0.00  0.00    +0.142 HD
ATOM     23  H   UNL     1       3.675  -5.754   6.811  0.00  0.00    +0.142 HD
ENDBRANCH   8  21
TORSDOF 3
