REMARK  Name = ZINC39413859
REMARK  12 active torsions:
REMARK  status: ('A' for Active; 'I' for Inactive)
REMARK    1  A    between atoms: C_1  and  C_2
REMARK    2  A    between atoms: C_2  and  N_3
REMARK    3  A    between atoms: N_3  and  C_4
REMARK    4  A    between atoms: N_3  and  S_6
REMARK    5  A    between atoms: C_4  and  C_5
REMARK    6  A    between atoms: S_6  and  C_9
REMARK    7  A    between atoms: C_13  and  C_15
REMARK    8  A    between atoms: C_19  and  S_28
REMARK    9  A    between atoms: N_21  and  C_22
REMARK   10  A    between atoms: S_28  and  C_29
REMARK   11  A    between atoms: C_29  and  C_30
REMARK   12  A    between atoms: C_30  and  C_32
REMARK                            x       y       z     vdW  Elec       q    Type
REMARK                         _______ _______ _______ _____ _____    ______ ____
ROOT
ATOM      1  C   UNL     1       4.769   2.421   4.513  0.00  0.00    +0.218 C 
ATOM      2  N   UNL     1       4.829   0.995   4.838  0.00  0.00    -0.286 N 
ATOM      3  N   UNL     1       5.922   0.679   5.305  0.00  0.00    -0.180 NA
ATOM      4  C   UNL     1       6.828   1.824   5.394  0.00  0.00    +0.273 C 
ATOM      5  N   UNL     1       6.082   2.986   4.874  0.00  0.00    -0.273 N 
ATOM      6  H   UNL     1       4.096   0.375   4.702  0.00  0.00    +0.185 HD
ENDROOT
BRANCH   1  11
ATOM      7  C   UNL     1       3.217   2.130   1.084  0.00  0.00    +0.106 A 
ATOM      8  C   UNL     1       4.048   2.943   0.336  0.00  0.00    +0.028 A 
ATOM      9  C   UNL     1       5.112   3.587   0.939  0.00  0.00    +0.002 A 
ATOM     10  C   UNL     1       5.345   3.418   2.291  0.00  0.00    +0.007 A 
ATOM     11  C   UNL     1       4.514   2.606   3.040  0.00  0.00    -0.004 A 
ATOM     12  C   UNL     1       3.447   1.965   2.437  0.00  0.00    +0.035 A 
BRANCH   7  13
ATOM     13  S   UNL     1       1.860   1.310   0.315  0.00  0.00    +0.061 S 
ATOM     14  O   UNL     1       1.557   0.181   1.124  0.00  0.00    -0.153 OA
ATOM     15  O   UNL     1       2.185   1.194  -1.063  0.00  0.00    -0.153 OA
BRANCH  13  16
ATOM     16  N   UNL     1       0.556   2.325   0.411  0.00  0.00    -0.177 NA
BRANCH  16  18
ATOM     17  C   UNL     1       0.915   4.640  -0.290  0.00  0.00    +0.022 C 
ATOM     18  C   UNL     1       0.299   3.290  -0.661  0.00  0.00    +0.106 C 
ENDBRANCH  16  18
BRANCH  16  19
ATOM     19  C   UNL     1      -0.341   2.259   1.567  0.00  0.00    +0.106 C 
ATOM     20  C   UNL     1      -1.531   1.355   1.239  0.00  0.00    +0.022 C 
ENDBRANCH  16  19
ENDBRANCH  13  16
ENDBRANCH   7  13
ENDBRANCH   1  11
BRANCH   5  21
ATOM     21  C   UNL     1       6.515   4.308   4.753  0.00  0.00    +0.034 A 
ATOM     22  C   UNL     1       5.625   5.299   4.362  0.00  0.00    +0.023 A 
ATOM     23  C   UNL     1       6.057   6.606   4.243  0.00  0.00    +0.002 A 
ATOM     24  C   UNL     1       7.374   6.927   4.513  0.00  0.00    +0.000 A 
ATOM     25  C   UNL     1       8.264   5.942   4.902  0.00  0.00    +0.002 A 
ATOM     26  C   UNL     1       7.837   4.635   5.029  0.00  0.00    +0.023 A 
ENDBRANCH   5  21
BRANCH   4  27
ATOM     27  S   UNL     1       8.306   1.529   4.383  0.00  0.00    -0.106 S 
BRANCH  27  28
ATOM     28  C   UNL     1       7.642   1.114   2.747  0.00  0.00    +0.149 C 
BRANCH  28  29
ATOM     29  C   UNL     1       8.781   0.852   1.795  0.00  0.00    +0.171 C 
ATOM     30  O   UNL     1       9.922   0.936   2.181  0.00  0.00    -0.294 OA
BRANCH  29  31
ATOM     31  C   UNL     1       8.495   0.484   0.362  0.00  0.00    +0.195 C 
ATOM     32  C   UNL     1       8.046  -0.957   0.270  0.00  0.00    +0.008 C 
ATOM     33  C   UNL     1       8.945  -1.572  -0.497  0.00  0.00    +0.017 C 
ATOM     34  C   UNL     1       9.966  -0.612  -0.918  0.00  0.00    +0.106 C 
ATOM     35  N   UNL     1       9.724   0.565  -0.438  0.00  0.00    -0.277 NA
ENDBRANCH  29  31
ENDBRANCH  28  29
ENDBRANCH  27  28
ENDBRANCH   4  27
TORSDOF 10
