REMARK  Name = ZINC09309079
REMARK  6 active torsions:
REMARK  status: ('A' for Active; 'I' for Inactive)
REMARK    1  A    between atoms: C_6  and  C_7
REMARK    2  A    between atoms: C_10  and  S_19
REMARK    3  A    between atoms: N_11  and  C_12
REMARK    4  A    between atoms: S_19  and  C_20
REMARK    5  A    between atoms: C_20  and  C_21
REMARK    6  A    between atoms: N_23  and  C_24
REMARK                            x       y       z     vdW  Elec       q    Type
REMARK                         _______ _______ _______ _____ _____    ______ ____
ROOT
ATOM      1  C   UNL     1      10.421  -3.642   6.058  0.00  0.00    +0.169 A 
ATOM      2  N   UNL     1      10.393  -2.420   5.578  0.00  0.00    -0.128 NA
ATOM      3  N   UNL     1       9.289  -2.219   4.952  0.00  0.00    -0.122 NA
ATOM      4  C   UNL     1       8.542  -3.299   4.993  0.00  0.00    +0.197 A 
ATOM      5  N   UNL     1       9.233  -4.243   5.703  0.00  0.00    -0.270 N 
ENDROOT
BRANCH   1  11
ATOM      6  C   UNL     1      11.557  -5.639   7.021  0.00  0.00    +0.013 A 
ATOM      7  C   UNL     1      12.585  -6.206   7.744  0.00  0.00    +0.021 A 
ATOM      8  C   UNL     1      13.571  -5.406   8.296  0.00  0.00    +0.041 A 
ATOM      9  C   UNL     1      13.535  -4.032   8.121  0.00  0.00    +0.021 A 
ATOM     10  C   UNL     1      12.514  -3.454   7.395  0.00  0.00    +0.013 A 
ATOM     11  C   UNL     1      11.517  -4.256   6.837  0.00  0.00    +0.020 A 
ATOM     12 CL   UNL     1      14.859  -6.126   9.210  0.00  0.00    -0.084 Cl
ENDBRANCH   1  11
BRANCH   5  13
ATOM     13  C   UNL     1       8.820  -5.549   6.003  0.00  0.00    +0.051 A 
ATOM     14  C   UNL     1       8.597  -5.922   7.321  0.00  0.00    +0.028 A 
ATOM     15  C   UNL     1       8.185  -7.207   7.614  0.00  0.00    +0.022 A 
ATOM     16  C   UNL     1       8.005  -8.126   6.595  0.00  0.00    +0.041 A 
ATOM     17  C   UNL     1       8.232  -7.758   5.280  0.00  0.00    +0.022 A 
ATOM     18  C   UNL     1       8.639  -6.472   4.982  0.00  0.00    +0.028 A 
ATOM     19 CL   UNL     1       7.494  -9.743   6.967  0.00  0.00    -0.084 Cl
ENDBRANCH   5  13
BRANCH   4  20
ATOM     20  S   UNL     1       6.945  -3.493   4.274  0.00  0.00    -0.076 S 
BRANCH  20  21
ATOM     21  C   UNL     1       6.728  -1.853   3.541  0.00  0.00    +0.173 C 
BRANCH  21  22
ATOM     22  C   UNL     1       5.391  -1.783   2.851  0.00  0.00    +0.227 C 
ATOM     23  O   UNL     1       4.656  -2.748   2.854  0.00  0.00    -0.275 OA
ATOM     24  N   UNL     1       5.011  -0.649   2.229  0.00  0.00    -0.285 N 
ATOM     25  H   UNL     1       5.628   0.096   2.160  0.00  0.00    +0.155 HD
BRANCH  24  26
ATOM     26  C   UNL     1       3.725  -0.547   1.683  0.00  0.00    +0.037 A 
ATOM     27  C   UNL     1       2.657  -1.191   2.295  0.00  0.00    +0.027 A 
ATOM     28  C   UNL     1       1.388  -1.090   1.758  0.00  0.00    +0.051 A 
ATOM     29  C   UNL     1       1.177  -0.347   0.608  0.00  0.00    +0.166 A 
ATOM     30  C   UNL     1       2.246   0.301  -0.008  0.00  0.00    +0.168 A 
ATOM     31  C   UNL     1       3.517   0.199   0.531  0.00  0.00    +0.072 A 
ATOM     32  O   UNL     1       1.781   0.958  -1.110  0.00  0.00    -0.453 OA
ATOM     33  C   UNL     1       0.354   1.044  -0.934  0.00  0.00    +0.466 C 
ATOM     34  O   UNL     1       0.042  -0.094  -0.110  0.00  0.00    -0.453 OA
ENDBRANCH  24  26
ENDBRANCH  21  22
ENDBRANCH  20  21
ENDBRANCH   4  20
TORSDOF 6
