REMARK  Name = ZINC55183152
REMARK  7 active torsions:
REMARK  status: ('A' for Active; 'I' for Inactive)
REMARK    1  A    between atoms: C_3  and  C_8
REMARK    2  A    between atoms: C_8  and  N_9
REMARK    3  A    between atoms: C_15  and  C_17
REMARK    4  A    between atoms: C_17  and  C_18
REMARK    5  A    between atoms: N_20  and  C_21
REMARK    6  A    between atoms: C_21  and  C_22
REMARK    7  A    between atoms: C_22  and  N_28
REMARK                            x       y       z     vdW  Elec       q    Type
REMARK                         _______ _______ _______ _____ _____    ______ ____
ROOT
ATOM      1  C   UNL     1       4.492   4.905  -0.267  0.00  0.00    +0.215 C 
ATOM      2  O   UNL     1       4.377   3.806  -0.766  0.00  0.00    -0.276 OA
ATOM      3  N   UNL     1       3.950   5.980  -0.872  0.00  0.00    -0.317 N 
ATOM      4  H   UNL     1       4.042   6.859  -0.472  0.00  0.00    +0.149 HD
ENDROOT
BRANCH   1   5
ATOM      5  C   UNL     1       5.242   5.068   1.030  0.00  0.00    +0.124 C 
BRANCH   5  12
ATOM      6  N   UNL     1       6.656   3.176   0.388  0.00  0.00    -0.285 NA
ATOM      7  C   UNL     1       7.029   1.784   0.685  0.00  0.00    +0.104 C 
ATOM      8  C   UNL     1       5.780   0.907   0.580  0.00  0.00    +0.119 C 
ATOM      9  N   UNL     1       4.692   1.490   1.360  0.00  0.00    -0.313 N 
ATOM     10  C   UNL     1       4.684   2.768   1.755  0.00  0.00    +0.231 C 
ATOM     11  O   UNL     1       3.726   3.179   2.374  0.00  0.00    -0.274 OA
ATOM     12  C   UNL     1       5.813   3.716   1.463  0.00  0.00    +0.152 C 
ATOM     13  H   UNL     1       3.942   0.926   1.603  0.00  0.00    +0.149 HD
BRANCH   6  14
ATOM     14  C   UNL     1       7.849   4.010   0.186  0.00  0.00    +0.120 C 
BRANCH  14  17
ATOM     15  C   UNL     1       8.661   4.059  -3.502  0.00  0.00    +0.003 A 
ATOM     16  C   UNL     1       8.087   4.362  -2.280  0.00  0.00    +0.005 A 
ATOM     17  C   UNL     1       8.475   3.677  -1.144  0.00  0.00    -0.031 A 
ATOM     18  C   UNL     1       9.436   2.687  -1.228  0.00  0.00    +0.043 A 
ATOM     19  C   UNL     1      10.010   2.382  -2.450  0.00  0.00    +0.124 A 
ATOM     20  C   UNL     1       9.621   3.069  -3.587  0.00  0.00    +0.038 A 
ATOM     21  F   UNL     1      10.950   1.415  -2.532  0.00  0.00    -0.205 F 
ENDBRANCH  14  17
ENDBRANCH   6  14
ENDBRANCH   5  12
ENDBRANCH   1   5
BRANCH   3  22
ATOM     22  C   UNL     1       3.221   5.822  -2.132  0.00  0.00    +0.092 C 
BRANCH  22  23
ATOM     23  C   UNL     1       2.605   7.162  -2.538  0.00  0.00    -0.050 C 
ATOM     24  C   UNL     1       1.766   6.976  -3.804  0.00  0.00    -0.010 C 
ATOM     25  C   UNL     1       2.657   6.461  -4.935  0.00  0.00    -0.001 C 
ATOM     26  C   UNL     1       3.772   7.473  -5.207  0.00  0.00    -0.000 C 
ATOM     27  C   UNL     1       4.612   7.659  -3.941  0.00  0.00    -0.001 C 
ATOM     28  C   UNL     1       3.720   8.174  -2.809  0.00  0.00    -0.010 C 
BRANCH  23  29
ATOM     29  N   UNL     1       1.750   7.657  -1.451  0.00  0.00    +0.384 N 
ATOM     30  C   UNL     1       0.695   6.675  -1.175  0.00  0.00    -0.078 C 
ATOM     31  C   UNL     1      -0.151   7.147   0.010  0.00  0.00    -0.019 C 
ATOM     32  C   UNL     1      -0.786   8.498  -0.330  0.00  0.00    -0.004 C 
ATOM     33  C   UNL     1       0.320   9.495  -0.689  0.00  0.00    -0.019 C 
ATOM     34  C   UNL     1       1.148   8.936  -1.847  0.00  0.00    -0.078 C 
ATOM     35  H   UNL     1       2.307   7.792  -0.621  0.00  0.00    -0.081 HD
ENDBRANCH  23  29
ENDBRANCH  22  23
ENDBRANCH   3  22
TORSDOF 7
