REMARK  Name = ZINC49505065
REMARK  8 active torsions:
REMARK  status: ('A' for Active; 'I' for Inactive)
REMARK    1  A    between atoms: N_9  and  C_12
REMARK    2  A    between atoms: C_12  and  C_13
REMARK    3  A    between atoms: C_13  and  C_14
REMARK    4  A    between atoms: C_14  and  C_15
REMARK    5  A    between atoms: N_17  and  C_18
REMARK    6  A    between atoms: C_18  and  C_19
REMARK    7  A    between atoms: C_19  and  C_20
REMARK    8  A    between atoms: C_26  and  C_28
REMARK                            x       y       z     vdW  Elec       q    Type
REMARK                         _______ _______ _______ _____ _____    ______ ____
ROOT
ATOM      1  C   UNL     1       4.998  -5.587  -2.941  0.00  0.00    +0.213 C 
ATOM      2  O   UNL     1       4.580  -4.908  -3.855  0.00  0.00    -0.276 OA
ATOM      3  N   UNL     1       5.683  -6.718  -3.200  0.00  0.00    -0.315 N 
ATOM      4  H   UNL     1       6.017  -7.261  -2.469  0.00  0.00    +0.149 HD
ENDROOT
BRANCH   1   5
ATOM      5  C   UNL     1       4.752  -5.165  -1.515  0.00  0.00    +0.097 C 
BRANCH   5   6
ATOM      6  C   UNL     1       3.959  -3.857  -1.501  0.00  0.00    +0.029 C 
BRANCH   6   7
ATOM      7  C   UNL     1       3.709  -3.428  -0.053  0.00  0.00    +0.117 C 
BRANCH   7  16
ATOM      8  C   UNL     1      -0.017   1.382   0.010  0.00  0.00    +0.001 A 
ATOM      9  C   UNL     1       1.165   2.099   0.002  0.00  0.00    +0.001 A 
ATOM     10  C   UNL     1       2.385   1.442  -0.013  0.00  0.00    +0.014 A 
ATOM     11  C   UNL     1       2.420   0.056  -0.021  0.00  0.00    +0.049 A 
ATOM     12  C   UNL     1       1.215  -0.675  -0.013  0.00  0.00    +0.049 A 
ATOM     13  C   UNL     1       0.002  -0.004   0.002  0.00  0.00    +0.014 A 
ATOM     14  C   UNL     1       1.606  -2.100  -0.025  0.00  0.00    +0.254 C 
ATOM     15  O   UNL     1       0.843  -3.045  -0.023  0.00  0.00    -0.270 OA
ATOM     16  N   UNL     1       2.949  -2.175  -0.039  0.00  0.00    -0.234 N 
ATOM     17  C   UNL     1       3.503  -0.949  -0.038  0.00  0.00    +0.254 C 
ATOM     18  O   UNL     1       4.693  -0.709  -0.049  0.00  0.00    -0.270 OA
ENDBRANCH   7  16
ENDBRANCH   6   7
ENDBRANCH   5   6
ENDBRANCH   1   5
BRANCH   3  19
ATOM     19  C   UNL     1       5.922  -7.128  -4.586  0.00  0.00    +0.110 C 
BRANCH  19  20
ATOM     20  C   UNL     1       6.716  -8.437  -4.601  0.00  0.00    +0.075 C 
BRANCH  20  21
ATOM     21  C   UNL     1       6.962  -8.859  -6.027  0.00  0.00    +0.054 A 
ATOM     22  C   UNL     1       8.110  -8.530  -6.623  0.00  0.00    +0.072 A 
ATOM     23  S   UNL     1       7.895  -9.249  -8.244  0.00  0.00    -0.056 S 
ATOM     24  C   UNL     1       6.275  -9.933  -7.983  0.00  0.00    +0.196 A 
ATOM     25  N   UNL     1       6.004  -9.582  -6.696  0.00  0.00    -0.210 N 
ATOM     26  N   UNL     1       4.714 -10.119  -6.450  0.00  0.00    -0.144 NA
ATOM     27  C   UNL     1       4.320 -10.729  -7.547  0.00  0.00    +0.189 A 
ATOM     28  N   UNL     1       5.274 -10.604  -8.480  0.00  0.00    -0.200 NA
BRANCH  27  29
ATOM     29  C   UNL     1       3.030 -11.427  -7.726  0.00  0.00    +0.058 A 
ATOM     30  C   UNL     1       2.551 -12.086  -8.827  0.00  0.00    +0.019 A 
ATOM     31  C   UNL     1       1.304 -12.669  -8.759  0.00  0.00    +0.008 A 
ATOM     32  C   UNL     1       0.590 -12.573  -7.609  0.00  0.00    +0.046 A 
ATOM     33  S   UNL     1       1.693 -11.638  -6.561  0.00  0.00    -0.093 S 
ENDBRANCH  27  29
ENDBRANCH  20  21
ENDBRANCH  19  20
ENDBRANCH   3  19
TORSDOF 8
