REMARK  Name = ZINC16646303
REMARK  12 active torsions:
REMARK  status: ('A' for Active; 'I' for Inactive)
REMARK    1  A    between atoms: C_1  and  C_2
REMARK    2  A    between atoms: C_2  and  C_3
REMARK    3  A    between atoms: C_2  and  N_4
REMARK    4  A    between atoms: N_4  and  C_5
REMARK    5  A    between atoms: C_5  and  C_6
REMARK    6  A    between atoms: N_8  and  C_9
REMARK    7  A    between atoms: N_8  and  C_21
REMARK    8  A    between atoms: C_9  and  C_10
REMARK    9  A    between atoms: C_10  and  C_11
REMARK   10  A    between atoms: C_21  and  C_22
REMARK   11  A    between atoms: C_29  and  C_31
REMARK   12  A    between atoms: C_35  and  N_37
REMARK                            x       y       z     vdW  Elec       q    Type
REMARK                         _______ _______ _______ _____ _____    ______ ____
ROOT
ATOM      1  C   UNL     1       0.721   7.613   1.740  0.00  0.00    +0.233 C 
ATOM      2  O   UNL     1       0.640   6.699   2.533  0.00  0.00    -0.274 OA
ATOM      3  N   UNL     1       0.626   8.887   2.167  0.00  0.00    -0.296 N 
ENDROOT
BRANCH   1   4
ATOM      4  C   UNL     1       0.929   7.323   0.275  0.00  0.00    +0.204 C 
BRANCH   4   5
ATOM      5  N   UNL     1       1.137   5.885   0.087  0.00  0.00    -0.286 N 
ATOM      6  C   UNL     1       0.082   5.075  -0.134  0.00  0.00    +0.247 C 
ATOM      7  O   UNL     1      -1.031   5.547  -0.256  0.00  0.00    -0.270 OA
BRANCH   6   8
ATOM      8  C   UNL     1       0.280   3.613  -0.227  0.00  0.00    +0.039 A 
ATOM      9  C   UNL     1       1.301   3.093  -1.024  0.00  0.00    +0.013 A 
ATOM     10  C   UNL     1       1.480   1.728  -1.108  0.00  0.00    +0.003 A 
ATOM     11  C   UNL     1       0.650   0.874  -0.403  0.00  0.00    +0.033 A 
ATOM     12  C   UNL     1      -0.367   1.383   0.385  0.00  0.00    +0.127 A 
ATOM     13  C   UNL     1      -0.554   2.747   0.481  0.00  0.00    +0.045 A 
BRANCH  12  14
ATOM     14  N   UNL     1      -1.255   0.462   1.130  0.00  0.00    +0.056 N 
ATOM     15  O   UNL     1      -1.089  -0.742   1.050  0.00  0.00    -0.126 OA
ATOM     16  O   UNL     1      -2.151   0.908   1.824  0.00  0.00    -0.126 OA
ENDBRANCH  12  14
ENDBRANCH   6   8
BRANCH   5  18
ATOM     17  C   UNL     1       3.342   5.953  -0.968  0.00  0.00    +0.028 C 
ATOM     18  C   UNL     1       2.491   5.327   0.138  0.00  0.00    +0.071 C 
ATOM     19  C   UNL     1       3.117   5.634   1.500  0.00  0.00    +0.028 C 
ENDBRANCH   5  18
ENDBRANCH   4   5
ENDBRANCH   1   4
BRANCH   3  20
ATOM     20  C   UNL     1       0.535   9.174   3.601  0.00  0.00    +0.113 C 
BRANCH  20  21
ATOM     21  C   UNL     1       1.942   9.357   4.175  0.00  0.00    +0.056 C 
BRANCH  21  22
ATOM     22  C   UNL     1       1.848   9.652   5.650  0.00  0.00    -0.021 A 
ATOM     23  C   UNL     1       1.849  10.865   6.223  0.00  0.00    +0.087 A 
ATOM     24  N   UNL     1       1.747  10.740   7.582  0.00  0.00    -0.360 N 
ATOM     25  H   UNL     1       1.724  11.479   8.210  0.00  0.00    +0.165 HD
ATOM     26  C   UNL     1       1.685   9.408   7.925  0.00  0.00    +0.047 A 
ATOM     27  C   UNL     1       1.745   8.668   6.730  0.00  0.00    +0.003 A 
ATOM     28  C   UNL     1       1.702   7.273   6.772  0.00  0.00    +0.010 A 
ATOM     29  C   UNL     1       1.600   6.633   7.975  0.00  0.00    +0.001 A 
ATOM     30  C   UNL     1       1.540   7.359   9.156  0.00  0.00    +0.002 A 
ATOM     31  C   UNL     1       1.581   8.736   9.139  0.00  0.00    +0.026 A 
ENDBRANCH  21  22
ENDBRANCH  20  21
ENDBRANCH   3  20
BRANCH   3  32
ATOM     32  C   UNL     1       0.613   9.986   1.198  0.00  0.00    +0.143 C 
BRANCH  32  33
ATOM     33  C   UNL     1      -0.811  10.386   0.911  0.00  0.00    -0.030 A 
ATOM     34  C   UNL     1      -1.530   9.725  -0.067  0.00  0.00    +0.008 A 
ATOM     35  C   UNL     1      -2.838  10.087  -0.328  0.00  0.00    +0.038 A 
ATOM     36  C   UNL     1      -3.425  11.120   0.383  0.00  0.00    +0.123 A 
ATOM     37  C   UNL     1      -2.702  11.786   1.359  0.00  0.00    +0.038 A 
ATOM     38  C   UNL     1      -1.396  11.418   1.622  0.00  0.00    +0.008 A 
ATOM     39  F   UNL     1      -4.701  11.479   0.126  0.00  0.00    -0.205 F 
ENDBRANCH  32  33
ENDBRANCH   3  32
TORSDOF 10
