REMARK  Name = ZINC38596963
REMARK  10 active torsions:
REMARK  status: ('A' for Active; 'I' for Inactive)
REMARK    1  A    between atoms: C_1  and  C_2
REMARK    2  A    between atoms: C_2  and  C_4
REMARK    3  A    between atoms: C_2  and  N_24
REMARK    4  A    between atoms: C_4  and  C_6
REMARK    5  A    between atoms: C_4  and  N_11
REMARK    6  A    between atoms: N_14  and  C_17
REMARK    7  A    between atoms: C_17  and  C_18
REMARK    8  A    between atoms: C_25  and  C_27
REMARK    9  A    between atoms: N_29  and  C_30
REMARK   10  A    between atoms: C_33  and  N_36
REMARK                            x       y       z     vdW  Elec       q    Type
REMARK                         _______ _______ _______ _____ _____    ______ ____
ROOT
ATOM      1  C   UNL     1       0.665  -0.333   1.343  0.00  0.00    +0.113 C 
ENDROOT
BRANCH   1   2
ATOM      2  N   UNL     1       1.980   0.321   1.316  0.00  0.00    -0.297 NA
ATOM      3  C   UNL     1       1.840   1.783   1.259  0.00  0.00    +0.066 C 
ATOM      4  C   UNL     1       3.228   2.422   1.172  0.00  0.00    -0.063 C 
ATOM      5  N   UNL     1       4.020   2.034   2.347  0.00  0.00    +0.384 N 
ATOM      6  C   UNL     1       4.172   0.573   2.376  0.00  0.00    -0.063 C 
ATOM      7  C   UNL     1       2.792  -0.081   2.473  0.00  0.00    +0.066 C 
ATOM      8  H   UNL     1       3.550   2.340   3.185  0.00  0.00    -0.081 HD
BRANCH   5   9
ATOM      9  C   UNL     1       5.346   2.662   2.272  0.00  0.00    -0.043 C 
BRANCH   9  10
ATOM     10  C   UNL     1       6.114   2.365   3.534  0.00  0.00    -0.064 A 
ATOM     11  C   UNL     1       6.021   3.218   4.617  0.00  0.00    +0.002 A 
ATOM     12  C   UNL     1       6.725   2.946   5.775  0.00  0.00    +0.000 A 
ATOM     13  C   UNL     1       7.524   1.820   5.849  0.00  0.00    +0.000 A 
ATOM     14  C   UNL     1       7.617   0.966   4.766  0.00  0.00    +0.000 A 
ATOM     15  C   UNL     1       6.909   1.236   3.610  0.00  0.00    +0.002 A 
ENDBRANCH   9  10
ENDBRANCH   5   9
ENDBRANCH   1   2
BRANCH   1  16
ATOM     16  C   UNL     1       0.848  -1.826   1.434  0.00  0.00    +0.009 A 
ATOM     17  C   UNL     1       0.141  -2.730   2.156  0.00  0.00    +0.013 A 
ATOM     18  C   UNL     1       0.491  -4.065   2.085  0.00  0.00    +0.008 A 
ATOM     19  C   UNL     1       1.531  -4.431   1.296  0.00  0.00    +0.045 A 
ATOM     20  S   UNL     1       2.047  -2.864   0.615  0.00  0.00    -0.100 S 
ENDBRANCH   1  16
BRANCH   1  22
ATOM     21  C   UNL     1      -1.460  -0.694   0.079  0.00  0.00    +0.030 C 
ATOM     22  C   UNL     1      -0.101   0.010   0.063  0.00  0.00    +0.092 C 
BRANCH  22  23
ATOM     23  N   UNL     1       0.667  -0.438  -1.101  0.00  0.00    -0.303 N 
ATOM     24  C   UNL     1       0.490   0.159  -2.296  0.00  0.00    +0.300 C 
ATOM     25  O   UNL     1      -0.307   1.068  -2.408  0.00  0.00    -0.265 OA
ATOM     26  H   UNL     1       1.304  -1.164  -1.011  0.00  0.00    +0.149 HD
BRANCH  24  27
ATOM     27  C   UNL     1       1.273  -0.297  -3.482  0.00  0.00    +0.303 C 
ATOM     28  O   UNL     1       2.070  -1.206  -3.371  0.00  0.00    -0.265 OA
ATOM     29  N   UNL     1       1.096   0.300  -4.678  0.00  0.00    -0.278 N 
ATOM     30  H   UNL     1       0.411   0.980  -4.783  0.00  0.00    +0.155 HD
BRANCH  29  31
ATOM     31  C   UNL     1       1.897  -0.059  -5.764  0.00  0.00    +0.034 A 
ATOM     32  C   UNL     1       2.286   0.901  -6.690  0.00  0.00    +0.025 A 
ATOM     33  C   UNL     1       3.078   0.542  -7.763  0.00  0.00    +0.034 A 
ATOM     34  C   UNL     1       3.484  -0.771  -7.916  0.00  0.00    +0.126 A 
ATOM     35  C   UNL     1       3.099  -1.729  -6.996  0.00  0.00    +0.034 A 
ATOM     36  C   UNL     1       2.312  -1.376  -5.918  0.00  0.00    +0.025 A 
BRANCH  34  37
ATOM     37  N   UNL     1       4.333  -1.152  -9.068  0.00  0.00    +0.056 N 
ATOM     38  O   UNL     1       4.670  -0.315  -9.873  0.00  0.00    -0.126 OA
ATOM     39  O   UNL     1       4.689  -2.299  -9.203  0.00  0.00    -0.126 OA
ENDBRANCH  34  37
ENDBRANCH  29  31
ENDBRANCH  24  27
ENDBRANCH  22  23
ENDBRANCH   1  22
TORSDOF 9
