REMARK  Name = ZINC23156981
REMARK  8 active torsions:
REMARK  status: ('A' for Active; 'I' for Inactive)
REMARK    1  A    between atoms: C_1  and  C_2
REMARK    2  A    between atoms: C_7  and  O_33
REMARK    3  A    between atoms: C_8  and  C_10
REMARK    4  A    between atoms: C_10  and  C_12
REMARK    5  A    between atoms: C_10  and  N_19
REMARK    6  A    between atoms: N_22  and  C_25
REMARK    7  A    between atoms: C_28  and  O_31
REMARK    8  A    between atoms: O_31  and  C_32
REMARK                            x       y       z     vdW  Elec       q    Type
REMARK                         _______ _______ _______ _____ _____    ______ ____
ROOT
ATOM      1  C   UNL     1       2.490   1.047  -0.016  0.00  0.00    +0.129 C 
ENDROOT
BRANCH   1   9
ATOM      2  C   UNL     1      -4.206   3.716  -1.931  0.00  0.00    +0.090 C 
ATOM      3  C   UNL     1      -2.890   3.218  -1.392  0.00  0.00    +0.150 A 
ATOM      4  N   UNL     1      -2.516   3.259  -0.115  0.00  0.00    -0.205 NA
ATOM      5  C   UNL     1      -1.321   2.746   0.001  0.00  0.00    +0.199 A 
ATOM      6  N   UNL     1      -0.874   2.349  -1.222  0.00  0.00    -0.173 N 
ATOM      7  N   UNL     1      -1.937   2.678  -2.103  0.00  0.00    -0.147 NA
ATOM      8  C   UNL     1       0.379   1.788  -1.282  0.00  0.00    +0.228 A 
ATOM      9  C   UNL     1       1.111   1.635  -0.172  0.00  0.00    +0.076 A 
ATOM     10  S   UNL     1       0.029   2.319   1.074  0.00  0.00    -0.047 S 
BRANCH   8  11
ATOM     11  O   UNL     1       0.877   1.379  -2.480  0.00  0.00    -0.492 OA
ATOM     12  H   UNL     1       1.880   0.929  -2.534  0.00  0.00    +0.294 HD
ENDBRANCH   8  11
ENDBRANCH   1   9
BRANCH   1  13
ATOM     13  C   UNL     1       2.387  -0.311   0.630  0.00  0.00    -0.025 A 
ATOM     14  C   UNL     1       2.578  -1.452  -0.126  0.00  0.00    +0.007 A 
ATOM     15  C   UNL     1       2.478  -2.697   0.465  0.00  0.00    +0.020 A 
ATOM     16  C   UNL     1       2.197  -2.801   1.815  0.00  0.00    +0.041 A 
ATOM     17  C   UNL     1       2.005  -1.659   2.571  0.00  0.00    +0.020 A 
ATOM     18  C   UNL     1       2.101  -0.414   1.978  0.00  0.00    +0.007 A 
ATOM     19 CL   UNL     1       2.077  -4.365   2.559  0.00  0.00    -0.084 Cl
ENDBRANCH   1  13
BRANCH   1  20
ATOM     20  N   UNL     1       3.306   1.930   0.828  0.00  0.00    -0.288 NA
ATOM     21  C   UNL     1       3.366   3.287   0.267  0.00  0.00    +0.104 C 
ATOM     22  C   UNL     1       4.157   4.193   1.213  0.00  0.00    +0.120 C 
ATOM     23  N   UNL     1       5.507   3.643   1.399  0.00  0.00    -0.327 N 
ATOM     24  C   UNL     1       5.448   2.286   1.960  0.00  0.00    +0.120 C 
ATOM     25  C   UNL     1       4.657   1.380   1.013  0.00  0.00    +0.104 C 
BRANCH  23  26
ATOM     26  C   UNL     1       6.285   4.485   2.203  0.00  0.00    +0.030 A 
ATOM     27  C   UNL     1       6.870   3.992   3.361  0.00  0.00    +0.027 A 
ATOM     28  C   UNL     1       7.643   4.821   4.151  0.00  0.00    +0.047 A 
ATOM     29  C   UNL     1       7.823   6.149   3.793  0.00  0.00    +0.120 A 
ATOM     30  C   UNL     1       7.234   6.644   2.639  0.00  0.00    +0.047 A 
ATOM     31  C   UNL     1       6.466   5.814   1.845  0.00  0.00    +0.027 A 
BRANCH  29  32
ATOM     32  O   UNL     1       8.579   6.967   4.575  0.00  0.00    -0.495 OA
ATOM     33  C   UNL     1       9.155   6.391   5.749  0.00  0.00    +0.277 C 
ENDBRANCH  29  32
ENDBRANCH  23  26
ENDBRANCH   1  20
TORSDOF 6
