REMARK  Name = ZINC25597769
REMARK  8 active torsions:
REMARK  status: ('A' for Active; 'I' for Inactive)
REMARK    1  A    between atoms: C_1  and  O_2
REMARK    2  A    between atoms: O_2  and  C_3
REMARK    3  A    between atoms: C_8  and  C_9
REMARK    4  A    between atoms: N_11  and  N_12
REMARK    5  A    between atoms: C_13  and  C_15
REMARK    6  A    between atoms: C_15  and  S_16
REMARK    7  A    between atoms: S_16  and  C_17
REMARK    8  A    between atoms: N_21  and  C_22
REMARK                            x       y       z     vdW  Elec       q    Type
REMARK                         _______ _______ _______ _____ _____    ______ ____
ROOT
ATOM      1  N   UNL     1       1.139   2.192   0.003  0.00  0.00    -0.233 N 
ATOM      2  C   UNL     1      -0.018   1.503   0.010  0.00  0.00    +0.239 C 
ATOM      3  O   UNL     1      -1.077   2.095   0.018  0.00  0.00    -0.273 OA
ATOM      4  H   UNL     1       2.099   1.655  -0.009  0.00  0.00    +0.173 HD
ENDROOT
BRANCH   1   7
ATOM      5  C   UNL     1       2.278   4.283   0.003  0.00  0.00    +0.264 C 
ATOM      6  O   UNL     1       3.340   3.689  -0.010  0.00  0.00    -0.269 OA
ATOM      7  N   UNL     1       1.121   3.593   0.011  0.00  0.00    -0.230 N 
ATOM      8  H   UNL     1       0.161   4.130   0.023  0.00  0.00    +0.173 HD
BRANCH   5  14
ATOM      9  C   UNL     1       3.460   6.479   0.004  0.00  0.00    +0.132 A 
ATOM     10  C   UNL     1       3.430   7.866   0.012  0.00  0.00    +0.048 A 
ATOM     11  C   UNL     1       2.221   8.532   0.027  0.00  0.00    +0.023 A 
ATOM     12  C   UNL     1       1.030   7.823   0.034  0.00  0.00    +0.042 A 
ATOM     13  C   UNL     1       1.041   6.444   0.021  0.00  0.00    +0.036 A 
ATOM     14  C   UNL     1       2.258   5.758   0.011  0.00  0.00    +0.081 A 
ATOM     15 CL   UNL     1      -0.483   8.675   0.054  0.00  0.00    -0.084 Cl
BRANCH   9  17
ATOM     16  C   UNL     1       5.831   6.625  -0.018  0.00  0.00    +0.277 C 
ATOM     17  O   UNL     1       4.648   5.824  -0.011  0.00  0.00    -0.494 OA
ENDBRANCH   9  17
ENDBRANCH   5  14
ENDBRANCH   1   7
BRANCH   2  18
ATOM     18  C   UNL     1       0.002  -0.004   0.002  0.00  0.00    +0.174 C 
BRANCH  18  19
ATOM     19  S   UNL     1      -1.696  -0.631   0.015  0.00  0.00    -0.078 S 
BRANCH  19  20
ATOM     20  C   UNL     1      -1.383  -2.364   0.003  0.00  0.00    +0.174 A 
ATOM     21  N   UNL     1      -0.196  -2.931  -0.018  0.00  0.00    -0.226 NA
ATOM     22  C   UNL     1      -0.342  -4.262  -0.019  0.00  0.00    +0.064 A 
ATOM     23  C   UNL     1      -1.660  -4.544  -0.008  0.00  0.00    +0.047 A 
ATOM     24  N   UNL     1      -2.331  -3.348   0.006  0.00  0.00    -0.291 N 
ATOM     25  C   UNL     1      -2.236  -5.936  -0.013  0.00  0.00    +0.056 C 
ATOM     26  C   UNL     1      -1.135  -6.914  -0.441  0.00  0.00    +0.007 C 
ATOM     27  C   UNL     1       0.129  -6.652   0.384  0.00  0.00    +0.007 C 
ATOM     28  C   UNL     1       0.744  -5.311  -0.034  0.00  0.00    +0.057 C 
BRANCH  24  29
ATOM     29  C   UNL     1      -3.721  -3.169   0.022  0.00  0.00    +0.049 A 
ATOM     30  C   UNL     1      -4.466  -3.596   1.113  0.00  0.00    +0.026 A 
ATOM     31  C   UNL     1      -5.835  -3.414   1.127  0.00  0.00    +0.002 A 
ATOM     32  C   UNL     1      -6.465  -2.817   0.051  0.00  0.00    +0.000 A 
ATOM     33  C   UNL     1      -5.727  -2.395  -1.039  0.00  0.00    +0.002 A 
ATOM     34  C   UNL     1      -4.357  -2.570  -1.057  0.00  0.00    +0.026 A 
ENDBRANCH  24  29
ENDBRANCH  19  20
ENDBRANCH  18  19
ENDBRANCH   2  18
TORSDOF 7
