REMARK  Name = ZINC13554787
REMARK  7 active torsions:
REMARK  status: ('A' for Active; 'I' for Inactive)
REMARK    1  A    between atoms: C_1  and  C_2
REMARK    2  A    between atoms: C_3  and  C_21
REMARK    3  A    between atoms: C_5  and  N_10
REMARK    4  A    between atoms: C_6  and  C_7
REMARK    5  A    between atoms: N_10  and  C_11
REMARK    6  A    between atoms: C_11  and  N_12
REMARK    7  A    between atoms: N_12  and  C_13
REMARK                            x       y       z     vdW  Elec       q    Type
REMARK                         _______ _______ _______ _____ _____    ______ ____
ROOT
ATOM      1  N   UNL     1       0.468  -3.146   2.094  0.00  0.00    -0.291 N 
ATOM      2  H   UNL     1       0.198  -2.845   2.975  0.00  0.00    +0.154 HD
ENDROOT
BRANCH   1   7
ATOM      3  C   UNL     1       1.485   1.389   0.085  0.00  0.00    +0.045 C 
ATOM      4  C   UNL     1       1.368  -0.113   0.091  0.00  0.00    -0.027 A 
ATOM      5  C   UNL     1       1.670  -0.858  -0.988  0.00  0.00    -0.008 A 
ATOM      6  S   UNL     1       1.360  -2.522  -0.438  0.00  0.00    -0.078 S 
ATOM      7  C   UNL     1       0.859  -2.224   1.135  0.00  0.00    +0.084 A 
ATOM      8  C   UNL     1       0.930  -0.844   1.259  0.00  0.00    +0.068 A 
ATOM      9  C   UNL     1       2.154  -0.395  -2.338  0.00  0.00    +0.052 C 
BRANCH   8  10
ATOM     10  C   UNL     1       0.574  -0.162   2.506  0.00  0.00    +0.244 C 
ATOM     11  O   UNL     1      -0.573   0.198   2.698  0.00  0.00    -0.270 OA
ATOM     12  N   UNL     1       1.517   0.066   3.442  0.00  0.00    -0.325 N 
ATOM     13  H   UNL     1       2.431  -0.221   3.289  0.00  0.00    +0.145 HD
ATOM     14  H   UNL     1       1.282   0.518   4.268  0.00  0.00    +0.145 HD
ENDBRANCH   8  10
ENDBRANCH   1   7
BRANCH   1  15
ATOM     15  C   UNL     1       0.465  -4.462   1.801  0.00  0.00    +0.139 C 
ATOM     16  S   UNL     1       0.942  -4.994   0.246  0.00  0.00    -0.018 S 
BRANCH  15  17
ATOM     17  N   UNL     1       0.085  -5.358   2.733  0.00  0.00    -0.297 N 
ATOM     18  H   UNL     1      -0.126  -5.063   3.633  0.00  0.00    +0.154 HD
BRANCH  17  19
ATOM     19  C   UNL     1      -0.004  -6.716   2.403  0.00  0.00    +0.033 A 
ATOM     20  C   UNL     1       1.015  -7.324   1.682  0.00  0.00    +0.026 A 
ATOM     21  C   UNL     1       0.925  -8.664   1.358  0.00  0.00    +0.040 A 
ATOM     22  C   UNL     1      -0.179  -9.400   1.752  0.00  0.00    +0.124 A 
ATOM     23  C   UNL     1      -1.196  -8.796   2.472  0.00  0.00    +0.040 A 
ATOM     24  C   UNL     1      -1.108  -7.457   2.802  0.00  0.00    +0.026 A 
ATOM     25  F   UNL     1      -0.265 -10.710   1.433  0.00  0.00    -0.205 F 
ENDBRANCH  17  19
ENDBRANCH  15  17
ENDBRANCH   1  15
TORSDOF 5
