REMARK  Name = ZINC32691096
REMARK  8 active torsions:
REMARK  status: ('A' for Active; 'I' for Inactive)
REMARK    1  A    between atoms: C_4  and  C_7
REMARK    2  A    between atoms: C_7  and  S_8
REMARK    3  A    between atoms: S_8  and  C_9
REMARK    4  A    between atoms: C_15  and  C_17
REMARK    5  A    between atoms: C_17  and  S_18
REMARK    6  A    between atoms: S_18  and  C_19
REMARK    7  A    between atoms: C_22  and  C_30
REMARK    8  A    between atoms: N_23  and  C_24
REMARK                            x       y       z     vdW  Elec       q    Type
REMARK                         _______ _______ _______ _____ _____    ______ ____
ROOT
ATOM      1  C   UNL     1       0.073   1.135   0.018  0.00  0.00    +0.173 C 
ENDROOT
BRANCH   1   8
ATOM      2  C   UNL     1      -1.486   2.664   6.032  0.00  0.00    +0.160 A 
ATOM      3  N   UNL     1      -1.834   3.290   4.918  0.00  0.00    -0.133 NA
ATOM      4  N   UNL     1      -1.460   2.888   3.783  0.00  0.00    -0.125 NA
ATOM      5  C   UNL     1      -0.698   1.817   3.634  0.00  0.00    +0.189 A 
ATOM      6  S   UNL     1      -0.506   1.332   5.347  0.00  0.00    -0.024 S 
ATOM      7  N   UNL     1      -0.194   1.231   2.475  0.00  0.00    -0.263 N 
ATOM      8  C   UNL     1      -0.473   1.769   1.272  0.00  0.00    +0.229 C 
ATOM      9  O   UNL     1      -1.163   2.764   1.197  0.00  0.00    -0.275 OA
ATOM     10  H   UNL     1       0.432   0.329   2.543  0.00  0.00    +0.157 HD
BRANCH   2  11
ATOM     11  S   UNL     1      -1.881   3.033   7.710  0.00  0.00    -0.092 S 
BRANCH  11  12
ATOM     12  C   UNL     1      -2.914   4.520   7.601  0.00  0.00    +0.111 C 
BRANCH  12  16
ATOM     13  C   UNL     1      -4.084   5.732  11.526  0.00  0.00    +0.000 A 
ATOM     14  C   UNL     1      -2.916   6.221  10.971  0.00  0.00    +0.000 A 
ATOM     15  C   UNL     1      -2.538   5.829   9.701  0.00  0.00    +0.004 A 
ATOM     16  C   UNL     1      -3.327   4.947   8.986  0.00  0.00    -0.037 A 
ATOM     17  C   UNL     1      -4.497   4.463   9.539  0.00  0.00    +0.004 A 
ATOM     18  C   UNL     1      -4.873   4.851  10.811  0.00  0.00    +0.000 A 
ENDBRANCH  12  16
ENDBRANCH  11  12
ENDBRANCH   2  11
ENDBRANCH   1   8
BRANCH   1  19
ATOM     19  S   UNL     1      -0.473   2.082  -1.424  0.00  0.00    -0.077 S 
BRANCH  19  20
ATOM     20  C   UNL     1       0.286   1.146  -2.710  0.00  0.00    +0.193 A 
ATOM     21  N   UNL     1       1.031   0.074  -2.558  0.00  0.00    -0.122 NA
ATOM     22  N   UNL     1       1.419  -0.359  -3.704  0.00  0.00    -0.128 NA
ATOM     23  C   UNL     1       0.955   0.416  -4.657  0.00  0.00    +0.165 A 
ATOM     24  N   UNL     1       0.214   1.403  -4.049  0.00  0.00    -0.299 N 
BRANCH  24  25
ATOM     25  C   UNL     1      -0.501   2.502  -4.703  0.00  0.00    +0.091 C 
ATOM     26  C   UNL     1      -0.043   3.835  -4.107  0.00  0.00    +0.025 C 
ATOM     27  C   UNL     1      -0.790   4.982  -4.790  0.00  0.00    +0.002 C 
ATOM     28  C   UNL     1      -2.294   4.815  -4.567  0.00  0.00    +0.000 C 
ATOM     29  C   UNL     1      -2.753   3.483  -5.163  0.00  0.00    +0.002 C 
ATOM     30  C   UNL     1      -2.006   2.335  -4.480  0.00  0.00    +0.025 C 
ENDBRANCH  24  25
BRANCH  23  31
ATOM     31  C   UNL     1       1.184   0.257  -6.109  0.00  0.00    +0.019 A 
ATOM     32  C   UNL     1       0.203   0.650  -7.021  0.00  0.00    +0.011 A 
ATOM     33  C   UNL     1       0.426   0.504  -8.374  0.00  0.00    +0.001 A 
ATOM     34  C   UNL     1       1.613  -0.041  -8.828  0.00  0.00    +0.000 A 
ATOM     35  C   UNL     1       2.587  -0.439  -7.930  0.00  0.00    +0.001 A 
ATOM     36  C   UNL     1       2.380  -0.293  -6.574  0.00  0.00    +0.011 A 
ENDBRANCH  23  31
ENDBRANCH  19  20
ENDBRANCH   1  19
TORSDOF 8
