REMARK  Name = ZINC39257195
REMARK  4 active torsions:
REMARK  status: ('A' for Active; 'I' for Inactive)
REMARK    1  A    between atoms: C_3  and  N_8
REMARK    2  A    between atoms: N_8  and  S_9
REMARK    3  A    between atoms: S_9  and  C_12
REMARK    4  A    between atoms: C_15  and  N_18
REMARK                            x       y       z     vdW  Elec       q    Type
REMARK                         _______ _______ _______ _____ _____    ______ ____
ROOT
ATOM      1  S   UNL     1       5.005   1.122   0.085  0.00  0.00    +0.092 S 
ATOM      2  O   UNL     1       4.963   0.437   1.329  0.00  0.00    -0.148 OA
ATOM      3  O   UNL     1       5.155   0.442  -1.154  0.00  0.00    -0.148 OA
ENDROOT
BRANCH   1   4
ATOM      4  C   UNL     1       6.333   2.276   0.190  0.00  0.00    +0.110 A 
ATOM      5  C   UNL     1       6.942   2.734  -0.964  0.00  0.00    +0.030 A 
ATOM      6  C   UNL     1       7.983   3.638  -0.885  0.00  0.00    +0.024 A 
ATOM      7  C   UNL     1       8.418   4.087   0.355  0.00  0.00    +0.025 A 
ATOM      8  C   UNL     1       7.804   3.625   1.513  0.00  0.00    +0.024 A 
ATOM      9  C   UNL     1       6.760   2.725   1.426  0.00  0.00    +0.030 A 
BRANCH   7  10
ATOM     10  N   UNL     1       9.471   5.002   0.439  0.00  0.00    -0.358 N 
ATOM     11  H   UNL     1       9.899   5.324  -0.370  0.00  0.00    +0.142 HD
ATOM     12  H   UNL     1       9.774   5.314   1.306  0.00  0.00    +0.142 HD
ENDBRANCH   7  10
ENDBRANCH   1   4
BRANCH   1  13
ATOM     13  N   UNL     1       3.604   1.997  -0.022  0.00  0.00    -0.095 NA
BRANCH  13  16
ATOM     14  C   UNL     1       1.061  -0.652  -0.087  0.00  0.00    +0.022 A 
ATOM     15  C   UNL     1       2.308  -0.048  -0.082  0.00  0.00    +0.031 A 
ATOM     16  C   UNL     1       2.369   1.342  -0.030  0.00  0.00    +0.111 A 
ATOM     17  C   UNL     1       1.184   2.068   0.015  0.00  0.00    +0.154 A 
ATOM     18  N   UNL     1       0.018   1.452   0.008  0.00  0.00    -0.242 NA
ATOM     19  C   UNL     1      -0.073   0.137  -0.041  0.00  0.00    +0.112 A 
ATOM     20 CL   UNL     1       1.240   3.802   0.081  0.00  0.00    -0.060 Cl
ENDBRANCH  13  16
ENDBRANCH   1  13
TORSDOF 4
