REMARK  Name = ZINC36604319
REMARK  12 active torsions:
REMARK  status: ('A' for Active; 'I' for Inactive)
REMARK    1  A    between atoms: C_1  and  C_2
REMARK    2  A    between atoms: C_2  and  C_3
REMARK    3  A    between atoms: C_3  and  C_4
REMARK    4  A    between atoms: C_4  and  N_5
REMARK    5  A    between atoms: C_6  and  C_8
REMARK    6  A    between atoms: C_8  and  C_10
REMARK    7  A    between atoms: C_8  and  N_15
REMARK    8  A    between atoms: N_15  and  C_16
REMARK    9  A    between atoms: C_22  and  C_24
REMARK   10  A    between atoms: C_30  and  O_32
REMARK   11  A    between atoms: O_32  and  C_33
REMARK   12  A    between atoms: C_33  and  C_34
REMARK                            x       y       z     vdW  Elec       q    Type
REMARK                         _______ _______ _______ _____ _____    ______ ____
ROOT
ATOM      1  N   UNL     1       2.333  -5.742   4.109  0.00  0.00    -0.251 N 
ATOM      2  C   UNL     1       1.932  -6.160   5.326  0.00  0.00    +0.241 C 
ATOM      3  O   UNL     1       1.299  -5.416   6.045  0.00  0.00    -0.273 OA
ENDROOT
BRANCH   2   4
ATOM      4  C   UNL     1       2.272  -7.551   5.795  0.00  0.00    +0.166 C 
ATOM      5  C   UNL     1       3.662  -7.554   6.466  0.00  0.00    +0.033 C 
ATOM      6  C   UNL     1       3.472  -8.536   7.652  0.00  0.00    +0.021 C 
ATOM      7  C   UNL     1       2.010  -8.240   8.071  0.00  0.00    +0.112 C 
ATOM      8  N   UNL     1       1.296  -7.992   6.802  0.00  0.00    -0.256 N 
ATOM      9  C   UNL     1      -0.028  -8.142   6.599  0.00  0.00    +0.404 C 
ATOM     10  O   UNL     1      -0.506  -7.906   5.508  0.00  0.00    -0.226 OA
BRANCH   9  11
ATOM     11  O   UNL     1      -0.820  -8.554   7.607  0.00  0.00    -0.445 OA
BRANCH  11  12
ATOM     12  C   UNL     1      -2.214  -8.692   7.321  0.00  0.00    +0.269 C 
BRANCH  12  13
ATOM     13  C   UNL     1      -2.936  -9.159   8.559  0.00  0.00    -0.010 A 
ATOM     14  C   UNL     1      -3.084 -10.511   8.804  0.00  0.00    +0.007 A 
ATOM     15  C   UNL     1      -3.747 -10.939   9.940  0.00  0.00    +0.000 A 
ATOM     16  C   UNL     1      -4.261 -10.015  10.829  0.00  0.00    +0.000 A 
ATOM     17  C   UNL     1      -4.113  -8.663  10.584  0.00  0.00    +0.000 A 
ATOM     18  C   UNL     1      -3.447  -8.235   9.451  0.00  0.00    +0.007 A 
ENDBRANCH  12  13
ENDBRANCH  11  12
ENDBRANCH   9  11
ENDBRANCH   2   4
BRANCH   1  19
ATOM     19  C   UNL     1       3.150  -6.561   3.322  0.00  0.00    +0.038 A 
ATOM     20  C   UNL     1       4.529  -6.407   3.357  0.00  0.00    +0.023 A 
ATOM     21  C   UNL     1       5.333  -7.217   2.580  0.00  0.00    +0.002 A 
ATOM     22  C   UNL     1       4.766  -8.181   1.766  0.00  0.00    +0.000 A 
ATOM     23  C   UNL     1       3.392  -8.336   1.729  0.00  0.00    +0.002 A 
ATOM     24  C   UNL     1       2.583  -7.533   2.508  0.00  0.00    +0.023 A 
ENDBRANCH   1  19
BRANCH   1  25
ATOM     25  C   UNL     1       1.912  -4.430   3.610  0.00  0.00    +0.233 C 
BRANCH  25  26
ATOM     26  C   UNL     1       3.126  -3.633   3.207  0.00  0.00    +0.135 A 
ATOM     27  C   UNL     1       3.392  -2.366   3.573  0.00  0.00    +0.047 A 
ATOM     28  C   UNL     1       4.624  -2.017   2.973  0.00  0.00    +0.041 A 
ATOM     29  C   UNL     1       5.037  -3.091   2.277  0.00  0.00    +0.195 A 
ATOM     30  O   UNL     1       4.128  -4.069   2.427  0.00  0.00    -0.465 OA
ENDBRANCH  25  26
BRANCH  25  32
ATOM     31  N   UNL     1       0.500  -3.536   1.786  0.00  0.00    -0.313 N 
ATOM     32  C   UNL     1       1.012  -4.612   2.415  0.00  0.00    +0.242 C 
ATOM     33  O   UNL     1       0.747  -5.728   2.020  0.00  0.00    -0.273 OA
ATOM     34  H   UNL     1       0.712  -2.643   2.103  0.00  0.00    +0.149 HD
BRANCH  31  35
ATOM     35  C   UNL     1      -0.375  -3.713   0.625  0.00  0.00    +0.104 C 
BRANCH  35  36
ATOM     36  C   UNL     1      -0.814  -2.343   0.104  0.00  0.00    +0.018 C 
BRANCH  36  38
ATOM     37  C   UNL     1      -2.167  -1.158  -1.631  0.00  0.00    +0.004 C 
ATOM     38  C   UNL     1      -1.728  -2.528  -1.109  0.00  0.00    -0.002 C 
ENDBRANCH  36  38
ENDBRANCH  35  36
ENDBRANCH  31  35
ENDBRANCH  25  32
ENDBRANCH   1  25
TORSDOF 11
