REMARK  Name = ZINC04347949
REMARK  5 active torsions:
REMARK  status: ('A' for Active; 'I' for Inactive)
REMARK    1  A    between atoms: C_7  and  N_23
REMARK    2  A    between atoms: C_10  and  N_11
REMARK    3  A    between atoms: N_12  and  C_13
REMARK    4  A    between atoms: C_16  and  S_19
REMARK    5  A    between atoms: S_19  and  N_22
REMARK                            x       y       z     vdW  Elec       q    Type
REMARK                         _______ _______ _______ _____ _____    ______ ____
ROOT
ATOM      1  N   UNL     1       4.884   0.036  -0.044  0.00  0.00    -0.149 NA
ATOM      2  N   UNL     1       6.004  -0.604  -0.058  0.00  0.00    -0.149 NA
ENDROOT
BRANCH   1  12
ATOM      3  C   UNL     1      -0.016   1.359   0.009  0.00  0.00    +0.001 A 
ATOM      4  C   UNL     1       1.168   2.091   0.002  0.00  0.00    +0.001 A 
ATOM      5  C   UNL     1       2.378   1.463  -0.013  0.00  0.00    +0.011 A 
ATOM      6  C   UNL     1       2.433   0.065  -0.021  0.00  0.00    +0.011 A 
ATOM      7  C   UNL     1       1.231  -0.681  -0.013  0.00  0.00    +0.005 A 
ATOM      8  C   UNL     1       0.002  -0.004   0.002  0.00  0.00    +0.010 A 
ATOM      9  C   UNL     1       1.290  -2.093  -0.021  0.00  0.00    +0.032 A 
ATOM     10  C   UNL     1       2.510  -2.742  -0.036  0.00  0.00    +0.025 A 
ATOM     11  C   UNL     1       3.703  -2.042  -0.044  0.00  0.00    +0.032 A 
ATOM     12  C   UNL     1       3.710  -0.649  -0.036  0.00  0.00    +0.094 A 
BRANCH   9  13
ATOM     13  N   UNL     1       0.116  -2.832  -0.014  0.00  0.00    -0.357 N 
ATOM     14  H   UNL     1      -0.742  -2.380  -0.004  0.00  0.00    +0.142 HD
ATOM     15  H   UNL     1       0.153  -3.801  -0.020  0.00  0.00    +0.142 HD
ENDBRANCH   9  13
ENDBRANCH   1  12
BRANCH   2  16
ATOM     16  C   UNL     1       7.184   0.085  -0.066  0.00  0.00    +0.086 A 
ATOM     17  C   UNL     1       7.182   1.482  -0.054  0.00  0.00    +0.031 A 
ATOM     18  C   UNL     1       8.377   2.170  -0.061  0.00  0.00    +0.030 A 
ATOM     19  C   UNL     1       9.576   1.480  -0.082  0.00  0.00    +0.105 A 
ATOM     20  C   UNL     1       9.586   0.096  -0.094  0.00  0.00    +0.030 A 
ATOM     21  C   UNL     1       8.399  -0.605  -0.081  0.00  0.00    +0.031 A 
BRANCH  19  22
ATOM     22  S   UNL     1      11.098   2.368  -0.093  0.00  0.00    +0.056 S 
ATOM     23  O   UNL     1      12.070   1.502  -0.663  0.00  0.00    -0.153 OA
ATOM     24  O   UNL     1      10.815   3.653  -0.629  0.00  0.00    -0.153 OA
BRANCH  22  25
ATOM     25  N   UNL     1      11.540   2.601   1.486  0.00  0.00    -0.204 NA
ATOM     26  H   UNL     1      10.980   2.263   2.202  0.00  0.00    +0.144 HD
ATOM     27  H   UNL     1      12.360   3.076   1.695  0.00  0.00    +0.144 HD
ENDBRANCH  22  25
ENDBRANCH  19  22
ENDBRANCH   2  16
TORSDOF 5
