REMARK  Name = ZINC03574179
REMARK  5 active torsions:
REMARK  status: ('A' for Active; 'I' for Inactive)
REMARK    1  A    between atoms: C_3  and  N_20
REMARK    2  A    between atoms: C_6  and  C_7
REMARK    3  A    between atoms: N_9  and  N_10
REMARK    4  A    between atoms: C_11  and  C_12
REMARK    5  A    between atoms: C_15  and  O_19
REMARK                            x       y       z     vdW  Elec       q    Type
REMARK                         _______ _______ _______ _____ _____    ______ ____
ROOT
ATOM      1  C   UNL     1      -1.264  -0.760   0.011  0.00  0.00    +0.263 C 
ATOM      2  O   UNL     1      -2.326  -0.168   0.024  0.00  0.00    -0.268 OA
ATOM      3  N   UNL     1      -1.244  -2.108   0.003  0.00  0.00    -0.203 N 
ATOM      4  H   UNL     1      -0.397  -2.580  -0.008  0.00  0.00    +0.178 HD
ENDROOT
BRANCH   1  10
ATOM      5  C   UNL     1      -0.017   1.394   0.010  0.00  0.00    +0.015 A 
ATOM      6  C   UNL     1       1.166   2.097   0.002  0.00  0.00    +0.023 A 
ATOM      7  C   UNL     1       2.381   1.417  -0.013  0.00  0.00    +0.025 A 
ATOM      8  C   UNL     1       2.404   0.025  -0.022  0.00  0.00    +0.023 A 
ATOM      9  C   UNL     1       1.224  -0.684  -0.014  0.00  0.00    +0.015 A 
ATOM     10  C   UNL     1       0.002  -0.004   0.002  0.00  0.00    +0.038 A 
BRANCH   7  11
ATOM     11  N   UNL     1       3.575   2.130  -0.022  0.00  0.00    -0.358 N 
ATOM     12  H   UNL     1       3.561   3.100  -0.016  0.00  0.00    +0.142 HD
ATOM     13  H   UNL     1       4.422   1.658  -0.033  0.00  0.00    +0.142 HD
ENDBRANCH   7  11
ENDBRANCH   1  10
BRANCH   3  14
ATOM     14  N   UNL     1      -2.447  -2.826   0.011  0.00  0.00    -0.187 NA
ATOM     15  C   UNL     1      -2.428  -4.124   0.004  0.00  0.00    +0.138 C 
BRANCH  15  16
ATOM     16  C   UNL     1      -3.693  -4.880   0.013  0.00  0.00    -0.004 A 
ATOM     17  C   UNL     1      -4.915  -4.202   0.022  0.00  0.00    +0.013 A 
ATOM     18  C   UNL     1      -6.096  -4.912   0.030  0.00  0.00    +0.047 A 
ATOM     19  C   UNL     1      -6.073  -6.301   0.028  0.00  0.00    +0.131 A 
ATOM     20  C   UNL     1      -4.861  -6.980   0.018  0.00  0.00    +0.060 A 
ATOM     21  C   UNL     1      -3.675  -6.277   0.005  0.00  0.00    +0.028 A 
ATOM     22 BR   UNL     1      -4.839  -8.871   0.016  0.00  0.00    -0.047 Br
BRANCH  19  23
ATOM     23  O   UNL     1      -7.240  -6.997   0.036  0.00  0.00    -0.506 OA
ATOM     24  H   UNL     1      -7.585  -7.197  -0.845  0.00  0.00    +0.292 HD
ENDBRANCH  19  23
ENDBRANCH  15  16
ENDBRANCH   3  14
TORSDOF 5
