REMARK  Name = ZINC35072681
REMARK  15 active torsions:
REMARK  status: ('A' for Active; 'I' for Inactive)
REMARK    1  A    between atoms: C_1  and  C_2
REMARK    2  A    between atoms: C_2  and  C_4
REMARK    3  A    between atoms: C_2  and  N_23
REMARK    4  A    between atoms: N_14  and  C_15
REMARK    5  A    between atoms: C_20  and  O_21
REMARK    6  A    between atoms: O_21  and  C_22
REMARK    7  A    between atoms: N_23  and  C_24
REMARK    8  A    between atoms: C_24  and  C_25
REMARK    9  A    between atoms: C_25  and  C_26
REMARK   10  A    between atoms: C_25  and  C_27
REMARK   11  A    between atoms: N_30  and  C_31
REMARK   12  A    between atoms: C_34  and  O_39
REMARK   13  A    between atoms: C_36  and  O_37
REMARK   14  A    between atoms: O_37  and  C_38
REMARK   15  A    between atoms: O_39  and  C_40
REMARK                            x       y       z     vdW  Elec       q    Type
REMARK                         _______ _______ _______ _____ _____    ______ ____
ROOT
ATOM      1  C   UNL     1       0.345   1.606   0.307  0.00  0.00    +0.036 C 
ATOM      2  C   UNL     1       0.095   0.139  -0.047  0.00  0.00    +0.141 C 
ENDROOT
BRANCH   2   3
ATOM      3  C   UNL     1       0.960  -0.742   0.817  0.00  0.00    +0.138 A 
ATOM      4  N   UNL     1       2.239  -0.514   0.843  0.00  0.00    -0.231 NA
ATOM      5  C   UNL     1       3.079  -1.266   1.597  0.00  0.00    +0.078 A 
ATOM      6  C   UNL     1       4.454  -1.021   1.626  0.00  0.00    +0.028 A 
ATOM      7  C   UNL     1       5.270  -1.809   2.406  0.00  0.00    +0.002 A 
ATOM      8  C   UNL     1       4.744  -2.845   3.167  0.00  0.00    +0.001 A 
ATOM      9  C   UNL     1       3.391  -3.106   3.155  0.00  0.00    +0.015 A 
ATOM     10  C   UNL     1       2.547  -2.320   2.372  0.00  0.00    +0.065 A 
ATOM     11  C   UNL     1       1.096  -2.551   2.320  0.00  0.00    +0.266 A 
ATOM     12  O   UNL     1       0.575  -3.443   2.964  0.00  0.00    -0.267 OA
ATOM     13  N   UNL     1       0.362  -1.730   1.534  0.00  0.00    -0.259 N 
BRANCH  13  14
ATOM     14  C   UNL     1      -1.027  -1.904   1.453  0.00  0.00    +0.093 A 
ATOM     15  C   UNL     1      -1.573  -2.676   0.438  0.00  0.00    +0.030 A 
ATOM     16  C   UNL     1      -2.942  -2.846   0.361  0.00  0.00    +0.002 A 
ATOM     17  C   UNL     1      -3.771  -2.248   1.293  0.00  0.00    +0.004 A 
ATOM     18  C   UNL     1      -3.233  -1.478   2.307  0.00  0.00    +0.048 A 
ATOM     19  C   UNL     1      -1.861  -1.307   2.396  0.00  0.00    +0.144 A 
BRANCH  19  20
ATOM     20  O   UNL     1      -1.331  -0.555   3.396  0.00  0.00    -0.493 OA
ATOM     21  C   UNL     1      -2.247   0.026   4.326  0.00  0.00    +0.277 C 
ENDBRANCH  19  20
ENDBRANCH  13  14
ENDBRANCH   2   3
BRANCH   2  22
ATOM     22  N   UNL     1       0.424  -0.085  -1.457  0.00  0.00    -0.275 N 
ATOM     23  C   UNL     1      -0.548  -0.410  -2.333  0.00  0.00    +0.307 C 
ATOM     24  O   UNL     1      -1.698  -0.516  -1.953  0.00  0.00    -0.252 OA
ATOM     25  N   UNL     1      -0.245  -0.616  -3.630  0.00  0.00    -0.266 N 
ATOM     26  H   UNL     1       0.679  -0.588  -3.922  0.00  0.00    +0.156 HD
BRANCH  25  27
ATOM     27  C   UNL     1      -1.268  -0.872  -4.557  0.00  0.00    +0.077 A 
ATOM     28  C   UNL     1      -2.463  -1.434  -4.135  0.00  0.00    +0.030 A 
ATOM     29  C   UNL     1      -3.469  -1.686  -5.048  0.00  0.00    +0.047 A 
ATOM     30  C   UNL     1      -3.286  -1.377  -6.388  0.00  0.00    +0.124 A 
ATOM     31  C   UNL     1      -2.093  -0.815  -6.815  0.00  0.00    +0.093 A 
ATOM     32  C   UNL     1      -1.085  -0.555  -5.901  0.00  0.00    +0.145 A 
BRANCH  32  33
ATOM     33  O   UNL     1       0.084   0.003  -6.316  0.00  0.00    -0.493 OA
ATOM     34  C   UNL     1       0.201   0.301  -7.709  0.00  0.00    +0.277 C 
ENDBRANCH  32  33
BRANCH  30  35
ATOM     35  O   UNL     1      -4.278  -1.627  -7.284  0.00  0.00    -0.495 OA
ATOM     36  C   UNL     1      -5.481  -2.208  -6.775  0.00  0.00    +0.277 C 
ENDBRANCH  30  35
ENDBRANCH  25  27
BRANCH  22  37
ATOM     37  C   UNL     1       1.810   0.043  -1.915  0.00  0.00    +0.113 C 
BRANCH  37  38
ATOM     38  C   UNL     1       2.498  -1.322  -1.845  0.00  0.00    +0.000 C 
ATOM     39  C   UNL     1       1.841  -2.277  -2.843  0.00  0.00    +0.009 C 
ATOM     40  C   UNL     1       3.980  -1.164  -2.190  0.00  0.00    +0.009 C 
ENDBRANCH  37  38
ENDBRANCH  22  37
ENDBRANCH   2  22
TORSDOF 9
