REMARK  Name = ZINC08965990
REMARK  12 active torsions:
REMARK  status: ('A' for Active; 'I' for Inactive)
REMARK    1  A    between atoms: C_1  and  C_2
REMARK    2  A    between atoms: C_2  and  C_3
REMARK    3  A    between atoms: C_2  and  C_4
REMARK    4  A    between atoms: C_7  and  S_10
REMARK    5  A    between atoms: S_10  and  N_13
REMARK    6  A    between atoms: C_18  and  C_20
REMARK    7  A    between atoms: C_18  and  C_21
REMARK    8  A    between atoms: C_18  and  N_66
REMARK    9  A    between atoms: N_23  and  C_24
REMARK   10  A    between atoms: C_27  and  N_30
REMARK   11  A    between atoms: N_30  and  C_31
REMARK   12  A    between atoms: N_30  and  C_32
REMARK                            x       y       z     vdW  Elec       q    Type
REMARK                         _______ _______ _______ _____ _____    ______ ____
ROOT
ATOM      1  N   UNL     1       2.017  -3.055  -2.247  0.00  0.00    -0.180 NA
ATOM      2  C   UNL     1       2.454  -1.651  -2.262  0.00  0.00    +0.091 C 
ATOM      3  C   UNL     1       1.905  -0.957  -1.011  0.00  0.00    -0.060 C 
ATOM      4  C   UNL     1       0.111  -2.577  -0.804  0.00  0.00    -0.060 C 
ATOM      5  C   UNL     1       0.588  -3.337  -2.047  0.00  0.00    +0.091 C 
ATOM      6  N   UNL     1       0.438  -1.144  -0.970  0.00  0.00    +0.389 N 
ATOM      7  H   UNL     1       0.035  -0.811  -1.854  0.00  0.00    -0.081 HD
ENDROOT
BRANCH   1   8
ATOM      8  S   UNL     1       3.106  -4.286  -2.452  0.00  0.00    +0.061 S 
ATOM      9  O   UNL     1       2.371  -5.400  -2.941  0.00  0.00    -0.153 OA
ATOM     10  O   UNL     1       4.213  -3.737  -3.153  0.00  0.00    -0.153 OA
BRANCH   8  14
ATOM     11  C   UNL     1       4.617  -5.434   1.657  0.00  0.00    -0.045 A 
ATOM     12  C   UNL     1       3.501  -6.058   1.132  0.00  0.00    +0.006 A 
ATOM     13  C   UNL     1       3.040  -5.708  -0.123  0.00  0.00    +0.029 A 
ATOM     14  C   UNL     1       3.694  -4.733  -0.853  0.00  0.00    +0.105 A 
ATOM     15  C   UNL     1       4.813  -4.113  -0.330  0.00  0.00    +0.029 A 
ATOM     16  C   UNL     1       5.272  -4.460   0.927  0.00  0.00    +0.006 A 
BRANCH  11  18
ATOM     17  C   UNL     1       6.554  -6.338   2.915  0.00  0.00    +0.012 C 
ATOM     18  C   UNL     1       5.120  -5.816   3.026  0.00  0.00    +0.013 C 
ATOM     19  C   UNL     1       5.094  -4.589   3.939  0.00  0.00    +0.012 C 
ENDBRANCH  11  18
ENDBRANCH   8  14
ENDBRANCH   1   8
BRANCH   6  20
ATOM     20  C   UNL     1      -0.139  -0.363   0.144  0.00  0.00    +0.017 C 
ATOM     21  C   UNL     1       0.660  -0.588   1.429  0.00  0.00    -0.004 C 
BRANCH  20  22
ATOM     22  C   UNL     1      -0.103   1.099  -0.222  0.00  0.00    +0.203 C 
ATOM     23  O   UNL     1       0.474   1.459  -1.226  0.00  0.00    -0.277 OA
ATOM     24  N   UNL     1      -0.711   2.006   0.568  0.00  0.00    -0.287 N 
ATOM     25  H   UNL     1      -1.114   1.728   1.405  0.00  0.00    +0.155 HD
BRANCH  24  26
ATOM     26  C   UNL     1      -0.761   3.352   0.180  0.00  0.00    +0.033 A 
ATOM     27  C   UNL     1       0.308   3.917  -0.503  0.00  0.00    +0.025 A 
ATOM     28  C   UNL     1       0.256   5.242  -0.890  0.00  0.00    +0.025 A 
ATOM     29  C   UNL     1      -0.860   6.010  -0.589  0.00  0.00    +0.029 A 
ATOM     30  C   UNL     1      -1.927   5.446   0.099  0.00  0.00    +0.025 A 
ATOM     31  C   UNL     1      -1.877   4.120   0.482  0.00  0.00    +0.025 A 
BRANCH  29  32
ATOM     32  N   UNL     1      -0.911   7.353  -0.977  0.00  0.00    -0.336 N 
ATOM     33  C   UNL     1      -2.030   8.197  -0.553  0.00  0.00    +0.129 C 
ATOM     34  C   UNL     1       0.156   7.916  -1.809  0.00  0.00    +0.129 C 
ENDBRANCH  29  32
ENDBRANCH  24  26
ENDBRANCH  20  22
ENDBRANCH   6  20
TORSDOF 7
