REMARK  Name = ZINC44944444
REMARK  14 active torsions:
REMARK  status: ('A' for Active; 'I' for Inactive)
REMARK    1  A    between atoms: C_1  and  C_2
REMARK    2  A    between atoms: C_6  and  C_8
REMARK    3  A    between atoms: C_8  and  S_9
REMARK    4  A    between atoms: S_9  and  C_10
REMARK    5  A    between atoms: C_10  and  C_11
REMARK    6  A    between atoms: C_11  and  C_12
REMARK    7  A    between atoms: C_12  and  N_13
REMARK    8  A    between atoms: C_14  and  C_16
REMARK    9  A    between atoms: N_19  and  S_31
REMARK   10  A    between atoms: C_22  and  C_27
REMARK   11  A    between atoms: C_27  and  C_28
REMARK   12  A    between atoms: C_27  and  C_29
REMARK   13  A    between atoms: C_27  and  C_30
REMARK   14  A    between atoms: S_31  and  C_34
REMARK                            x       y       z     vdW  Elec       q    Type
REMARK                         _______ _______ _______ _____ _____    ______ ____
ROOT
ATOM      1  C   UNL     1       5.724  -6.393   8.653  0.00  0.00    +0.277 C 
ATOM      2  C   UNL     1       6.431  -5.082   9.027  0.00  0.00    +0.185 C 
ATOM      3  N   UNL     1       7.744  -5.430   9.595  0.00  0.00    -0.200 N 
ATOM      4  C   UNL     1       7.804  -6.516  10.483  0.00  0.00    +0.093 A 
ATOM      5  C   UNL     1       8.932  -6.714  11.263  0.00  0.00    +0.032 A 
ATOM      6  C   UNL     1       8.987  -7.787  12.134  0.00  0.00    -0.040 A 
ATOM      7  C   UNL     1       7.919  -8.659  12.227  0.00  0.00    +0.008 A 
ATOM      8  C   UNL     1       6.790  -8.465  11.453  0.00  0.00    +0.048 A 
ATOM      9  C   UNL     1       6.725  -7.392  10.577  0.00  0.00    +0.144 A 
ATOM     10  O   UNL     1       5.609  -7.207   9.823  0.00  0.00    -0.476 OA
ENDROOT
BRANCH   1  12
ATOM     11  N   UNL     1       4.217  -5.414   6.953  0.00  0.00    -0.312 N 
ATOM     12  C   UNL     1       4.351  -6.090   8.112  0.00  0.00    +0.255 C 
ATOM     13  O   UNL     1       3.366  -6.454   8.718  0.00  0.00    -0.272 OA
ATOM     14  H   UNL     1       5.005  -5.122   6.468  0.00  0.00    +0.149 HD
BRANCH  11  15
ATOM     15  C   UNL     1       2.882  -5.119   6.427  0.00  0.00    +0.105 C 
BRANCH  15  16
ATOM     16  C   UNL     1       3.011  -4.349   5.111  0.00  0.00    +0.029 C 
BRANCH  16  17
ATOM     17  C   UNL     1       1.617  -4.041   4.561  0.00  0.00    +0.071 C 
BRANCH  17  18
ATOM     18  S   UNL     1       1.770  -3.127   3.002  0.00  0.00    -0.156 S 
BRANCH  18  19
ATOM     19  C   UNL     1       0.054  -2.845   2.489  0.00  0.00    +0.104 C 
BRANCH  19  25
ATOM     20  C   UNL     1      -0.018   1.503   0.010  0.00  0.00    +0.044 C 
ATOM     21  C   UNL     1       0.002  -0.004   0.002  0.00  0.00    -0.050 A 
ATOM     22  C   UNL     1       0.006  -0.689  -1.199  0.00  0.00    +0.003 A 
ATOM     23  C   UNL     1       0.025  -2.071  -1.207  0.00  0.00    +0.001 A 
ATOM     24  C   UNL     1       0.040  -2.768  -0.013  0.00  0.00    +0.004 A 
ATOM     25  C   UNL     1       0.037  -2.084   1.188  0.00  0.00    -0.037 A 
ATOM     26  C   UNL     1       0.023  -0.702   1.195  0.00  0.00    +0.007 A 
ENDBRANCH  19  25
ENDBRANCH  18  19
ENDBRANCH  17  18
ENDBRANCH  16  17
ENDBRANCH  15  16
ENDBRANCH  11  15
ENDBRANCH   1  12
BRANCH   6  27
ATOM     27  C   UNL     1      10.213  -8.004  12.984  0.00  0.00    -0.013 C 
ATOM     28  C   UNL     1      10.434  -6.786  13.882  0.00  0.00    +0.015 C 
ATOM     29  C   UNL     1      10.018  -9.249  13.851  0.00  0.00    +0.015 C 
ATOM     30  C   UNL     1      11.432  -8.199  12.080  0.00  0.00    +0.015 C 
ENDBRANCH   6  27
BRANCH   3  31
ATOM     31  S   UNL     1       9.104  -4.572   9.199  0.00  0.00    +0.043 S 
ATOM     32  O   UNL     1      10.176  -5.486   9.385  0.00  0.00    -0.155 OA
ATOM     33  O   UNL     1       8.829  -4.029   7.915  0.00  0.00    -0.155 OA
ATOM     34  C   UNL     1       9.193  -3.245  10.432  0.00  0.00    +0.218 C 
ENDBRANCH   3  31
TORSDOF 9
