REMARK  Name = ZINC13600672
REMARK  6 active torsions:
REMARK  status: ('A' for Active; 'I' for Inactive)
REMARK    1  A    between atoms: C_1  and  C_2
REMARK    2  A    between atoms: C_2  and  C_20
REMARK    3  A    between atoms: C_6  and  N_9
REMARK    4  A    between atoms: N_9  and  C_10
REMARK    5  A    between atoms: C_10  and  N_12
REMARK    6  A    between atoms: N_12  and  C_13
REMARK                            x       y       z     vdW  Elec       q    Type
REMARK                         _______ _______ _______ _____ _____    ______ ____
ROOT
ATOM      1  C   UNL     1       1.527  -3.931   2.721  0.00  0.00    +0.135 C 
ATOM      2  S   UNL     1       0.778  -5.133   1.759  0.00  0.00    -0.019 S 
ENDROOT
BRANCH   1   3
ATOM      3  N   UNL     1       1.785  -2.715   2.200  0.00  0.00    -0.323 N 
ATOM      4  H   UNL     1       2.210  -2.034   2.746  0.00  0.00    +0.148 HD
BRANCH   3  10
ATOM      5  C   UNL     1       0.652   0.901  -0.975  0.00  0.00    +0.011 C 
ATOM      6  C   UNL     1       0.850  -0.607  -0.808  0.00  0.00    -0.033 C 
ATOM      7  C   UNL     1       1.970  -1.081  -1.736  0.00  0.00    +0.006 C 
ATOM      8  C   UNL     1       2.169  -2.588  -1.568  0.00  0.00    +0.002 C 
ATOM      9  C   UNL     1       2.545  -2.895  -0.117  0.00  0.00    +0.022 C 
ATOM     10  C   UNL     1       1.425  -2.421   0.811  0.00  0.00    +0.072 C 
ATOM     11  C   UNL     1       1.226  -0.914   0.643  0.00  0.00    +0.028 C 
ATOM     12  C   UNL     1      -0.448  -1.335  -1.162  0.00  0.00    +0.011 C 
ENDBRANCH   3  10
ENDBRANCH   1   3
BRANCH   1  13
ATOM     13  N   UNL     1       1.859  -4.201   3.999  0.00  0.00    -0.296 N 
ATOM     14  H   UNL     1       2.338  -3.542   4.526  0.00  0.00    +0.154 HD
BRANCH  13  15
ATOM     15  C   UNL     1       1.510  -5.434   4.568  0.00  0.00    +0.051 A 
ATOM     16  C   UNL     1       1.711  -6.619   3.862  0.00  0.00    +0.028 A 
ATOM     17  C   UNL     1       1.353  -7.812   4.462  0.00  0.00    +0.045 A 
ATOM     18  C   UNL     1       0.808  -7.790   5.742  0.00  0.00    +0.116 A 
ATOM     19  N   UNL     1       0.632  -6.646   6.383  0.00  0.00    -0.239 NA
ATOM     20  C   UNL     1       0.967  -5.490   5.843  0.00  0.00    +0.136 A 
ATOM     21  N   UNL     1       0.443  -8.986   6.354  0.00  0.00    -0.343 N 
ATOM     22  H   UNL     1       0.570  -9.828   5.889  0.00  0.00    +0.144 HD
ATOM     23  H   UNL     1       0.063  -8.978   7.247  0.00  0.00    +0.144 HD
ENDBRANCH  13  15
ENDBRANCH   1  13
TORSDOF 4
