REMARK  Name = ZINC38872863
REMARK  10 active torsions:
REMARK  status: ('A' for Active; 'I' for Inactive)
REMARK    1  A    between atoms: C_1  and  C_2
REMARK    2  A    between atoms: C_2  and  C_3
REMARK    3  A    between atoms: C_2  and  C_4
REMARK    4  A    between atoms: C_2  and  N_5
REMARK    5  A    between atoms: C_6  and  C_8
REMARK    6  A    between atoms: C_13  and  N_14
REMARK    7  A    between atoms: C_15  and  C_17
REMARK    8  A    between atoms: N_20  and  C_23
REMARK    9  A    between atoms: C_23  and  C_24
REMARK   10  A    between atoms: C_26  and  C_29
REMARK                            x       y       z     vdW  Elec       q    Type
REMARK                         _______ _______ _______ _____ _____    ______ ____
ROOT
ATOM      1  N   UNL     1       4.531   0.699  -1.998  0.00  0.00    -0.285 N 
ATOM      2  C   UNL     1       5.741   1.220  -2.282  0.00  0.00    +0.220 C 
ATOM      3  O   UNL     1       6.260   0.998  -3.355  0.00  0.00    -0.275 OA
ATOM      4  H   UNL     1       4.089   0.925  -1.165  0.00  0.00    +0.155 HD
ENDROOT
BRANCH   2   5
ATOM      5  C   UNL     1       6.449   2.079  -1.266  0.00  0.00    +0.072 C 
ATOM      6  C   UNL     1       5.591   3.308  -0.949  0.00  0.00    -0.006 C 
ATOM      7  C   UNL     1       6.350   4.215   0.022  0.00  0.00    -0.077 C 
ATOM      8  N   UNL     1       7.614   4.644  -0.589  0.00  0.00    +0.386 N 
ATOM      9  C   UNL     1       8.471   3.477  -0.830  0.00  0.00    -0.077 C 
ATOM     10  C   UNL     1       7.794   2.541  -1.834  0.00  0.00    -0.006 C 
ATOM     11  H   UNL     1       7.423   5.106  -1.465  0.00  0.00    -0.081 HD
BRANCH   8  12
ATOM     12  C   UNL     1       8.302   5.576   0.315  0.00  0.00    +0.022 C 
BRANCH  12  13
ATOM     13  C   UNL     1       9.538   6.111  -0.362  0.00  0.00    +0.211 A 
ATOM     14  N   UNL     1       9.598   7.185  -1.096  0.00  0.00    -0.192 NA
ATOM     15  C   UNL     1      10.855   7.368  -1.542  0.00  0.00    +0.209 A 
ATOM     16  N   UNL     1      11.607   6.394  -1.084  0.00  0.00    -0.056 NA
ATOM     17  O   UNL     1      10.759   5.565  -0.304  0.00  0.00    -0.340 OA
BRANCH  15  18
ATOM     18  C   UNL     1      11.312   8.479  -2.403  0.00  0.00    +0.060 A 
ATOM     19  C   UNL     1      12.564   8.728  -2.899  0.00  0.00    +0.019 A 
ATOM     20  C   UNL     1      12.754   9.838  -3.690  0.00  0.00    +0.008 A 
ATOM     21  C   UNL     1      11.697  10.651  -3.954  0.00  0.00    +0.046 A 
ATOM     22  S   UNL     1      10.373   9.841  -3.073  0.00  0.00    -0.093 S 
ENDBRANCH  15  18
ENDBRANCH  12  13
ENDBRANCH   8  12
ENDBRANCH   2   5
BRANCH   1  28
ATOM     23  C   UNL     1       3.270  -1.322  -2.441  0.00  0.00    +0.058 A 
ATOM     24  C   UNL     1       2.652  -2.177  -3.357  0.00  0.00    +0.015 A 
ATOM     25  C   UNL     1       2.684  -1.883  -4.702  0.00  0.00    +0.001 A 
ATOM     26  C   UNL     1       3.327  -0.741  -5.154  0.00  0.00    +0.002 A 
ATOM     27  C   UNL     1       3.942   0.113  -4.261  0.00  0.00    +0.024 A 
ATOM     28  C   UNL     1       3.915  -0.165  -2.901  0.00  0.00    +0.046 A 
BRANCH  23  30
ATOM     29  N   UNL     1       2.519  -2.678  -0.550  0.00  0.00    -0.307 N 
ATOM     30  C   UNL     1       3.239  -1.631  -0.999  0.00  0.00    +0.246 C 
ATOM     31  O   UNL     1       3.864  -0.942  -0.216  0.00  0.00    -0.270 OA
ATOM     32  H   UNL     1       2.020  -3.228  -1.175  0.00  0.00    +0.150 HD
BRANCH  29  34
ATOM     33  C   UNL     1       1.920  -1.789   1.648  0.00  0.00    +0.031 C 
ATOM     34  C   UNL     1       2.488  -2.985   0.882  0.00  0.00    +0.026 C 
ATOM     35  C   UNL     1       3.908  -3.276   1.372  0.00  0.00    +0.031 C 
ATOM     36  C   UNL     1       1.604  -4.210   1.122  0.00  0.00    +0.031 C 
ENDBRANCH  29  34
ENDBRANCH  23  30
ENDBRANCH   1  28
TORSDOF 7
