REMARK  Name = ZINC11754615
REMARK  9 active torsions:
REMARK  status: ('A' for Active; 'I' for Inactive)
REMARK    1  A    between atoms: C_1  and  C_2
REMARK    2  A    between atoms: C_2  and  C_3
REMARK    3  A    between atoms: C_2  and  C_4
REMARK    4  A    between atoms: C_2  and  C_5
REMARK    5  A    between atoms: C_10  and  N_11
REMARK    6  A    between atoms: C_12  and  C_14
REMARK    7  A    between atoms: C_14  and  C_16
REMARK    8  A    between atoms: C_14  and  N_50
REMARK    9  A    between atoms: C_16  and  C_17
REMARK                            x       y       z     vdW  Elec       q    Type
REMARK                         _______ _______ _______ _____ _____    ______ ____
ROOT
ATOM      1  C   UNL     1      -3.203   3.553   5.158  0.00  0.00    +0.017 C 
ENDROOT
BRANCH   1   3
ATOM      2  N   UNL     1      -1.514   2.365   3.795  0.00  0.00    -0.287 N 
ATOM      3  C   UNL     1      -1.980   2.683   5.019  0.00  0.00    +0.203 C 
ATOM      4  O   UNL     1      -1.414   2.269   6.009  0.00  0.00    -0.277 OA
ATOM      5  H   UNL     1      -1.912   2.765   3.006  0.00  0.00    +0.155 HD
BRANCH   2  11
ATOM      6  C   UNL     1      -0.051   1.043   2.401  0.00  0.00    -0.021 A 
ATOM      7  C   UNL     1       0.996   0.151   2.273  0.00  0.00    +0.006 A 
ATOM      8  C   UNL     1       1.636  -0.332   3.399  0.00  0.00    +0.000 A 
ATOM      9  C   UNL     1       1.230   0.075   4.657  0.00  0.00    +0.002 A 
ATOM     10  C   UNL     1       0.184   0.966   4.792  0.00  0.00    +0.023 A 
ATOM     11  C   UNL     1      -0.458   1.457   3.662  0.00  0.00    +0.037 A 
BRANCH   6  13
ATOM     12  C   UNL     1      -0.131   0.935  -0.075  0.00  0.00    +0.015 C 
ATOM     13  C   UNL     1      -0.748   1.570   1.173  0.00  0.00    -0.011 C 
ATOM     14  C   UNL     1      -0.584   3.090   1.106  0.00  0.00    +0.015 C 
ATOM     15  C   UNL     1      -2.236   1.220   1.240  0.00  0.00    +0.015 C 
ENDBRANCH   6  13
ENDBRANCH   2  11
ENDBRANCH   1   3
BRANCH   1  18
ATOM     16  H   UNL     1      -3.123   3.624   7.214  0.00  0.00    -0.089 HD
ATOM     17  H   UNL     1      -4.641   3.893   6.591  0.00  0.00    -0.089 HD
ATOM     18  N   UNL     1      -3.788   3.345   6.495  0.00  0.00    +0.386 N 
ATOM     19  H   UNL     1      -4.014   2.351   6.614  0.00  0.00    -0.089 HD
ENDBRANCH   1  18
BRANCH   1  20
ATOM     20  C   UNL     1      -2.810   5.019   4.968  0.00  0.00    +0.030 C 
BRANCH  20  21
ATOM     21  C   UNL     1      -4.049   5.877   4.985  0.00  0.00    -0.023 A 
ATOM     22  C   UNL     1      -4.741   6.300   3.916  0.00  0.00    +0.087 A 
ATOM     23  N   UNL     1      -5.808   7.056   4.320  0.00  0.00    -0.360 N 
ATOM     24  H   UNL     1      -6.454   7.470   3.727  0.00  0.00    +0.165 HD
ATOM     25  C   UNL     1      -5.823   7.147   5.694  0.00  0.00    +0.047 A 
ATOM     26  C   UNL     1      -4.722   6.413   6.171  0.00  0.00    +0.003 A 
ATOM     27  C   UNL     1      -4.484   6.327   7.543  0.00  0.00    +0.010 A 
ATOM     28  C   UNL     1      -5.322   6.959   8.418  0.00  0.00    +0.001 A 
ATOM     29  C   UNL     1      -6.410   7.685   7.953  0.00  0.00    +0.002 A 
ATOM     30  C   UNL     1      -6.664   7.782   6.602  0.00  0.00    +0.026 A 
ENDBRANCH  20  21
ENDBRANCH   1  20
TORSDOF 6
