REMARK  Name = ZINC58279609
REMARK  4 active torsions:
REMARK  status: ('A' for Active; 'I' for Inactive)
REMARK    1  A    between atoms: C_6  and  C_7
REMARK    2  A    between atoms: C_12  and  N_16
REMARK    3  A    between atoms: N_16  and  C_17
REMARK    4  A    between atoms: C_17  and  C_18
REMARK                            x       y       z     vdW  Elec       q    Type
REMARK                         _______ _______ _______ _____ _____    ______ ____
ROOT
ATOM      1  C   UNL     1      -1.288  -0.734   0.040  0.00  0.00    +0.002 A 
ATOM      2  C   UNL     1      -1.495  -1.722   0.942  0.00  0.00    +0.056 A 
ATOM      3  S   UNL     1      -3.125  -2.320   0.538  0.00  0.00    -0.076 S 
ATOM      4  C   UNL     1      -3.492  -1.240  -0.820  0.00  0.00    +0.114 A 
ATOM      5  C   UNL     1      -2.340  -0.434  -0.926  0.00  0.00    +0.055 A 
ATOM      6  C   UNL     1      -2.371   0.542  -1.957  0.00  0.00    +0.131 A 
ATOM      7  N   UNL     1      -3.445   0.636  -2.726  0.00  0.00    -0.220 NA
ATOM      8  C   UNL     1      -4.493  -0.151  -2.567  0.00  0.00    +0.224 A 
ATOM      9  N   UNL     1      -4.518  -1.082  -1.633  0.00  0.00    -0.228 NA
ENDROOT
BRANCH   1  15
ATOM     10  C   UNL     1      -0.035   1.414   0.235  0.00  0.00    +0.009 A 
ATOM     11  C   UNL     1       1.150   2.115   0.228  0.00  0.00    +0.004 A 
ATOM     12  C   UNL     1       2.361   1.462   0.031  0.00  0.00    -0.044 A 
ATOM     13  C   UNL     1       2.382   0.096  -0.158  0.00  0.00    -0.044 A 
ATOM     14  C   UNL     1       1.193  -0.618  -0.157  0.00  0.00    +0.012 A 
ATOM     15  C   UNL     1      -0.021   0.034   0.039  0.00  0.00    -0.016 A 
ATOM     16  C   UNL     1       3.660  -0.675  -0.360  0.00  0.00    +0.035 C 
ATOM     17  C   UNL     1       4.796   0.264  -0.761  0.00  0.00    +0.005 C 
ATOM     18  C   UNL     1       4.846   1.421   0.244  0.00  0.00    +0.005 C 
ATOM     19  C   UNL     1       3.614   2.298   0.030  0.00  0.00    +0.035 C 
ENDBRANCH   1  15
BRANCH   6  20
ATOM     20  N   UNL     1      -1.293   1.386  -2.155  0.00  0.00    -0.318 N 
ATOM     21  H   UNL     1      -0.475   1.255  -1.650  0.00  0.00    +0.148 HD
BRANCH  20  22
ATOM     22  C   UNL     1      -1.385   2.477  -3.129  0.00  0.00    +0.228 C 
BRANCH  22  23
ATOM     23  C   UNL     1      -0.086   3.240  -3.153  0.00  0.00    +0.373 C 
ATOM     24  O   UNL     1       0.832   2.905  -2.424  0.00  0.00    -0.245 OA
ATOM     25  O   UNL     1       0.047   4.194  -3.901  0.00  0.00    -0.245 OA
ENDBRANCH  22  23
ENDBRANCH  20  22
ENDBRANCH   6  20
TORSDOF 4
