REMARK  Name = ZINC39381087
REMARK  5 active torsions:
REMARK  status: ('A' for Active; 'I' for Inactive)
REMARK    1  A    between atoms: C_1  and  C_2
REMARK    2  A    between atoms: C_4  and  C_12
REMARK    3  A    between atoms: C_13  and  C_14
REMARK    4  A    between atoms: N_25  and  C_26
REMARK    5  A    between atoms: C_29  and  N_32
REMARK                            x       y       z     vdW  Elec       q    Type
REMARK                         _______ _______ _______ _____ _____    ______ ____
ROOT
ATOM      1  C   UNL     1       1.342  -0.386  -4.492  0.00  0.00    +0.190 C 
ATOM      2  N   UNL     1       0.806  -1.644  -5.024  0.00  0.00    -0.322 N 
ATOM      3  C   UNL     1       1.580  -2.376  -5.918  0.00  0.00    +0.041 A 
ATOM      4  C   UNL     1       1.473  -3.753  -6.017  0.00  0.00    +0.024 A 
ATOM      5  C   UNL     1       2.256  -4.436  -6.928  0.00  0.00    +0.002 A 
ATOM      6  C   UNL     1       3.145  -3.755  -7.743  0.00  0.00    +0.001 A 
ATOM      7  C   UNL     1       3.267  -2.383  -7.655  0.00  0.00    +0.015 A 
ATOM      8  C   UNL     1       2.488  -1.682  -6.737  0.00  0.00    +0.058 A 
ATOM      9  C   UNL     1       2.599  -0.221  -6.587  0.00  0.00    +0.254 C 
ATOM     10  O   UNL     1       3.248   0.430  -7.384  0.00  0.00    -0.270 OA
ATOM     11  N   UNL     1       1.977   0.385  -5.561  0.00  0.00    -0.245 N 
ATOM     12  H   UNL     1      -0.072  -1.958  -4.758  0.00  0.00    +0.148 HD
ENDROOT
BRANCH  11  13
ATOM     13  C   UNL     1       1.938   1.783  -5.517  0.00  0.00    +0.039 A 
ATOM     14  C   UNL     1       2.990   2.491  -4.950  0.00  0.00    +0.026 A 
ATOM     15  C   UNL     1       2.949   3.870  -4.909  0.00  0.00    +0.034 A 
ATOM     16  C   UNL     1       1.861   4.547  -5.430  0.00  0.00    +0.126 A 
ATOM     17  C   UNL     1       0.812   3.845  -5.994  0.00  0.00    +0.034 A 
ATOM     18  C   UNL     1       0.850   2.466  -6.044  0.00  0.00    +0.026 A 
BRANCH  16  19
ATOM     19  N   UNL     1       1.820   6.026  -5.383  0.00  0.00    +0.056 N 
ATOM     20  O   UNL     1       2.736   6.641  -4.889  0.00  0.00    -0.126 OA
ATOM     21  O   UNL     1       0.870   6.619  -5.838  0.00  0.00    -0.126 OA
ENDBRANCH  16  19
ENDBRANCH  11  13
BRANCH   1  23
ATOM     22  C   UNL     1       2.172  -0.248  -2.171  0.00  0.00    +0.005 C 
ATOM     23  C   UNL     1       2.361  -0.690  -3.424  0.00  0.00    +0.015 C 
BRANCH  22  26
ATOM     24  C   UNL     1       3.777  -2.954  -1.706  0.00  0.00    +0.035 C 
ATOM     25  C   UNL     1       4.246  -1.565  -1.267  0.00  0.00    +0.107 C 
ATOM     26  C   UNL     1       3.063  -0.630  -1.147  0.00  0.00    -0.017 C 
ATOM     27  C   UNL     1       3.038  -0.225   0.181  0.00  0.00    +0.003 A 
ATOM     28  C   UNL     1       2.179   0.638   0.901  0.00  0.00    +0.010 A 
ATOM     29  C   UNL     1       2.397   0.855   2.221  0.00  0.00    +0.001 A 
ATOM     30  C   UNL     1       3.457   0.244   2.900  0.00  0.00    +0.002 A 
ATOM     31  C   UNL     1       4.319  -0.593   2.276  0.00  0.00    +0.026 A 
ATOM     32  C   UNL     1       4.156  -0.871   0.892  0.00  0.00    +0.043 A 
ATOM     33  N   UNL     1       4.846  -1.634   0.069  0.00  0.00    -0.378 N 
ATOM     34  H   UNL     1       5.626  -2.158   0.308  0.00  0.00    +0.160 HD
ENDBRANCH  22  26
ENDBRANCH   1  23
TORSDOF 4
