REMARK  Name = ZINC44783812
REMARK  9 active torsions:
REMARK  status: ('A' for Active; 'I' for Inactive)
REMARK    1  A    between atoms: C_1  and  C_2
REMARK    2  A    between atoms: C_2  and  C_3
REMARK    3  A    between atoms: C_3  and  C_4
REMARK    4  A    between atoms: C_3  and  C_6
REMARK    5  A    between atoms: C_3  and  C_10
REMARK    6  A    between atoms: C_4  and  C_5
REMARK    7  A    between atoms: N_7  and  O_8
REMARK    8  A    between atoms: N_12  and  C_13
REMARK    9  A    between atoms: C_17  and  C_20
REMARK                            x       y       z     vdW  Elec       q    Type
REMARK                         _______ _______ _______ _____ _____    ______ ____
ROOT
ATOM      1  C   UNL     1       0.526  -0.783   3.008  0.00  0.00    +0.231 C 
ATOM      2  O   UNL     1       1.322  -0.670   3.916  0.00  0.00    -0.274 OA
ATOM      3  N   UNL     1      -0.797  -0.733   3.262  0.00  0.00    -0.282 N 
ATOM      4  H   UNL     1      -1.434  -0.866   2.543  0.00  0.00    +0.155 HD
ENDROOT
BRANCH   3   5
ATOM      5  C   UNL     1      -1.251  -0.489   4.564  0.00  0.00    +0.071 A 
ATOM      6  C   UNL     1      -0.631   0.476   5.348  0.00  0.00    +0.064 A 
ATOM      7  C   UNL     1      -1.082   0.715   6.633  0.00  0.00    +0.022 A 
ATOM      8  C   UNL     1      -2.149  -0.006   7.138  0.00  0.00    +0.006 A 
ATOM      9  C   UNL     1      -2.768  -0.966   6.360  0.00  0.00    -0.030 A 
ATOM     10  C   UNL     1      -2.326  -1.206   5.072  0.00  0.00    +0.066 A 
ATOM     11 CL   UNL     1      -3.110  -2.408   4.094  0.00  0.00    -0.081 Cl
ATOM     12  C   UNL     1      -3.931  -1.749   6.915  0.00  0.00    +0.045 C 
ATOM     13 CL   UNL     1       0.709   1.381   4.716  0.00  0.00    -0.082 Cl
ENDBRANCH   3   5
BRANCH   1  14
ATOM     14  C   UNL     1       1.015  -0.980   1.597  0.00  0.00    +0.105 C 
BRANCH  14  15
ATOM     15  C   UNL     1       2.522  -1.000   1.585  0.00  0.00    +0.147 C 
ATOM     16  N   UNL     1       3.173  -0.193   0.814  0.00  0.00    -0.076 NA
ATOM     17  N   UNL     1       3.205  -1.878   2.397  0.00  0.00    -0.343 N 
ATOM     18  H   UNL     1       2.719  -2.444   3.017  0.00  0.00    +0.144 HD
ATOM     19  H   UNL     1       4.173  -1.931   2.348  0.00  0.00    +0.144 HD
BRANCH  16  20
ATOM     20  O   UNL     1       4.588  -0.211   0.804  0.00  0.00    -0.408 OA
ATOM     21  H   UNL     1       4.986   0.428   0.196  0.00  0.00    +0.328 HD
ENDBRANCH  16  20
ENDBRANCH  14  15
BRANCH  14  23
ATOM     22  C   UNL     1       1.045   1.496   1.262  0.00  0.00    +0.005 C 
ATOM     23  C   UNL     1       0.513   0.168   0.718  0.00  0.00    +0.020 C 
ENDBRANCH  14  23
BRANCH  14  24
ATOM     24  C   UNL     1       0.484  -2.308   1.053  0.00  0.00    +0.020 C 
ATOM     25  C   UNL     1       1.080  -2.567  -0.332  0.00  0.00    +0.005 C 
ENDBRANCH  14  24
ENDBRANCH   1  14
TORSDOF 6
