REMARK  Name = ZINC19892417
REMARK  17 active torsions:
REMARK  status: ('A' for Active; 'I' for Inactive)
REMARK    1  A    between atoms: C_1  and  C_2
REMARK    2  A    between atoms: C_2  and  C_3
REMARK    3  A    between atoms: C_3  and  C_4
REMARK    4  A    between atoms: C_4  and  O_5
REMARK    5  A    between atoms: O_5  and  C_6
REMARK    6  A    between atoms: C_6  and  C_8
REMARK    7  A    between atoms: C_9  and  C_41
REMARK    8  A    between atoms: C_13  and  C_15
REMARK    9  A    between atoms: C_18  and  O_23
REMARK   10  A    between atoms: C_20  and  O_21
REMARK   11  A    between atoms: O_21  and  C_22
REMARK   12  A    between atoms: O_23  and  C_24
REMARK   13  A    between atoms: C_28  and  C_31
REMARK   14  A    between atoms: C_34  and  O_39
REMARK   15  A    between atoms: C_35  and  O_37
REMARK   16  A    between atoms: O_37  and  C_38
REMARK   17  A    between atoms: O_39  and  C_40
REMARK                            x       y       z     vdW  Elec       q    Type
REMARK                         _______ _______ _______ _____ _____    ______ ____
ROOT
ATOM      1  C   UNL     1       3.514  -4.370  -8.788  0.00  0.00    +0.065 C 
ATOM      2  C   UNL     1       2.261  -3.902  -8.925  0.00  0.00    +0.016 C 
ATOM      3  N   UNL     1       1.829  -2.850  -8.168  0.00  0.00    -0.321 N 
ATOM      4  C   UNL     1       2.478  -2.508  -7.012  0.00  0.00    +0.016 C 
ATOM      5  C   UNL     1       3.743  -2.922  -6.789  0.00  0.00    +0.024 C 
ATOM      6  C   UNL     1       4.473  -3.755  -7.812  0.00  0.00    +0.096 C 
ATOM      7  C   UNL     1       4.415  -2.593  -5.598  0.00  0.00    +0.162 C 
ATOM      8  O   UNL     1       5.557  -2.973  -5.433  0.00  0.00    -0.292 OA
ATOM      9  C   UNL     1       3.746  -1.782  -4.521  0.00  0.00    +0.088 C 
ATOM     10  C   UNL     1       2.233  -2.015  -4.590  0.00  0.00    +0.032 C 
ATOM     11  C   UNL     1       1.746  -1.664  -5.998  0.00  0.00    +0.059 C 
ATOM     12  C   UNL     1       1.327  -4.542  -9.920  0.00  0.00    +0.061 C 
ATOM     13  H   UNL     1       0.951  -2.268  -8.485  0.00  0.00    +0.152 HD
ENDROOT
BRANCH   6  14
ATOM     14  C   UNL     1       5.446  -2.879  -8.560  0.00  0.00    +0.007 A 
ATOM     15  C   UNL     1       4.985  -1.790  -9.275  0.00  0.00    +0.012 A 
ATOM     16  C   UNL     1       5.874  -0.986  -9.962  0.00  0.00    +0.046 A 
ATOM     17  C   UNL     1       7.232  -1.269  -9.934  0.00  0.00    +0.124 A 
ATOM     18  C   UNL     1       7.697  -2.361  -9.218  0.00  0.00    +0.091 A 
ATOM     19  C   UNL     1       6.803  -3.164  -8.525  0.00  0.00    +0.128 A 
BRANCH  19  20
ATOM     20  O   UNL     1       7.256  -4.232  -7.817  0.00  0.00    -0.495 OA
ATOM     21  C   UNL     1       8.665  -4.465  -7.826  0.00  0.00    +0.277 C 
ENDBRANCH  19  20
BRANCH  17  22
ATOM     22  O   UNL     1       8.106  -0.477 -10.609  0.00  0.00    -0.495 OA
ATOM     23  C   UNL     1       7.558   0.631 -11.326  0.00  0.00    +0.277 C 
ENDBRANCH  17  22
ENDBRANCH   6  14
BRANCH  10  24
ATOM     24  C   UNL     1       1.539  -1.137  -3.581  0.00  0.00    -0.040 A 
ATOM     25  C   UNL     1       1.675   0.236  -3.653  0.00  0.00    +0.008 A 
ATOM     26  C   UNL     1       1.035   1.046  -2.733  0.00  0.00    +0.049 A 
ATOM     27  C   UNL     1       0.266   0.481  -1.728  0.00  0.00    +0.161 A 
ATOM     28  C   UNL     1       0.130  -0.902  -1.655  0.00  0.00    +0.162 A 
ATOM     29  C   UNL     1       0.769  -1.708  -2.584  0.00  0.00    +0.053 A 
BRANCH  28  30
ATOM     30  O   UNL     1      -0.627  -1.461  -0.674  0.00  0.00    -0.491 OA
ATOM     31  C   UNL     1      -0.722  -2.887  -0.661  0.00  0.00    +0.277 C 
ENDBRANCH  28  30
BRANCH  27  32
ATOM     32  O   UNL     1      -0.358   1.276  -0.819  0.00  0.00    -0.491 OA
ATOM     33  C   UNL     1      -0.174   2.687  -0.955  0.00  0.00    +0.277 C 
ENDBRANCH  27  32
ENDBRANCH  10  24
BRANCH   1  34
ATOM     34  C   UNL     1       3.935  -5.465  -9.579  0.00  0.00    +0.338 C 
ATOM     35  O   UNL     1       3.135  -6.051 -10.283  0.00  0.00    -0.245 OA
BRANCH  34  36
ATOM     36  O   UNL     1       5.226  -5.859  -9.552  0.00  0.00    -0.461 OA
BRANCH  36  37
ATOM     37  C   UNL     1       5.581  -6.972 -10.376  0.00  0.00    +0.232 C 
BRANCH  37  38
ATOM     38  C   UNL     1       7.073  -7.269 -10.214  0.00  0.00    +0.041 C 
BRANCH  38  40
ATOM     39  C   UNL     1       8.946  -8.758 -10.934  0.00  0.00    +0.004 C 
ATOM     40  C   UNL     1       7.454  -8.460 -11.096  0.00  0.00    -0.000 C 
ENDBRANCH  38  40
ENDBRANCH  37  38
ENDBRANCH  36  37
ENDBRANCH  34  36
ENDBRANCH   1  34
TORSDOF 11
