REMARK  Name = ZINC08306489
REMARK  5 active torsions:
REMARK  status: ('A' for Active; 'I' for Inactive)
REMARK    1  A    between atoms: N_9  and  C1*_13
REMARK    2  A    between atoms: C2*_15  and  O2*_25
REMARK    3  A    between atoms: C3*_17  and  O3*_24
REMARK    4  A    between atoms: C4*_19  and  C5*_22
REMARK    5  A    between atoms: C5*_22  and  O5*_23
REMARK                            x       y       z     vdW  Elec       q    Type
REMARK                         _______ _______ _______ _____ _____    ______ ____
ROOT
ATOM      1  C   UNL     1      -0.016   1.299   0.009  0.00  0.00    +0.201 A 
ATOM      2  N   UNL     1       1.123   2.037   0.002  0.00  0.00    -0.312 N 
ATOM      3  H   UNL     1       1.070   3.006   0.008  0.00  0.00    +0.170 HD
ATOM      4  C   UNL     1       2.331   1.431  -0.013  0.00  0.00    +0.279 A 
ATOM      5  O   UNL     1       3.360   2.085  -0.019  0.00  0.00    -0.265 OA
ATOM      6  C   UNL     1       2.369   0.014  -0.020  0.00  0.00    +0.173 A 
ATOM      7  C   UNL     1       1.157  -0.684  -0.013  0.00  0.00    +0.170 A 
ATOM      8  N   UNL     1       0.002  -0.004   0.002  0.00  0.00    -0.218 NA
ATOM      9  N   UNL     1       1.484  -2.013  -0.022  0.00  0.00    -0.274 N 
ATOM     10  C   UNL     1       2.845  -2.100  -0.036  0.00  0.00    +0.182 A 
ATOM     11  N   UNL     1       3.363  -0.904  -0.034  0.00  0.00    -0.214 NA
ATOM     12 BR   UNL     1       3.831  -3.713  -0.054  0.00  0.00    -0.008 Br
ENDROOT
BRANCH   9  13
ATOM     13  C1* UNL     1       0.544  -3.136  -0.019  0.00  0.00    +0.254 C 
ATOM     14  C2* UNL     1       0.499  -3.796   1.377  0.00  0.00    +0.195 C 
ATOM     15  C3* UNL     1       0.353  -5.304   1.074  0.00  0.00    +0.178 C 
ATOM     16  C4* UNL     1       0.326  -5.377  -0.469  0.00  0.00    +0.177 C 
ATOM     17  O4* UNL     1       1.004  -4.179  -0.906  0.00  0.00    -0.346 OA
BRANCH  15  18
ATOM     18  O3* UNL     1       1.469  -6.030   1.593  0.00  0.00    -0.386 OA
ATOM     19  H3* UNL     1       1.428  -6.982   1.431  0.00  0.00    +0.210 HD
ENDBRANCH  15  18
BRANCH  14  20
ATOM     20  O2* UNL     1      -0.626  -3.322   2.119  0.00  0.00    -0.385 OA
ATOM     21  H2* UNL     1      -0.703  -3.704   3.004  0.00  0.00    +0.210 HD
ENDBRANCH  14  20
BRANCH  16  22
ATOM     22  C5* UNL     1       1.073  -6.620  -0.956  0.00  0.00    +0.190 C 
BRANCH  22  23
ATOM     23  O5* UNL     1       0.938  -6.731  -2.374  0.00  0.00    -0.392 OA
ATOM     24  H5* UNL     1       1.387  -7.499  -2.753  0.00  0.00    +0.210 HD
ENDBRANCH  22  23
ENDBRANCH  16  22
ENDBRANCH   9  13
TORSDOF 5
