REMARK  Name = ZINC00079284
REMARK  4 active torsions:
REMARK  status: ('A' for Active; 'I' for Inactive)
REMARK    1  A    between atoms: C_1  and  C_2
REMARK    2  A    between atoms: C_6  and  C_8
REMARK    3  A    between atoms: C_11  and  C_21
REMARK    4  A    between atoms: C_11  and  O_25
REMARK                            x       y       z     vdW  Elec       q    Type
REMARK                         _______ _______ _______ _____ _____    ______ ____
ROOT
ATOM      1  C   UNL     1      -0.771   3.181   4.378  0.00  0.00    +0.269 C 
ATOM      2  O   UNL     1      -1.639   3.426   5.193  0.00  0.00    -0.268 OA
ATOM      3  N   UNL     1      -1.066   2.469   3.273  0.00  0.00    -0.148 N 
ATOM      4  C   UNL     1      -2.350   1.833   2.991  0.00  0.00    +0.259 C 
ATOM      5  C   UNL     1      -2.159   1.255   1.568  0.00  0.00    +0.096 C 
ATOM      6  C   UNL     1      -3.057   2.010   0.621  0.00  0.00    +0.014 C 
ATOM      7  C   UNL     1      -3.236   1.475  -0.753  0.00  0.00    +0.001 C 
ATOM      8  C   UNL     1      -2.052   0.867  -1.440  0.00  0.00    +0.000 C 
ATOM      9  C   UNL     1      -0.730   1.527  -1.208  0.00  0.00    +0.006 C 
ATOM     10  C   UNL     1      -0.003   1.046   0.029  0.00  0.00    +0.053 C 
ATOM     11  C   UNL     1      -0.702   1.536   1.271  0.00  0.00    +0.045 C 
ATOM     12  N   UNL     1      -0.196   2.213   2.215  0.00  0.00    -0.183 NA
ENDROOT
BRANCH   1  18
ATOM     13  C   UNL     1       2.600   5.430   7.290  0.00  0.00    +0.044 C 
ATOM     14  C   UNL     1       2.235   4.745   5.998  0.00  0.00    -0.050 A 
ATOM     15  C   UNL     1       3.193   4.568   5.015  0.00  0.00    +0.003 A 
ATOM     16  C   UNL     1       2.865   3.942   3.826  0.00  0.00    +0.001 A 
ATOM     17  C   UNL     1       1.580   3.489   3.613  0.00  0.00    +0.013 A 
ATOM     18  C   UNL     1       0.609   3.664   4.600  0.00  0.00    +0.039 A 
ATOM     19  C   UNL     1       0.945   4.302   5.795  0.00  0.00    +0.016 A 
ENDBRANCH   1  18
BRANCH   4  20
ATOM     20  C   UNL     1      -2.634   0.713   3.994  0.00  0.00    +0.438 C 
ATOM     21  F   UNL     1      -1.559  -0.182   4.010  0.00  0.00    -0.166 F 
ATOM     22  F   UNL     1      -2.803   1.262   5.270  0.00  0.00    -0.166 F 
ATOM     23  F   UNL     1      -3.799   0.036   3.620  0.00  0.00    -0.166 F 
ENDBRANCH   4  20
BRANCH   4  24
ATOM     24  O   UNL     1      -3.401   2.802   3.004  0.00  0.00    -0.363 OA
ATOM     25  H   UNL     1      -3.562   3.195   3.873  0.00  0.00    +0.212 HD
ENDBRANCH   4  24
TORSDOF 3
