REMARK  Name = ZINC40744790
REMARK  11 active torsions:
REMARK  status: ('A' for Active; 'I' for Inactive)
REMARK    1  A    between atoms: C_1  and  N_2
REMARK    2  A    between atoms: C_3  and  S_7
REMARK    3  A    between atoms: S_7  and  C_8
REMARK    4  A    between atoms: C_8  and  C_9
REMARK    5  A    between atoms: C_9  and  C_10
REMARK    6  A    between atoms: C_10  and  N_11
REMARK    7  A    between atoms: N_11  and  C_12
REMARK    8  A    between atoms: C_12  and  C_13
REMARK    9  A    between atoms: C_18  and  O_19
REMARK   10  A    between atoms: O_19  and  C_20
REMARK   11  A    between atoms: C_20  and  C_21
REMARK                            x       y       z     vdW  Elec       q    Type
REMARK                         _______ _______ _______ _____ _____    ______ ____
ROOT
ATOM      1  C   UNL     1       0.008  -3.608  -9.632  0.00  0.00    -0.022 A 
ATOM      2  C   UNL     1      -1.174  -3.691 -10.344  0.00  0.00    +0.020 A 
ATOM      3  C   UNL     1      -1.184  -3.427 -11.702  0.00  0.00    +0.018 A 
ATOM      4  C   UNL     1      -0.012  -3.080 -12.350  0.00  0.00    +0.019 A 
ATOM      5  C   UNL     1       1.171  -2.996 -11.642  0.00  0.00    +0.047 A 
ATOM      6  C   UNL     1       1.183  -3.255 -10.279  0.00  0.00    +0.122 A 
ATOM      7 BR   UNL     1      -2.802  -3.542 -12.673  0.00  0.00    -0.050 Br
ENDROOT
BRANCH   1   8
ATOM      8  C   UNL     1       0.018  -3.896  -8.153  0.00  0.00    -0.043 C 
BRANCH   8   9
ATOM      9  N   UNL     1       0.004  -2.630  -7.408  0.00  0.00    +0.382 N 
ATOM     10  H   UNL     1      -0.828  -2.110  -7.643  0.00  0.00    -0.085 HD
ATOM     11  H   UNL     1       0.820  -2.088  -7.651  0.00  0.00    -0.085 HD
BRANCH   9  12
ATOM     12  C   UNL     1       0.015  -2.910  -5.966  0.00  0.00    -0.081 C 
BRANCH  12  13
ATOM     13  C   UNL     1       0.000  -1.592  -5.190  0.00  0.00    -0.008 C 
BRANCH  13  14
ATOM     14  C   UNL     1       0.011  -1.884  -3.688  0.00  0.00    +0.075 C 
BRANCH  14  15
ATOM     15  S   UNL     1      -0.006  -0.321  -2.768  0.00  0.00    -0.085 S 
BRANCH  15  18
ATOM     16  C   UNL     1      -0.018   1.461   0.010  0.00  0.00    +0.177 C 
ATOM     17  N   UNL     1       0.002  -0.004   0.002  0.00  0.00    -0.223 N 
ATOM     18  C   UNL     1       0.008  -0.820  -1.078  0.00  0.00    +0.209 A 
ATOM     19  N   UNL     1       0.027  -2.056  -0.629  0.00  0.00    -0.102 NA
ATOM     20  N   UNL     1       0.033  -2.068   0.655  0.00  0.00    -0.022 NA
ATOM     21  N   UNL     1       0.025  -0.864   1.114  0.00  0.00    -0.043 NA
ENDBRANCH  15  18
ENDBRANCH  14  15
ENDBRANCH  13  14
ENDBRANCH  12  13
ENDBRANCH   9  12
ENDBRANCH   8   9
ENDBRANCH   1   8
BRANCH   6  22
ATOM     22  O   UNL     1       2.345  -3.168  -9.580  0.00  0.00    -0.487 OA
BRANCH  22  23
ATOM     23  C   UNL     1       3.516  -2.799 -10.311  0.00  0.00    +0.264 C 
BRANCH  23  24
ATOM     24  C   UNL     1       4.698  -2.754  -9.377  0.00  0.00    -0.009 A 
ATOM     25  C   UNL     1       5.014  -1.580  -8.718  0.00  0.00    +0.007 A 
ATOM     26  C   UNL     1       6.098  -1.538  -7.861  0.00  0.00    +0.002 A 
ATOM     27  C   UNL     1       6.867  -2.670  -7.663  0.00  0.00    +0.020 A 
ATOM     28  C   UNL     1       6.551  -3.844  -8.322  0.00  0.00    +0.041 A 
ATOM     29  C   UNL     1       5.462  -3.887  -9.175  0.00  0.00    +0.027 A 
ATOM     30 CL   UNL     1       7.516  -5.266  -8.075  0.00  0.00    -0.084 Cl
ENDBRANCH  23  24
ENDBRANCH  22  23
ENDBRANCH   6  22
TORSDOF 10
