REMARK  Name = ZINC09611936
REMARK  15 active torsions:
REMARK  status: ('A' for Active; 'I' for Inactive)
REMARK    1  A    between atoms: C_1  and  C_2
REMARK    2  A    between atoms: C_2  and  C_4
REMARK    3  A    between atoms: C_2  and  N_24
REMARK    4  A    between atoms: C_4  and  C_6
REMARK    5  A    between atoms: C_4  and  N_72
REMARK    6  A    between atoms: N_13  and  C_16
REMARK    7  A    between atoms: C_19  and  O_22
REMARK    8  A    between atoms: O_22  and  C_23
REMARK    9  A    between atoms: C_25  and  C_27
REMARK   10  A    between atoms: C_29  and  O_37
REMARK   11  A    between atoms: C_30  and  O_35
REMARK   12  A    between atoms: C_31  and  O_33
REMARK   13  A    between atoms: O_33  and  C_34
REMARK   14  A    between atoms: O_35  and  C_36
REMARK   15  A    between atoms: O_37  and  C_38
REMARK                            x       y       z     vdW  Elec       q    Type
REMARK                         _______ _______ _______ _____ _____    ______ ____
ROOT
ATOM      1  C   UNL     1       2.565  -1.514  -0.030  0.00  0.00    -0.010 C 
ENDROOT
BRANCH   1   7
ATOM      2  C   UNL     1       0.626  -2.829   0.584  0.00  0.00    -0.059 C 
ATOM      3  C   UNL     1       0.101  -3.863   1.582  0.00  0.00    +0.086 C 
ATOM      4  N   UNL     1       0.144  -3.297   2.938  0.00  0.00    -0.333 N 
ATOM      5  C   UNL     1       1.516  -2.919   3.304  0.00  0.00    +0.086 C 
ATOM      6  C   UNL     1       2.041  -1.884   2.305  0.00  0.00    -0.059 C 
ATOM      7  N   UNL     1       2.013  -2.474   0.950  0.00  0.00    +0.388 N 
ATOM      8  H   UNL     1       2.588  -3.324   0.944  0.00  0.00    -0.081 HD
BRANCH   4   9
ATOM      9  C   UNL     1      -0.396  -4.189   3.871  0.00  0.00    +0.030 A 
ATOM     10  C   UNL     1       0.363  -4.599   4.960  0.00  0.00    +0.027 A 
ATOM     11  C   UNL     1      -0.173  -5.475   5.884  0.00  0.00    +0.047 A 
ATOM     12  C   UNL     1      -1.464  -5.955   5.718  0.00  0.00    +0.120 A 
ATOM     13  C   UNL     1      -2.220  -5.550   4.628  0.00  0.00    +0.047 A 
ATOM     14  C   UNL     1      -1.688  -4.670   3.706  0.00  0.00    +0.027 A 
BRANCH  12  15
ATOM     15  O   UNL     1      -1.988  -6.822   6.625  0.00  0.00    -0.495 OA
ATOM     16  C   UNL     1      -1.154  -7.196   7.723  0.00  0.00    +0.277 C 
ENDBRANCH  12  15
ENDBRANCH   4   9
ENDBRANCH   1   7
BRANCH   1  17
ATOM     17  C   UNL     1       1.837  -0.197   0.054  0.00  0.00    -0.022 A 
ATOM     18  C   UNL     1       2.347   1.055   0.150  0.00  0.00    +0.009 A 
ATOM     19  C   UNL     1       1.479   2.129   0.216  0.00  0.00    +0.008 A 
ATOM     20  C   UNL     1       0.144   1.898   0.183  0.00  0.00    +0.045 A 
ATOM     21  S   UNL     1       0.080   0.119   0.055  0.00  0.00    -0.103 S 
ENDBRANCH   1  17
BRANCH   1  23
ATOM     22  C   UNL     1       3.148  -3.430  -1.524  0.00  0.00    +0.026 C 
ATOM     23  C   UNL     1       2.409  -2.093  -1.438  0.00  0.00    +0.061 C 
BRANCH  23  24
ATOM     24  N   UNL     1       2.975  -1.159  -2.415  0.00  0.00    -0.310 N 
ATOM     25  C   UNL     1       2.538  -1.171  -3.690  0.00  0.00    +0.244 C 
ATOM     26  O   UNL     1       1.674  -1.957  -4.029  0.00  0.00    -0.270 OA
ATOM     27  H   UNL     1       3.663  -0.532  -2.144  0.00  0.00    +0.149 HD
BRANCH  25  28
ATOM     28  C   UNL     1       3.107  -0.230  -4.674  0.00  0.00    +0.044 A 
ATOM     29  C   UNL     1       4.095   0.677  -4.284  0.00  0.00    +0.062 A 
ATOM     30  C   UNL     1       4.630   1.554  -5.209  0.00  0.00    +0.166 A 
ATOM     31  C   UNL     1       4.178   1.541  -6.526  0.00  0.00    +0.204 A 
ATOM     32  C   UNL     1       3.190   0.641  -6.916  0.00  0.00    +0.166 A 
ATOM     33  C   UNL     1       2.655  -0.242  -5.996  0.00  0.00    +0.062 A 
BRANCH  32  34
ATOM     34  O   UNL     1       2.750   0.630  -8.203  0.00  0.00    -0.491 OA
ATOM     35  C   UNL     1       1.735  -0.320  -8.534  0.00  0.00    +0.277 C 
ENDBRANCH  32  34
BRANCH  31  36
ATOM     36  O   UNL     1       4.702   2.408  -7.432  0.00  0.00    -0.488 OA
ATOM     37  C   UNL     1       4.056   3.675  -7.566  0.00  0.00    +0.277 C 
ENDBRANCH  31  36
BRANCH  30  38
ATOM     38  O   UNL     1       5.596   2.434  -4.832  0.00  0.00    -0.491 OA
ATOM     39  C   UNL     1       6.013   2.393  -3.466  0.00  0.00    +0.277 C 
ENDBRANCH  30  38
ENDBRANCH  25  28
ENDBRANCH  23  24
ENDBRANCH   1  23
TORSDOF 10
