REMARK  Name = ZINC17059675
REMARK  9 active torsions:
REMARK  status: ('A' for Active; 'I' for Inactive)
REMARK    1  A    between atoms: C_1  and  C_2
REMARK    2  A    between atoms: C_5  and  C_8
REMARK    3  A    between atoms: C_11  and  S_20
REMARK    4  A    between atoms: N_12  and  C_13
REMARK    5  A    between atoms: C_16  and  C_19
REMARK    6  A    between atoms: S_20  and  C_21
REMARK    7  A    between atoms: C_21  and  C_23
REMARK    8  A    between atoms: C_21  and  C_24
REMARK    9  A    between atoms: N_26  and  C_27
REMARK                            x       y       z     vdW  Elec       q    Type
REMARK                         _______ _______ _______ _____ _____    ______ ____
ROOT
ATOM      1  C   UNL     1       7.900   7.729  -1.559  0.00  0.00    +0.169 A 
ATOM      2  N   UNL     1       8.288   6.642  -0.934  0.00  0.00    -0.128 NA
ATOM      3  N   UNL     1       7.273   5.898  -0.673  0.00  0.00    -0.122 NA
ATOM      4  C   UNL     1       6.173   6.459  -1.124  0.00  0.00    +0.197 A 
ATOM      5  N   UNL     1       6.532   7.647  -1.701  0.00  0.00    -0.270 N 
ENDROOT
BRANCH   1  10
ATOM      6  C   UNL     1      11.274  12.025  -3.368  0.00  0.00    +0.044 C 
ATOM      7  C   UNL     1      10.391  10.900  -2.894  0.00  0.00    -0.050 A 
ATOM      8  C   UNL     1       9.027  11.099  -2.775  0.00  0.00    +0.004 A 
ATOM      9  C   UNL     1       8.212  10.073  -2.342  0.00  0.00    +0.012 A 
ATOM     10  C   UNL     1       8.767   8.832  -2.023  0.00  0.00    +0.020 A 
ATOM     11  C   UNL     1      10.145   8.640  -2.140  0.00  0.00    +0.012 A 
ATOM     12  C   UNL     1      10.947   9.672  -2.580  0.00  0.00    +0.004 A 
ENDBRANCH   1  10
BRANCH   5  13
ATOM     13  C   UNL     1       5.685   8.584  -2.309  0.00  0.00    +0.051 A 
ATOM     14  C   UNL     1       5.754   8.798  -3.679  0.00  0.00    +0.026 A 
ATOM     15  C   UNL     1       4.914   9.718  -4.276  0.00  0.00    +0.005 A 
ATOM     16  C   UNL     1       4.013  10.433  -3.508  0.00  0.00    -0.050 A 
ATOM     17  C   UNL     1       3.946  10.226  -2.143  0.00  0.00    +0.005 A 
ATOM     18  C   UNL     1       4.779   9.303  -1.541  0.00  0.00    +0.026 A 
ATOM     19  C   UNL     1       3.103  11.441  -4.162  0.00  0.00    +0.044 C 
ENDBRANCH   5  13
BRANCH   4  20
ATOM     20  S   UNL     1       4.541   5.807  -1.002  0.00  0.00    -0.073 S 
BRANCH  20  21
ATOM     21  C   UNL     1       4.887   4.255  -0.137  0.00  0.00    +0.137 C 
ATOM     22  C   UNL     1       5.423   4.559   1.263  0.00  0.00    +0.029 C 
BRANCH  21  23
ATOM     23  C   UNL     1       3.619   3.449  -0.026  0.00  0.00    +0.230 C 
ATOM     24  O   UNL     1       2.541   3.994  -0.141  0.00  0.00    -0.274 OA
ATOM     25  N   UNL     1       3.681   2.122   0.202  0.00  0.00    -0.285 N 
ATOM     26  H   UNL     1       4.538   1.698   0.369  0.00  0.00    +0.155 HD
BRANCH  25  27
ATOM     27  C   UNL     1       2.509   1.354   0.198  0.00  0.00    +0.035 A 
ATOM     28  C   UNL     1       2.396   0.256   1.043  0.00  0.00    +0.025 A 
ATOM     29  C   UNL     1       1.244  -0.504   1.044  0.00  0.00    +0.029 A 
ATOM     30  C   UNL     1       0.195  -0.172   0.200  0.00  0.00    +0.067 A 
ATOM     31  C   UNL     1       0.305   0.931  -0.649  0.00  0.00    +0.069 A 
ATOM     32  C   UNL     1       1.464   1.692  -0.648  0.00  0.00    +0.051 A 
ATOM     33  N   UNL     1      -0.888   1.010  -1.363  0.00  0.00    -0.306 N 
ATOM     34  H   UNL     1      -1.106   1.678  -2.032  0.00  0.00    +0.170 HD
ATOM     35  C   UNL     1      -1.688   0.002  -0.967  0.00  0.00    +0.325 A 
ATOM     36  O   UNL     1      -2.806  -0.215  -1.396  0.00  0.00    -0.247 OA
ATOM     37  N   UNL     1      -1.063  -0.729  -0.025  0.00  0.00    -0.306 N 
ATOM     38  H   UNL     1      -1.427  -1.510   0.421  0.00  0.00    +0.170 HD
ENDBRANCH  25  27
ENDBRANCH  21  23
ENDBRANCH  20  21
ENDBRANCH   4  20
TORSDOF 6
