REMARK  Name = ZINC63557212
REMARK  8 active torsions:
REMARK  status: ('A' for Active; 'I' for Inactive)
REMARK    1  A    between atoms: C_1  and  C_2
REMARK    2  A    between atoms: C_6  and  N_9
REMARK    3  A    between atoms: C_10  and  C_12
REMARK    4  A    between atoms: N_17  and  C_19
REMARK    5  A    between atoms: C_19  and  C_20
REMARK    6  A    between atoms: C_20  and  C_21
REMARK    7  A    between atoms: C_24  and  O_30
REMARK    8  A    between atoms: O_30  and  C_31
REMARK                            x       y       z     vdW  Elec       q    Type
REMARK                         _______ _______ _______ _____ _____    ______ ____
ROOT
ATOM      1  C   UNL     1       0.599  -4.419   4.464  0.00  0.00    +0.101 C 
ATOM      2  C   UNL     1      -0.571  -5.430   4.465  0.00  0.00    +0.110 C 
ATOM      3  C   UNL     1      -0.363  -6.236   5.729  0.00  0.00    +0.216 C 
ATOM      4  O   UNL     1      -0.889  -7.302   5.967  0.00  0.00    -0.276 OA
ATOM      5  N   UNL     1       0.489  -5.597   6.549  0.00  0.00    -0.300 N 
ATOM      6  C   UNL     1       0.939  -4.326   5.968  0.00  0.00    +0.121 C 
ENDROOT
BRANCH   1   8
ATOM      7  N   UNL     1      -0.245  -2.969   2.646  0.00  0.00    -0.290 N 
ATOM      8  C   UNL     1       0.156  -3.082   3.928  0.00  0.00    +0.220 C 
ATOM      9  O   UNL     1       0.160  -2.107   4.650  0.00  0.00    -0.275 OA
ATOM     10  H   UNL     1      -0.248  -3.748   2.068  0.00  0.00    +0.151 HD
BRANCH   7  15
ATOM     11  C   UNL     1      -0.019   1.526   0.010  0.00  0.00    +0.037 C 
ATOM     12  C   UNL     1       0.002  -0.004   0.002  0.00  0.00    +0.126 C 
ATOM     13  N   UNL     1      -1.378  -0.558   0.092  0.00  0.00    -0.242 NA
ATOM     14  N   UNL     1      -1.409  -1.817   0.828  0.00  0.00    -0.227 NA
ATOM     15  C   UNL     1      -0.676  -1.670   2.124  0.00  0.00    +0.216 C 
ATOM     16  S   UNL     1       0.761  -0.664   1.546  0.00  0.00    -0.102 S 
ATOM     17  H   UNL     1      -1.785  -0.665  -0.825  0.00  0.00    +0.142 HD
ATOM     18  H   UNL     1      -1.022  -2.568   0.277  0.00  0.00    +0.143 HD
ENDBRANCH   7  15
ENDBRANCH   1   8
BRANCH   5  19
ATOM     19  C   UNL     1       0.916  -6.105   7.855  0.00  0.00    +0.112 C 
BRANCH  19  20
ATOM     20  C   UNL     1       2.175  -6.959   7.684  0.00  0.00    +0.052 C 
BRANCH  20  21
ATOM     21  C   UNL     1       2.614  -7.481   9.028  0.00  0.00    -0.040 C 
ATOM     22  C   UNL     1       2.315  -8.684   9.569  0.00  0.00    +0.002 A 
ATOM     23  C   UNL     1       1.523  -9.822   9.091  0.00  0.00    +0.055 A 
ATOM     24  C   UNL     1       1.396 -10.922   9.871  0.00  0.00    +0.121 A 
ATOM     25  C   UNL     1       2.000 -11.017  11.137  0.00  0.00    +0.047 A 
ATOM     26  C   UNL     1       2.747 -10.023  11.664  0.00  0.00    +0.029 A 
ATOM     27  C   UNL     1       2.951  -8.786  10.903  0.00  0.00    +0.043 A 
ATOM     28  N   UNL     1       3.615  -7.690  11.175  0.00  0.00    -0.380 N 
ATOM     29  C   UNL     1       3.482  -6.769  10.041  0.00  0.00    +0.144 C 
ATOM     30  H   UNL     1       4.115  -7.518  11.989  0.00  0.00    +0.160 HD
BRANCH  24  31
ATOM     31  O   UNL     1       0.659 -11.969   9.415  0.00  0.00    -0.495 OA
ATOM     32  C   UNL     1       0.551 -13.108  10.271  0.00  0.00    +0.277 C 
ENDBRANCH  24  31
ENDBRANCH  20  21
ENDBRANCH  19  20
ENDBRANCH   5  19
TORSDOF 6
