REMARK  Name = ZINC24052763
REMARK  5 active torsions:
REMARK  status: ('A' for Active; 'I' for Inactive)
REMARK    1  A    between atoms: C_7  and  N_20
REMARK    2  A    between atoms: C_14  and  C_17
REMARK    3  A    between atoms: N_20  and  C_21
REMARK    4  A    between atoms: C_21  and  C_22
REMARK    5  A    between atoms: C_22  and  O_23
REMARK                            x       y       z     vdW  Elec       q    Type
REMARK                         _______ _______ _______ _____ _____    ______ ____
ROOT
ATOM      1  C   UNL     1      -3.704  -1.095   0.013  0.00  0.00    +0.001 A 
ATOM      2  C   UNL     1      -4.889  -0.364   0.024  0.00  0.00    +0.002 A 
ATOM      3  C   UNL     1      -4.873   0.999   0.031  0.00  0.00    +0.026 A 
ATOM      4  C   UNL     1      -3.646   1.677   0.029  0.00  0.00    +0.052 A 
ATOM      5  C   UNL     1      -2.442   0.931   0.013  0.00  0.00    +0.038 A 
ATOM      6  C   UNL     1      -2.493  -0.467   0.010  0.00  0.00    +0.013 A 
ATOM      7  C   UNL     1      -1.214   1.639   0.017  0.00  0.00    +0.132 A 
ATOM      8  N   UNL     1      -1.252   2.963   0.024  0.00  0.00    -0.201 NA
ATOM      9  C   UNL     1      -2.405   3.624   0.033  0.00  0.00    +0.198 A 
ATOM     10  N   UNL     1      -3.576   3.016   0.035  0.00  0.00    -0.327 N 
ATOM     11  N   UNL     1      -2.377   5.007   0.040  0.00  0.00    -0.301 N 
ATOM     12  C   UNL     1      -1.590   5.511   1.172  0.00  0.00    +0.108 C 
ATOM     13  C   UNL     1      -1.458   7.032   1.067  0.00  0.00    +0.032 C 
ATOM     14  C   UNL     1      -2.854   7.662   1.070  0.00  0.00    +0.078 C 
ATOM     15  C   UNL     1      -3.669   7.084  -0.090  0.00  0.00    +0.032 C 
ATOM     16  C   UNL     1      -3.737   5.562   0.050  0.00  0.00    +0.108 C 
ATOM     17  H   UNL     1      -4.499   3.615   0.043  0.00  0.00    +0.169 HD
ENDROOT
BRANCH  14  18
ATOM     18  C   UNL     1      -2.734   9.156   0.907  0.00  0.00    +0.214 C 
ATOM     19  O   UNL     1      -3.250   9.705  -0.044  0.00  0.00    -0.276 OA
ATOM     20  N   UNL     1      -2.054   9.881   1.817  0.00  0.00    -0.329 N 
ATOM     21  H   UNL     1      -1.967  10.971   1.698  0.00  0.00    +0.145 HD
ATOM     22  H   UNL     1      -1.587   9.383   2.679  0.00  0.00    +0.145 HD
ENDBRANCH  14  18
BRANCH   7  23
ATOM     23  N   UNL     1      -0.011   0.966   0.007  0.00  0.00    -0.326 N 
ATOM     24  H   UNL     1       0.004  -0.134   0.006  0.00  0.00    +0.148 HD
BRANCH  23  25
ATOM     25  C   UNL     1       1.248   1.716  -0.001  0.00  0.00    +0.130 C 
BRANCH  25  26
ATOM     26  C   UNL     1       2.424   0.737  -0.017  0.00  0.00    +0.174 C 
BRANCH  26  27
ATOM     27  O   UNL     1       2.414   0.001  -1.242  0.00  0.00    -0.393 OA
ATOM     28  H   UNL     1       3.190  -0.754  -1.436  0.00  0.00    +0.209 HD
ENDBRANCH  26  27
ENDBRANCH  25  26
ENDBRANCH  23  25
ENDBRANCH   7  23
TORSDOF 5
