REMARK  Name = ZINC20835373
REMARK  7 active torsions:
REMARK  status: ('A' for Active; 'I' for Inactive)
REMARK    1  A    between atoms: C_1  and  C_2
REMARK    2  A    between atoms: C_6  and  C_21
REMARK    3  A    between atoms: C_7  and  N_8
REMARK    4  A    between atoms: N_8  and  C_9
REMARK    5  A    between atoms: C_9  and  N_11
REMARK    6  A    between atoms: N_11  and  C_12
REMARK    7  A    between atoms: C_15  and  N_19
REMARK                            x       y       z     vdW  Elec       q    Type
REMARK                         _______ _______ _______ _____ _____    ______ ____
ROOT
ATOM      1  N   UNL     1      -0.569  -0.852   4.910  0.00  0.00    -0.297 N 
ATOM      2  H   UNL     1      -0.730   0.100   5.011  0.00  0.00    +0.154 HD
ENDROOT
BRANCH   1   3
ATOM      3  C   UNL     1      -0.920  -1.734   5.941  0.00  0.00    +0.035 A 
ATOM      4  C   UNL     1      -0.030  -2.722   6.341  0.00  0.00    +0.045 A 
ATOM      5  C   UNL     1      -0.375  -3.592   7.357  0.00  0.00    +0.065 A 
ATOM      6  C   UNL     1      -1.612  -3.478   7.979  0.00  0.00    +0.062 A 
ATOM      7  C   UNL     1      -2.502  -2.490   7.579  0.00  0.00    +0.065 A 
ATOM      8  C   UNL     1      -2.154  -1.616   6.566  0.00  0.00    +0.045 A 
ATOM      9 CL   UNL     1      -4.048  -2.346   8.355  0.00  0.00    -0.082 Cl
ATOM     10 CL   UNL     1       0.737  -4.828   7.857  0.00  0.00    -0.082 Cl
BRANCH   6  11
ATOM     11  N   UNL     1      -1.962  -4.361   9.009  0.00  0.00    -0.356 N 
ATOM     12  H   UNL     1      -1.341  -5.051   9.289  0.00  0.00    +0.142 HD
ATOM     13  H   UNL     1      -2.826  -4.281   9.444  0.00  0.00    +0.142 HD
ENDBRANCH   6  11
ENDBRANCH   1   3
BRANCH   1  14
ATOM     14  C   UNL     1      -0.009  -1.325   3.780  0.00  0.00    +0.139 C 
ATOM     15  S   UNL     1       0.373  -2.988   3.644  0.00  0.00    -0.018 S 
BRANCH  14  16
ATOM     16  N   UNL     1       0.250  -0.488   2.755  0.00  0.00    -0.296 N 
ATOM     17  H   UNL     1       0.119   0.467   2.864  0.00  0.00    +0.154 HD
BRANCH  16  24
ATOM     18  C   UNL     1       2.927   0.084   1.978  0.00  0.00    +0.045 C 
ATOM     19  C   UNL     1       2.006  -0.742   1.117  0.00  0.00    -0.029 A 
ATOM     20  C   UNL     1       2.456  -1.251  -0.086  0.00  0.00    +0.005 A 
ATOM     21  C   UNL     1       1.612  -2.009  -0.876  0.00  0.00    +0.001 A 
ATOM     22  C   UNL     1       0.316  -2.260  -0.466  0.00  0.00    +0.005 A 
ATOM     23  C   UNL     1      -0.140  -1.754   0.736  0.00  0.00    -0.029 A 
ATOM     24  C   UNL     1       0.707  -0.997   1.535  0.00  0.00    +0.038 A 
ATOM     25  C   UNL     1      -1.553  -2.028   1.182  0.00  0.00    +0.045 C 
ENDBRANCH  16  24
ENDBRANCH  14  16
ENDBRANCH   1  14
TORSDOF 5
