REMARK  Name = ZINC45995162
REMARK  6 active torsions:
REMARK  status: ('A' for Active; 'I' for Inactive)
REMARK    1  A    between atoms: C_1  and  C_2
REMARK    2  A    between atoms: C_4  and  C_21
REMARK    3  A    between atoms: C_6  and  O_12
REMARK    4  A    between atoms: N_9  and  C_11
REMARK    5  A    between atoms: O_12  and  C_13
REMARK    6  A    between atoms: C_13  and  C_14
REMARK                            x       y       z     vdW  Elec       q    Type
REMARK                         _______ _______ _______ _____ _____    ______ ____
ROOT
ATOM      1  C   UNL     1       0.166   1.504  -0.012  0.00  0.00    +0.068 C 
ATOM      2  C   UNL     1       0.155  -0.004  -0.016  0.00  0.00    +0.070 A 
ATOM      3  C   UNL     1      -0.020  -0.824  -1.153  0.00  0.00    +0.049 A 
ATOM      4  C   UNL     1      -0.224  -0.561  -2.526  0.00  0.00    -0.000 A 
ATOM      5  C   UNL     1      -0.360  -1.645  -3.385  0.00  0.00    +0.076 A 
ATOM      6  C   UNL     1      -0.291  -2.936  -2.868  0.00  0.00    +0.218 A 
ATOM      7  N   UNL     1      -0.101  -3.155  -1.581  0.00  0.00    -0.193 NA
ATOM      8  C   UNL     1       0.036  -2.158  -0.713  0.00  0.00    +0.163 A 
ATOM      9  N   UNL     1       0.238  -2.112   0.640  0.00  0.00    -0.249 N 
ATOM     10  N   UNL     1       0.311  -0.768   1.026  0.00  0.00    -0.174 NA
ATOM     11  C   UNL     1       0.363  -3.269   1.530  0.00  0.00    +0.174 C 
ENDROOT
BRANCH   4  12
ATOM     12  C   UNL     1      -0.290   0.829  -3.036  0.00  0.00    -0.017 A 
ATOM     13  C   UNL     1       0.770   1.708  -2.815  0.00  0.00    +0.008 A 
ATOM     14  C   UNL     1       0.702   3.001  -3.292  0.00  0.00    +0.001 A 
ATOM     15  C   UNL     1      -0.415   3.426  -3.989  0.00  0.00    +0.000 A 
ATOM     16  C   UNL     1      -1.470   2.559  -4.211  0.00  0.00    +0.001 A 
ATOM     17  C   UNL     1      -1.411   1.262  -3.744  0.00  0.00    +0.008 A 
ENDBRANCH   4  12
BRANCH   6  18
ATOM     18  O   UNL     1      -0.424  -3.994  -3.708  0.00  0.00    -0.471 OA
BRANCH  18  19
ATOM     19  C   UNL     1      -0.347  -5.297  -3.127  0.00  0.00    +0.269 C 
BRANCH  19  20
ATOM     20  C   UNL     1      -0.515  -6.338  -4.204  0.00  0.00    +0.025 A 
ATOM     21  C   UNL     1      -0.703  -5.950  -5.517  0.00  0.00    +0.010 A 
ATOM     22  C   UNL     1      -0.858  -6.904  -6.505  0.00  0.00    +0.001 A 
ATOM     23  C   UNL     1      -0.824  -8.248  -6.181  0.00  0.00    +0.003 A 
ATOM     24  C   UNL     1      -0.636  -8.638  -4.869  0.00  0.00    +0.039 A 
ATOM     25  C   UNL     1      -0.476  -7.683  -3.879  0.00  0.00    +0.130 A 
ATOM     26  F   UNL     1      -0.287  -8.063  -2.596  0.00  0.00    -0.205 F 
ENDBRANCH  19  20
ENDBRANCH  18  19
ENDBRANCH   6  18
TORSDOF 4
