REMARK  Name = ZINC47963623
REMARK  6 active torsions:
REMARK  status: ('A' for Active; 'I' for Inactive)
REMARK    1  A    between atoms: C_4  and  N_9
REMARK    2  A    between atoms: C_5  and  C_6
REMARK    3  A    between atoms: C_10  and  C_12
REMARK    4  A    between atoms: N_14  and  C_15
REMARK    5  A    between atoms: C_15  and  C_16
REMARK    6  A    between atoms: C_16  and  N_22
REMARK                            x       y       z     vdW  Elec       q    Type
REMARK                         _______ _______ _______ _____ _____    ______ ____
ROOT
ATOM      1  C   UNL     1       2.914  -6.445   1.433  0.00  0.00    +0.299 C 
ATOM      2  O   UNL     1       2.134  -5.907   0.676  0.00  0.00    -0.265 OA
ATOM      3  N   UNL     1       4.235  -6.423   1.167  0.00  0.00    -0.309 N 
ATOM      4  H   UNL     1       4.859  -6.853   1.773  0.00  0.00    +0.149 HD
ENDROOT
BRANCH   1   6
ATOM      5  N   UNL     1       1.090  -7.151   2.927  0.00  0.00    -0.272 N 
ATOM      6  C   UNL     1       2.411  -7.130   2.661  0.00  0.00    +0.304 C 
ATOM      7  O   UNL     1       3.192  -7.668   3.419  0.00  0.00    -0.265 OA
ATOM      8  H   UNL     1       0.466  -6.721   2.322  0.00  0.00    +0.156 HD
BRANCH   5  12
ATOM      9  C   UNL     1      -0.900  -8.628   5.731  0.00  0.00    +0.022 A 
ATOM     10  C   UNL     1       0.209  -9.104   6.329  0.00  0.00    +0.048 A 
ATOM     11  S   UNL     1       1.517  -8.586   5.239  0.00  0.00    -0.081 S 
ATOM     12  C   UNL     1       0.624  -7.786   4.065  0.00  0.00    +0.084 A 
ATOM     13  C   UNL     1      -0.690  -7.908   4.497  0.00  0.00    +0.065 A 
BRANCH  13  14
ATOM     14  C   UNL     1      -1.807  -7.336   3.738  0.00  0.00    +0.244 C 
ATOM     15  O   UNL     1      -1.594  -6.736   2.701  0.00  0.00    -0.270 OA
ATOM     16  N   UNL     1      -3.069  -7.475   4.189  0.00  0.00    -0.325 N 
ATOM     17  H   UNL     1      -3.239  -7.954   5.016  0.00  0.00    +0.145 HD
ATOM     18  H   UNL     1      -3.808  -7.097   3.688  0.00  0.00    +0.145 HD
ENDBRANCH  13  14
ENDBRANCH   5  12
ENDBRANCH   1   6
BRANCH   3  19
ATOM     19  C   UNL     1       4.729  -5.751  -0.037  0.00  0.00    +0.093 C 
BRANCH  19  20
ATOM     20  C   UNL     1       6.259  -5.759  -0.035  0.00  0.00    -0.050 C 
ATOM     21  C   UNL     1       6.761  -7.200  -0.150  0.00  0.00    -0.010 C 
ATOM     22  C   UNL     1       6.249  -7.816  -1.453  0.00  0.00    -0.001 C 
ATOM     23  C   UNL     1       6.765  -7.001  -2.640  0.00  0.00    -0.000 C 
ATOM     24  C   UNL     1       6.263  -5.560  -2.526  0.00  0.00    -0.001 C 
ATOM     25  C   UNL     1       6.775  -4.944  -1.223  0.00  0.00    -0.010 C 
BRANCH  20  26
ATOM     26  N   UNL     1       6.750  -5.167   1.216  0.00  0.00    +0.384 N 
ATOM     27  C   UNL     1       8.218  -5.145   1.202  0.00  0.00    -0.078 C 
ATOM     28  C   UNL     1       8.736  -4.604   2.536  0.00  0.00    -0.019 C 
ATOM     29  C   UNL     1       8.204  -3.183   2.746  0.00  0.00    -0.004 C 
ATOM     30  C   UNL     1       6.675  -3.208   2.685  0.00  0.00    -0.019 C 
ATOM     31  C   UNL     1       6.232  -3.800   1.345  0.00  0.00    -0.078 C 
ATOM     32  H   UNL     1       6.432  -5.722   1.997  0.00  0.00    -0.081 HD
ENDBRANCH  20  26
ENDBRANCH  19  20
ENDBRANCH   3  19
TORSDOF 6
