REMARK  Name = ZINC33467560
REMARK  11 active torsions:
REMARK  status: ('A' for Active; 'I' for Inactive)
REMARK    1  A    between atoms: C_1  and  C_2
REMARK    2  A    between atoms: C_2  and  O_3
REMARK    3  A    between atoms: O_3  and  C_4
REMARK    4  A    between atoms: C_4  and  C_6
REMARK    5  A    between atoms: C_13  and  C_15
REMARK    6  A    between atoms: C_15  and  C_16
REMARK    7  A    between atoms: C_16  and  C_18
REMARK    8  A    between atoms: C_16  and  C_25
REMARK    9  A    between atoms: C_33  and  O_34
REMARK   10  A    between atoms: O_34  and  C_35
REMARK   11  A    between atoms: C_35  and  C_36
REMARK                            x       y       z     vdW  Elec       q    Type
REMARK                         _______ _______ _______ _____ _____    ______ ____
ROOT
ATOM      1  C   UNL     1       8.312  -3.282  -5.098  0.00  0.00    +0.076 C 
ENDROOT
BRANCH   1   2
ATOM      2  C   UNL     1       7.138  -2.625  -4.419  0.00  0.00    +0.051 A 
ATOM      3  C   UNL     1       6.077  -2.051  -5.028  0.00  0.00    +0.135 A 
ATOM      4  N   UNL     1       5.250  -1.583  -4.090  0.00  0.00    -0.232 NA
ATOM      5  C   UNL     1       5.751  -1.855  -2.893  0.00  0.00    +0.180 A 
ATOM      6  N   UNL     1       6.939  -2.514  -3.070  0.00  0.00    -0.300 N 
ATOM      7  C   UNL     1       7.671  -2.923  -1.991  0.00  0.00    +0.093 A 
ATOM      8  C   UNL     1       7.241  -2.682  -0.735  0.00  0.00    +0.022 A 
ATOM      9  C   UNL     1       6.030  -2.004  -0.518  0.00  0.00    +0.051 A 
ATOM     10  C   UNL     1       5.287  -1.589  -1.585  0.00  0.00    +0.164 A 
BRANCH  10  11
ATOM     11  O   UNL     1       4.113  -0.932  -1.391  0.00  0.00    -0.484 OA
BRANCH  11  12
ATOM     12  C   UNL     1       3.711  -0.707  -0.039  0.00  0.00    +0.264 C 
BRANCH  12  13
ATOM     13  C   UNL     1       2.396   0.029  -0.022  0.00  0.00    -0.010 A 
ATOM     14  C   UNL     1       1.208  -0.679  -0.014  0.00  0.00    +0.007 A 
ATOM     15  C   UNL     1       0.002  -0.004   0.002  0.00  0.00    +0.000 A 
ATOM     16  C   UNL     1      -0.017   1.378   0.010  0.00  0.00    +0.000 A 
ATOM     17  C   UNL     1       1.171   2.086   0.002  0.00  0.00    +0.000 A 
ATOM     18  C   UNL     1       2.377   1.411  -0.014  0.00  0.00    +0.007 A 
ENDBRANCH  12  13
ENDBRANCH  11  12
ENDBRANCH  10  11
ENDBRANCH   1   2
BRANCH   1  19
ATOM     19  C   UNL     1       7.963  -4.709  -5.435  0.00  0.00    -0.035 A 
ATOM     20  C   UNL     1       8.710  -5.746  -4.907  0.00  0.00    +0.004 A 
ATOM     21  C   UNL     1       8.391  -7.055  -5.215  0.00  0.00    +0.003 A 
ATOM     22  C   UNL     1       7.325  -7.329  -6.051  0.00  0.00    +0.038 A 
ATOM     23  C   UNL     1       6.578  -6.292  -6.581  0.00  0.00    +0.124 A 
ATOM     24  C   UNL     1       6.894  -4.981  -6.268  0.00  0.00    +0.042 A 
ATOM     25  F   UNL     1       5.536  -6.559  -7.400  0.00  0.00    -0.205 F 
ENDBRANCH   1  19
BRANCH   1  26
ATOM     26  C   UNL     1       8.648  -2.522  -6.383  0.00  0.00    +0.110 C 
BRANCH  26  33
ATOM     27  C   UNL     1      11.295  -3.506 -10.214  0.00  0.00    +0.115 C 
ATOM     28  C   UNL     1      10.733  -2.278 -10.934  0.00  0.00    +0.018 C 
ATOM     29  C   UNL     1       9.428  -1.843 -10.263  0.00  0.00    +0.020 C 
ATOM     30  C   UNL     1       9.707  -1.466  -8.809  0.00  0.00    +0.108 C 
ATOM     31  N   UNL     1      10.383  -2.588  -8.145  0.00  0.00    -0.301 N 
ATOM     32  C   UNL     1      11.598  -3.143  -8.757  0.00  0.00    +0.122 C 
ATOM     33  C   UNL     1       9.895  -3.103  -6.998  0.00  0.00    +0.217 C 
ATOM     34  O   UNL     1      10.460  -4.032  -6.462  0.00  0.00    -0.276 OA
BRANCH  27  35
ATOM     35  C   UNL     1      12.563  -3.952 -10.895  0.00  0.00    +0.312 C 
ATOM     36  O   UNL     1      13.602  -3.978 -10.280  0.00  0.00    -0.250 OA
BRANCH  35  37
ATOM     37  O   UNL     1      12.537  -4.321 -12.186  0.00  0.00    -0.465 OA
BRANCH  37  39
ATOM     38  C   UNL     1      13.569  -5.119 -14.242  0.00  0.00    +0.048 C 
ATOM     39  C   UNL     1      13.795  -4.739 -12.777  0.00  0.00    +0.229 C 
ENDBRANCH  37  39
ENDBRANCH  35  37
ENDBRANCH  27  35
ENDBRANCH  26  33
ENDBRANCH   1  26
TORSDOF 10
