REMARK  Name = ZINC00246374
REMARK  0 active torsions:
REMARK  status: ('A' for Active; 'I' for Inactive)
REMARK                            x       y       z     vdW  Elec       q    Type
REMARK                         _______ _______ _______ _____ _____    ______ ____
ROOT
ATOM      1  C   UNL     1      -0.017   1.397   0.010  0.00  0.00    +0.030 A 
ATOM      2  C   UNL     1       1.125   2.119   0.003  0.00  0.00    +0.033 A 
ATOM      3  C   UNL     1       2.393   1.473  -0.013  0.00  0.00    +0.102 A 
ATOM      4  C   UNL     1       2.432   0.015  -0.021  0.00  0.00    +0.125 A 
ATOM      5  C   UNL     1       1.196  -0.693  -0.014  0.00  0.00    +0.093 A 
ATOM      6  C   UNL     1       0.002  -0.004   0.002  0.00  0.00    +0.067 A 
ATOM      7  N   UNL     1      -1.015  -0.959   0.007  0.00  0.00    -0.334 N 
ATOM      8  C   UNL     1      -0.448  -2.180  -0.005  0.00  0.00    +0.156 A 
ATOM      9  N   UNL     1       0.892  -2.049  -0.019  0.00  0.00    -0.332 N 
ATOM     10  H   UNL     1       1.535  -2.776  -0.029  0.00  0.00    +0.168 HD
ATOM     11  S   UNL     1      -1.297  -3.667  -0.004  0.00  0.00    -0.013 S 
ATOM     12  N   UNL     1       3.671  -0.477  -0.036  0.00  0.00    -0.189 NA
ATOM     13  S   UNL     1       4.646   0.803  -0.038  0.00  0.00    +0.117 S 
ATOM     14  N   UNL     1       3.605   2.029  -0.021  0.00  0.00    -0.191 NA
ATOM     15  H   UNL     1      -1.968  -0.775   0.018  0.00  0.00    +0.168 HD
ENDROOT
TORSDOF 0
