REMARK  Name = ZINC59849769
REMARK  5 active torsions:
REMARK  status: ('A' for Active; 'I' for Inactive)
REMARK    1  A    between atoms: C_3  and  C_15
REMARK    2  A    between atoms: C_5  and  N_7
REMARK    3  A    between atoms: C_8  and  C_10
REMARK    4  A    between atoms: C_15  and  N_16
REMARK    5  A    between atoms: C_17  and  C_19
REMARK                            x       y       z     vdW  Elec       q    Type
REMARK                         _______ _______ _______ _____ _____    ______ ____
ROOT
ATOM      1  C   UNL     1       3.647   2.189  -0.406  0.00  0.00    +0.140 C 
ENDROOT
BRANCH   1   4
ATOM      2  C   UNL     1       0.004   1.379   0.173  0.00  0.00    +0.002 A 
ATOM      3  C   UNL     1       1.178   2.086  -0.014  0.00  0.00    +0.005 A 
ATOM      4  C   UNL     1       2.371   1.414  -0.203  0.00  0.00    -0.029 A 
ATOM      5  C   UNL     1       2.394   0.033  -0.206  0.00  0.00    +0.028 A 
ATOM      6  C   UNL     1       1.218  -0.681  -0.019  0.00  0.00    +0.034 A 
ATOM      7  C   UNL     1       0.021  -0.002   0.171  0.00  0.00    +0.023 A 
BRANCH   6   8
ATOM      8  N   UNL     1       1.238  -2.079  -0.022  0.00  0.00    -0.279 N 
ATOM      9  C   UNL     1       2.311  -2.738   0.457  0.00  0.00    +0.284 C 
ATOM     10  O   UNL     1       3.221  -2.122   0.979  0.00  0.00    -0.266 OA
ATOM     11  H   UNL     1       0.479  -2.574  -0.368  0.00  0.00    +0.155 HD
BRANCH   9  12
ATOM     12  C   UNL     1       2.383  -4.199   0.348  0.00  0.00    +0.189 A 
ATOM     13  C   UNL     1       3.405  -4.987   0.794  0.00  0.00    +0.054 A 
ATOM     14  C   UNL     1       3.057  -6.312   0.485  0.00  0.00    +0.042 A 
ATOM     15  C   UNL     1       1.853  -6.274  -0.128  0.00  0.00    +0.196 A 
ATOM     16  O   UNL     1       1.448  -4.999  -0.204  0.00  0.00    -0.458 OA
ENDBRANCH   9  12
ENDBRANCH   6   8
ENDBRANCH   1   4
BRANCH   1  17
ATOM     17  N   UNL     1       4.278   2.441   0.892  0.00  0.00    -0.306 N 
ATOM     18  C   UNL     1       5.439   3.122   0.956  0.00  0.00    +0.262 C 
ATOM     19  O   UNL     1       5.963   3.528  -0.064  0.00  0.00    -0.269 OA
ATOM     20  H   UNL     1       3.860   2.117   1.705  0.00  0.00    +0.149 HD
BRANCH  18  21
ATOM     21  C   UNL     1       6.071   3.374   2.258  0.00  0.00    +0.121 A 
ATOM     22  C   UNL     1       7.234   4.052   2.452  0.00  0.00    +0.078 A 
ATOM     23  C   UNL     1       7.494   4.073   3.845  0.00  0.00    +0.020 A 
ATOM     24  C   UNL     1       8.525   4.615   4.622  0.00  0.00    +0.031 A 
ATOM     25  C   UNL     1       8.501   4.470   5.979  0.00  0.00    +0.042 A 
ATOM     26  C   UNL     1       7.460   3.787   6.599  0.00  0.00    +0.022 A 
ATOM     27  C   UNL     1       6.436   3.245   5.856  0.00  0.00    +0.028 A 
ATOM     28  C   UNL     1       6.439   3.381   4.470  0.00  0.00    +0.049 A 
ATOM     29  N   UNL     1       5.576   2.966   3.483  0.00  0.00    -0.349 N 
ATOM     30  H   UNL     1       4.755   2.468   3.623  0.00  0.00    +0.166 HD
ATOM     31 CL   UNL     1       9.781   5.142   6.940  0.00  0.00    -0.084 Cl
ATOM     32 CL   UNL     1       8.224   4.763   1.215  0.00  0.00    -0.081 Cl
ENDBRANCH  18  21
ENDBRANCH   1  17
TORSDOF 5
