REMARK  Name = ZINC34749130
REMARK  9 active torsions:
REMARK  status: ('A' for Active; 'I' for Inactive)
REMARK    1  A    between atoms: C_1  and  C_2
REMARK    2  A    between atoms: C_2  and  C_3
REMARK    3  A    between atoms: C_4  and  C_36
REMARK    4  A    between atoms: N_10  and  C_27
REMARK    5  A    between atoms: N_16  and  C_19
REMARK    6  A    between atoms: C_19  and  C_20
REMARK    7  A    between atoms: C_27  and  C_28
REMARK    8  A    between atoms: C_30  and  C_35
REMARK    9  A    between atoms: C_33  and  C_34
REMARK                            x       y       z     vdW  Elec       q    Type
REMARK                         _______ _______ _______ _____ _____    ______ ____
ROOT
ATOM      1  C   UNL     1       1.064  -0.733   1.815  0.00  0.00    -0.023 A 
ATOM      2  C   UNL     1       2.384  -0.748   2.053  0.00  0.00    -0.007 A 
ATOM      3  S   UNL     1       2.489  -1.191   3.777  0.00  0.00    -0.073 S 
ATOM      4  C   UNL     1       0.756  -1.343   4.128  0.00  0.00    +0.117 A 
ATOM      5  C   UNL     1       0.144  -1.039   2.898  0.00  0.00    +0.076 A 
ATOM      6  C   UNL     1      -1.286  -1.080   2.887  0.00  0.00    +0.264 A 
ATOM      7  O   UNL     1      -1.903  -0.836   1.864  0.00  0.00    -0.267 OA
ATOM      8  N   UNL     1      -1.940  -1.391   4.020  0.00  0.00    -0.276 N 
ATOM      9  C   UNL     1      -1.267  -1.667   5.174  0.00  0.00    +0.202 A 
ATOM     10  N   UNL     1       0.049  -1.648   5.210  0.00  0.00    -0.208 NA
ATOM     11  N   UNL     1      -1.971  -1.981   6.310  0.00  0.00    -0.304 N 
ATOM     12  C   UNL     1      -1.581  -3.123   7.150  0.00  0.00    +0.089 C 
ATOM     13  C   UNL     1      -1.484  -2.646   8.603  0.00  0.00    -0.059 C 
ATOM     14  N   UNL     1      -2.748  -2.010   8.994  0.00  0.00    +0.384 N 
ATOM     15  C   UNL     1      -2.966  -0.798   8.195  0.00  0.00    -0.059 C 
ATOM     16  C   UNL     1      -3.134  -1.180   6.724  0.00  0.00    +0.089 C 
ATOM     17  C   UNL     1       3.509  -0.461   1.093  0.00  0.00    +0.052 C 
ATOM     18  H   UNL     1      -3.509  -2.655   8.841  0.00  0.00    -0.081 HD
ENDROOT
BRANCH   1  20
ATOM     19  C   UNL     1       0.322   1.115   0.338  0.00  0.00    +0.009 C 
ATOM     20  C   UNL     1       0.541  -0.395   0.443  0.00  0.00    +0.033 C 
ENDBRANCH   1  20
BRANCH  14  21
ATOM     21  C   UNL     1      -2.694  -1.652  10.418  0.00  0.00    -0.041 C 
BRANCH  21  22
ATOM     22  C   UNL     1      -4.032  -1.112  10.851  0.00  0.00    -0.046 A 
ATOM     23  C   UNL     1      -4.228   0.253  10.950  0.00  0.00    +0.003 A 
ATOM     24  C   UNL     1      -5.455   0.749  11.347  0.00  0.00    +0.000 A 
ATOM     25  C   UNL     1      -6.488  -0.120  11.646  0.00  0.00    +0.001 A 
ATOM     26  C   UNL     1      -6.294  -1.485  11.548  0.00  0.00    +0.020 A 
ATOM     27  C   UNL     1      -5.067  -1.981  11.145  0.00  0.00    +0.042 A 
ATOM     28 CL   UNL     1      -4.824  -3.696  11.015  0.00  0.00    -0.083 Cl
ENDBRANCH  21  22
ENDBRANCH  14  21
BRANCH   8  29
ATOM     29  C   UNL     1      -3.405  -1.435   4.015  0.00  0.00    +0.163 C 
BRANCH  29  30
ATOM     30  C   UNL     1      -3.873  -2.484   3.040  0.00  0.00    -0.024 A 
ATOM     31  C   UNL     1      -4.401  -2.107   1.819  0.00  0.00    +0.009 A 
ATOM     32  C   UNL     1      -4.831  -3.069   0.925  0.00  0.00    -0.050 A 
ATOM     33  C   UNL     1      -4.731  -4.409   1.251  0.00  0.00    +0.003 A 
ATOM     34  C   UNL     1      -4.202  -4.786   2.471  0.00  0.00    +0.004 A 
ATOM     35  C   UNL     1      -3.769  -3.824   3.364  0.00  0.00    -0.046 A 
ATOM     36  C   UNL     1      -3.188  -4.235   4.692  0.00  0.00    +0.044 C 
ATOM     37  C   UNL     1      -5.407  -2.658  -0.405  0.00  0.00    +0.044 C 
ENDBRANCH  29  30
ENDBRANCH   8  29
TORSDOF 5
