REMARK  Name = ZINC01832574
REMARK  8 active torsions:
REMARK  status: ('A' for Active; 'I' for Inactive)
REMARK    1  A    between atoms: C_2  and  C_3
REMARK    2  A    between atoms: C_2  and  N_9
REMARK    3  A    between atoms: N_9  and  N_10
REMARK    4  A    between atoms: C_11  and  C_13
REMARK    5  A    between atoms: C_13  and  S_14
REMARK    6  A    between atoms: S_14  and  C_15
REMARK    7  A    between atoms: C_18  and  C_27
REMARK    8  A    between atoms: N_19  and  C_20
REMARK                            x       y       z     vdW  Elec       q    Type
REMARK                         _______ _______ _______ _____ _____    ______ ____
ROOT
ATOM      1  C   UNL     1       7.710   0.027  -0.071  0.00  0.00    +0.197 A 
ATOM      2  N   UNL     1       7.714   1.341  -0.059  0.00  0.00    -0.122 NA
ATOM      3  N   UNL     1       8.921   1.780  -0.070  0.00  0.00    -0.128 NA
ATOM      4  C   UNL     1       9.765   0.775  -0.090  0.00  0.00    +0.169 A 
ATOM      5  N   UNL     1       9.016  -0.381  -0.086  0.00  0.00    -0.270 N 
ENDROOT
BRANCH   5   6
ATOM      6  C   UNL     1       9.492  -1.700  -0.098  0.00  0.00    +0.051 A 
ATOM      7  C   UNL     1      10.211  -2.189   0.985  0.00  0.00    +0.028 A 
ATOM      8  C   UNL     1      10.678  -3.489   0.971  0.00  0.00    +0.022 A 
ATOM      9  C   UNL     1      10.431  -4.303  -0.120  0.00  0.00    +0.041 A 
ATOM     10  C   UNL     1       9.715  -3.817  -1.200  0.00  0.00    +0.022 A 
ATOM     11  C   UNL     1       9.241  -2.520  -1.189  0.00  0.00    +0.028 A 
ATOM     12 CL   UNL     1      11.020  -5.936  -0.134  0.00  0.00    -0.084 Cl
ENDBRANCH   5   6
BRANCH   4  13
ATOM     13  C   UNL     1      11.240   0.866  -0.109  0.00  0.00    +0.020 A 
ATOM     14  C   UNL     1      12.007  -0.250  -0.448  0.00  0.00    +0.013 A 
ATOM     15  C   UNL     1      13.383  -0.158  -0.464  0.00  0.00    +0.021 A 
ATOM     16  C   UNL     1      14.004   1.037  -0.144  0.00  0.00    +0.041 A 
ATOM     17  C   UNL     1      13.249   2.148   0.194  0.00  0.00    +0.021 A 
ATOM     18  C   UNL     1      11.872   2.070   0.207  0.00  0.00    +0.013 A 
ATOM     19 CL   UNL     1      15.737   1.145  -0.165  0.00  0.00    -0.084 Cl
ENDBRANCH   4  13
BRANCH   1  20
ATOM     20  S   UNL     1       6.289  -1.015  -0.063  0.00  0.00    -0.076 S 
BRANCH  20  21
ATOM     21  C   UNL     1       4.895   0.145  -0.044  0.00  0.00    +0.174 C 
BRANCH  21  23
ATOM     22  N   UNL     1       2.424   0.032  -0.021  0.00  0.00    -0.236 N 
ATOM     23  C   UNL     1       3.600  -0.626  -0.036  0.00  0.00    +0.239 C 
ATOM     24  O   UNL     1       3.616  -1.839  -0.042  0.00  0.00    -0.273 OA
ATOM     25  H   UNL     1       2.411   1.001  -0.016  0.00  0.00    +0.173 HD
BRANCH  22  26
ATOM     26  N   UNL     1       1.220  -0.685  -0.013  0.00  0.00    -0.264 N 
ATOM     27  H   UNL     1       1.233  -1.655  -0.019  0.00  0.00    +0.170 HD
BRANCH  26  29
ATOM     28  C   UNL     1      -0.016   1.329   0.009  0.00  0.00    +0.035 C 
ATOM     29  C   UNL     1       0.002  -0.004   0.002  0.00  0.00    +0.045 C 
BRANCH  29  30
ATOM     30  C   UNL     1      -1.270  -0.762   0.010  0.00  0.00    -0.000 A 
ATOM     31  C   UNL     1      -1.274  -2.161   0.008  0.00  0.00    +0.029 A 
ATOM     32  C   UNL     1      -2.482  -2.827   0.016  0.00  0.00    +0.111 A 
ATOM     33  N   UNL     1      -3.622  -2.163   0.025  0.00  0.00    -0.263 NA
ATOM     34  C   UNL     1      -3.663  -0.844   0.026  0.00  0.00    +0.111 A 
ATOM     35  C   UNL     1      -2.502  -0.099   0.025  0.00  0.00    +0.029 A 
ENDBRANCH  29  30
ENDBRANCH  26  29
ENDBRANCH  22  26
ENDBRANCH  21  23
ENDBRANCH  20  21
ENDBRANCH   1  20
TORSDOF 8
