REMARK  Name = ZINC44903836
REMARK  6 active torsions:
REMARK  status: ('A' for Active; 'I' for Inactive)
REMARK    1  A    between atoms: C_6  and  C_7
REMARK    2  A    between atoms: C_7  and  N_8
REMARK    3  A    between atoms: C_15  and  C_16
REMARK    4  A    between atoms: N_18  and  C_19
REMARK    5  A    between atoms: C_22  and  S_25
REMARK    6  A    between atoms: S_25  and  N_28
REMARK                            x       y       z     vdW  Elec       q    Type
REMARK                         _______ _______ _______ _____ _____    ______ ____
ROOT
ATOM      1  N   UNL     1      -1.388  -1.042  -1.551  0.00  0.00    -0.331 N 
ATOM      2  C   UNL     1      -2.256  -0.254  -2.304  0.00  0.00    +0.057 A 
ATOM      3  C   UNL     1      -2.550   1.104  -2.484  0.00  0.00    +0.034 A 
ATOM      4  C   UNL     1      -3.513   1.480  -3.353  0.00  0.00    +0.048 A 
ATOM      5  S   UNL     1      -4.088  -0.083  -3.996  0.00  0.00    -0.095 S 
ATOM      6  C   UNL     1      -3.013  -1.149  -3.070  0.00  0.00    +0.038 A 
ATOM      7  C   UNL     1      -2.614  -2.445  -2.788  0.00  0.00    +0.048 A 
ATOM      8  C   UNL     1      -1.605  -2.370  -1.853  0.00  0.00    +0.107 A 
ENDROOT
BRANCH   8   9
ATOM      9  C   UNL     1      -0.887  -3.508  -1.274  0.00  0.00    +0.265 C 
ATOM     10  O   UNL     1      -0.958  -4.603  -1.799  0.00  0.00    -0.268 OA
ATOM     11  N   UNL     1      -0.148  -3.341  -0.159  0.00  0.00    -0.280 N 
ATOM     12  H   UNL     1      -0.078  -2.465   0.251  0.00  0.00    +0.155 HD
BRANCH  11  13
ATOM     13  C   UNL     1       0.519  -4.433   0.407  0.00  0.00    +0.034 A 
ATOM     14  C   UNL     1       0.893  -5.508  -0.388  0.00  0.00    +0.025 A 
ATOM     15  C   UNL     1       1.552  -6.584   0.174  0.00  0.00    +0.030 A 
ATOM     16  C   UNL     1       1.839  -6.591   1.527  0.00  0.00    +0.105 A 
ATOM     17  C   UNL     1       1.468  -5.522   2.321  0.00  0.00    +0.030 A 
ATOM     18  C   UNL     1       0.813  -4.440   1.764  0.00  0.00    +0.025 A 
BRANCH  16  19
ATOM     19  S   UNL     1       2.679  -7.966   2.240  0.00  0.00    +0.056 S 
ATOM     20  O   UNL     1       2.345  -7.974   3.621  0.00  0.00    -0.153 OA
ATOM     21  O   UNL     1       2.432  -9.078   1.390  0.00  0.00    -0.153 OA
BRANCH  19  22
ATOM     22  N   UNL     1       4.302  -7.650   2.147  0.00  0.00    -0.204 NA
ATOM     23  H   UNL     1       4.612  -6.822   1.749  0.00  0.00    +0.144 HD
ATOM     24  H   UNL     1       4.941  -8.294   2.490  0.00  0.00    +0.144 HD
ENDBRANCH  19  22
ENDBRANCH  16  19
ENDBRANCH  11  13
ENDBRANCH   8   9
BRANCH   1  25
ATOM     25  C   UNL     1      -0.398  -0.539  -0.596  0.00  0.00    +0.157 C 
BRANCH  25  31
ATOM     26  C   UNL     1      -1.291  -1.308   1.613  0.00  0.00    +0.007 A 
ATOM     27  C   UNL     1      -1.905  -1.062   2.826  0.00  0.00    +0.020 A 
ATOM     28  C   UNL     1      -2.297   0.224   3.154  0.00  0.00    +0.041 A 
ATOM     29  C   UNL     1      -2.075   1.262   2.268  0.00  0.00    +0.020 A 
ATOM     30  C   UNL     1      -1.460   1.015   1.055  0.00  0.00    +0.007 A 
ATOM     31  C   UNL     1      -1.069  -0.270   0.727  0.00  0.00    -0.028 A 
ATOM     32 CL   UNL     1      -3.069   0.533   4.678  0.00  0.00    -0.084 Cl
ENDBRANCH  25  31
ENDBRANCH   1  25
TORSDOF 6
