REMARK  Name = ZINC25879974
REMARK  5 active torsions:
REMARK  status: ('A' for Active; 'I' for Inactive)
REMARK    1  A    between atoms: C_1  and  C_2
REMARK    2  A    between atoms: C_8  and  C_13
REMARK    3  A    between atoms: C_10  and  C_12
REMARK    4  A    between atoms: N_15  and  C_16
REMARK    5  A    between atoms: C_19  and  N_22
REMARK                            x       y       z     vdW  Elec       q    Type
REMARK                         _______ _______ _______ _____ _____    ______ ____
ROOT
ATOM      1  C   UNL     1       0.194  -2.133   3.708  0.00  0.00    +0.249 C 
ATOM      2  O   UNL     1       0.385  -0.935   3.789  0.00  0.00    -0.270 OA
ATOM      3  N   UNL     1      -0.023  -2.858   4.823  0.00  0.00    -0.281 N 
ATOM      4  H   UNL     1      -0.102  -3.824   4.766  0.00  0.00    +0.155 HD
ENDROOT
BRANCH   1  12
ATOM      5  C   UNL     1       0.597   1.551   0.072  0.00  0.00    +0.044 C 
ATOM      6  C   UNL     1       0.491   0.048   0.043  0.00  0.00    -0.050 A 
ATOM      7  C   UNL     1       0.492  -0.619  -1.181  0.00  0.00    +0.005 A 
ATOM      8  C   UNL     1       0.399  -1.974  -1.242  0.00  0.00    +0.028 A 
ATOM      9  C   UNL     1       0.299  -2.721  -0.053  0.00  0.00    +0.072 A 
ATOM     10  C   UNL     1       0.299  -2.040   1.189  0.00  0.00    +0.013 A 
ATOM     11  C   UNL     1       0.401  -0.643   1.214  0.00  0.00    +0.014 A 
ATOM     12  C   UNL     1       0.198  -2.794   2.385  0.00  0.00    +0.048 A 
ATOM     13  C   UNL     1       0.105  -4.176   2.273  0.00  0.00    +0.036 A 
ATOM     14  C   UNL     1       0.112  -4.765   1.011  0.00  0.00    +0.040 A 
ATOM     15  N   UNL     1       0.206  -4.053  -0.085  0.00  0.00    -0.252 NA
ATOM     16  C   UNL     1       0.011  -6.265   0.903  0.00  0.00    +0.065 C 
ENDBRANCH   1  12
BRANCH   3  17
ATOM     17  C   UNL     1      -0.133  -2.219   6.063  0.00  0.00    +0.034 A 
ATOM     18  C   UNL     1       0.325  -2.849   7.213  0.00  0.00    +0.025 A 
ATOM     19  C   UNL     1       0.216  -2.218   8.436  0.00  0.00    +0.025 A 
ATOM     20  C   UNL     1      -0.352  -0.954   8.517  0.00  0.00    +0.035 A 
ATOM     21  C   UNL     1      -0.810  -0.324   7.367  0.00  0.00    +0.025 A 
ATOM     22  C   UNL     1      -0.696  -0.952   6.143  0.00  0.00    +0.025 A 
BRANCH  20  23
ATOM     23  N   UNL     1      -0.462  -0.314   9.758  0.00  0.00    -0.270 N 
ATOM     24  C   UNL     1      -1.508   0.500  10.006  0.00  0.00    +0.301 C 
ATOM     25  O   UNL     1      -2.403   0.605   9.190  0.00  0.00    -0.253 OA
ATOM     26  N   UNL     1      -1.560   1.199  11.157  0.00  0.00    -0.313 N 
ATOM     27  H   UNL     1       0.213  -0.456  10.439  0.00  0.00    +0.156 HD
ATOM     28  H   UNL     1      -0.845   1.115  11.808  0.00  0.00    +0.146 HD
ATOM     29  H   UNL     1      -2.312   1.785  11.335  0.00  0.00    +0.146 HD
ENDBRANCH  20  23
ENDBRANCH   3  17
TORSDOF 3
