REMARK  Name = ZINC09816971
REMARK  14 active torsions:
REMARK  status: ('A' for Active; 'I' for Inactive)
REMARK    1  A    between atoms: C_1  and  C_2
REMARK    2  A    between atoms: C_3  and  C_29
REMARK    3  A    between atoms: C_5  and  N_11
REMARK    4  A    between atoms: C_6  and  C_7
REMARK    5  A    between atoms: C_7  and  O_9
REMARK    6  A    between atoms: O_9  and  C_10
REMARK    7  A    between atoms: C_12  and  C_14
REMARK    8  A    between atoms: C_14  and  O_15
REMARK    9  A    between atoms: O_15  and  C_16
REMARK   10  A    between atoms: C_16  and  C_18
REMARK   11  A    between atoms: C_20  and  O_27
REMARK   12  A    between atoms: C_21  and  O_25
REMARK   13  A    between atoms: O_25  and  C_26
REMARK   14  A    between atoms: O_27  and  C_28
REMARK                            x       y       z     vdW  Elec       q    Type
REMARK                         _______ _______ _______ _____ _____    ______ ____
ROOT
ATOM      1  N   UNL     1       1.254   3.784   2.498  0.00  0.00    -0.277 N 
ATOM      2  C   UNL     1       1.292   4.645   3.533  0.00  0.00    +0.255 C 
ATOM      3  O   UNL     1       1.338   5.840   3.327  0.00  0.00    -0.272 OA
ATOM      4  H   UNL     1       1.217   2.829   2.662  0.00  0.00    +0.155 HD
ENDROOT
BRANCH   1   9
ATOM      5  C   UNL     1       1.211   3.629  -2.563  0.00  0.00    +0.045 C 
ATOM      6  C   UNL     1       1.250   4.303  -1.216  0.00  0.00    -0.025 A 
ATOM      7  C   UNL     1       1.303   5.643  -1.104  0.00  0.00    -0.008 A 
ATOM      8  S   UNL     1       1.331   5.907   0.657  0.00  0.00    -0.078 S 
ATOM      9  C   UNL     1       1.266   4.263   1.197  0.00  0.00    +0.086 A 
ATOM     10  C   UNL     1       1.232   3.540   0.009  0.00  0.00    +0.091 A 
ATOM     11  C   UNL     1       1.332   6.672  -2.204  0.00  0.00    +0.052 C 
BRANCH  10  12
ATOM     12  C   UNL     1       1.176   2.076   0.002  0.00  0.00    +0.342 C 
ATOM     13  O   UNL     1       2.205   1.428  -0.011  0.00  0.00    -0.245 OA
BRANCH  12  14
ATOM     14  O   UNL     1      -0.018   1.448   0.010  0.00  0.00    -0.464 OA
ATOM     15  C   UNL     1       0.002  -0.004   0.002  0.00  0.00    +0.280 C 
ENDBRANCH  12  14
ENDBRANCH  10  12
ENDBRANCH   1   9
BRANCH   2  16
ATOM     16  C   UNL     1       1.278   4.124   4.947  0.00  0.00    +0.328 C 
BRANCH  16  17
ATOM     17  O   UNL     1       1.326   5.241   5.875  0.00  0.00    -0.452 OA
BRANCH  17  18
ATOM     18  C   UNL     1       1.321   4.944   7.189  0.00  0.00    +0.340 C 
ATOM     19  O   UNL     1       1.277   3.785   7.551  0.00  0.00    -0.245 OA
BRANCH  18  20
ATOM     20  C   UNL     1       1.368   6.027   8.189  0.00  0.00    +0.064 A 
ATOM     21  C   UNL     1       1.356   5.722   9.554  0.00  0.00    +0.064 A 
ATOM     22  C   UNL     1       1.406   6.739  10.487  0.00  0.00    +0.164 A 
ATOM     23  C   UNL     1       1.456   8.068  10.068  0.00  0.00    +0.180 A 
ATOM     24  C   UNL     1       1.462   8.372   8.712  0.00  0.00    +0.087 A 
ATOM     25  C   UNL     1       1.418   7.361   7.776  0.00  0.00    +0.039 A 
ATOM     26 CL   UNL     1       1.524  10.029   8.196  0.00  0.00    -0.080 Cl
BRANCH  23  27
ATOM     27  O   UNL     1       1.499   9.067  10.986  0.00  0.00    -0.490 OA
ATOM     28  C   UNL     1       0.247   9.594  11.431  0.00  0.00    +0.277 C 
ENDBRANCH  23  27
BRANCH  22  29
ATOM     29  O   UNL     1       1.401   6.445  11.814  0.00  0.00    -0.491 OA
ATOM     30  C   UNL     1       1.349   5.062  12.172  0.00  0.00    +0.277 C 
ENDBRANCH  22  29
ENDBRANCH  18  20
ENDBRANCH  17  18
ENDBRANCH  16  17
ENDBRANCH   2  16
TORSDOF 9
