REMARK  Name = ZINC09224272
REMARK  6 active torsions:
REMARK  status: ('A' for Active; 'I' for Inactive)
REMARK    1  A    between atoms: C_1  and  C_2
REMARK    2  A    between atoms: C_7  and  N_8
REMARK    3  A    between atoms: C_11  and  C_16
REMARK    4  A    between atoms: C_16  and  S_17
REMARK    5  A    between atoms: S_17  and  C_18
REMARK    6  A    between atoms: C_21  and  C_23
REMARK                            x       y       z     vdW  Elec       q    Type
REMARK                         _______ _______ _______ _____ _____    ______ ____
ROOT
ATOM      1  N   UNL     1      -6.269  14.880   2.487  0.00  0.00    -0.283 N 
ATOM      2  C   UNL     1      -5.828  14.368   1.282  0.00  0.00    +0.224 A 
ATOM      3  N   UNL     1      -4.942  13.374   1.264  0.00  0.00    -0.198 NA
ATOM      4  C   UNL     1      -4.520  12.884   0.112  0.00  0.00    +0.146 A 
ATOM      5  N   UNL     1      -4.970  13.382  -1.027  0.00  0.00    -0.199 NA
ATOM      6  C   UNL     1      -5.860  14.372  -1.017  0.00  0.00    +0.217 A 
ATOM      7  N   UNL     1      -6.287  14.867   0.140  0.00  0.00    -0.181 NA
ATOM      8  N   UNL     1      -6.333  14.887  -2.206  0.00  0.00    -0.327 N 
ATOM      9  H   UNL     1      -6.000  14.460   3.319  0.00  0.00    +0.155 HD
ATOM     10  H   UNL     1      -6.979  15.611  -2.198  0.00  0.00    +0.145 HD
ATOM     11  H   UNL     1      -6.021  14.525  -3.050  0.00  0.00    +0.145 HD
ENDROOT
BRANCH   1  18
ATOM     12  C   UNL     1      -7.962  15.255   4.742  0.00  0.00    +0.045 C 
ATOM     13  C   UNL     1      -7.945  16.224   3.588  0.00  0.00    -0.029 A 
ATOM     14  C   UNL     1      -8.768  17.334   3.604  0.00  0.00    +0.005 A 
ATOM     15  C   UNL     1      -8.752  18.223   2.546  0.00  0.00    +0.000 A 
ATOM     16  C   UNL     1      -7.914  18.005   1.468  0.00  0.00    +0.002 A 
ATOM     17  C   UNL     1      -7.085  16.901   1.447  0.00  0.00    +0.023 A 
ATOM     18  C   UNL     1      -7.103  16.002   2.507  0.00  0.00    +0.036 A 
ENDBRANCH   1  18
BRANCH   4  19
ATOM     19  C   UNL     1      -3.518  11.759   0.096  0.00  0.00    +0.155 C 
BRANCH  19  20
ATOM     20  S   UNL     1      -4.391  10.173   0.106  0.00  0.00    -0.058 S 
BRANCH  20  21
ATOM     21  C   UNL     1      -3.018   9.068   0.085  0.00  0.00    +0.278 A 
ATOM     22  N   UNL     1      -1.750   9.406   0.069  0.00  0.00    -0.101 NA
ATOM     23  N   UNL     1      -1.023   8.344   0.063  0.00  0.00    -0.106 NA
ATOM     24  C   UNL     1      -1.800   7.285   0.066  0.00  0.00    +0.257 A 
ATOM     25  O   UNL     1      -3.079   7.723   0.084  0.00  0.00    -0.410 OA
BRANCH  24  26
ATOM     26  C   UNL     1      -1.359   5.882   0.058  0.00  0.00    +0.095 A 
ATOM     27  C   UNL     1      -0.089   5.399   0.040  0.00  0.00    +0.068 A 
ATOM     28  C   UNL     1       0.116   3.961   0.035  0.00  0.00    +0.008 A 
ATOM     29  C   UNL     1       1.337   3.242   0.018  0.00  0.00    +0.010 A 
ATOM     30  C   UNL     1       1.343   1.883   0.017  0.00  0.00    +0.001 A 
ATOM     31  C   UNL     1       0.162   1.152   0.031  0.00  0.00    +0.001 A 
ATOM     32  C   UNL     1      -1.050   1.815   0.042  0.00  0.00    +0.016 A 
ATOM     33  C   UNL     1      -1.071   3.193   0.050  0.00  0.00    +0.021 A 
ATOM     34  S   UNL     1      -2.362   4.409   0.069  0.00  0.00    -0.082 S 
ATOM     35 CL   UNL     1       1.267   6.483   0.024  0.00  0.00    -0.082 Cl
ENDBRANCH  24  26
ENDBRANCH  20  21
ENDBRANCH  19  20
ENDBRANCH   4  19
TORSDOF 5
