REMARK  Name = ZINC09946703
REMARK  10 active torsions:
REMARK  status: ('A' for Active; 'I' for Inactive)
REMARK    1  A    between atoms: C_1  and  C_2
REMARK    2  A    between atoms: C_3  and  C_28
REMARK    3  A    between atoms: C_5  and  S_8
REMARK    4  A    between atoms: S_8  and  C_9
REMARK    5  A    between atoms: C_9  and  C_11
REMARK    6  A    between atoms: C_9  and  C_12
REMARK    7  A    between atoms: N_14  and  C_15
REMARK    8  A    between atoms: C_18  and  N_25
REMARK    9  A    between atoms: C_20  and  C_21
REMARK   10  A    between atoms: C_28  and  C_29
REMARK                            x       y       z     vdW  Elec       q    Type
REMARK                         _______ _______ _______ _____ _____    ______ ____
ROOT
ATOM      1  C   UNL     1      -5.025   2.459  -1.641  0.00  0.00    +0.137 C 
ATOM      2  C   UNL     1      -4.648   3.445  -0.533  0.00  0.00    +0.029 C 
ENDROOT
BRANCH   1   3
ATOM      3  C   UNL     1      -6.459   2.684  -2.046  0.00  0.00    +0.230 C 
ATOM      4  O   UNL     1      -6.714   3.324  -3.045  0.00  0.00    -0.274 OA
ATOM      5  N   UNL     1      -7.459   2.175  -1.299  0.00  0.00    -0.284 N 
ATOM      6  H   UNL     1      -7.256   1.598  -0.547  0.00  0.00    +0.155 HD
BRANCH   5   7
ATOM      7  C   UNL     1      -8.789   2.480  -1.609  0.00  0.00    +0.045 A 
ATOM      8  C   UNL     1      -9.093   3.647  -2.297  0.00  0.00    +0.026 A 
ATOM      9  C   UNL     1     -10.407   3.945  -2.601  0.00  0.00    +0.034 A 
ATOM     10  C   UNL     1     -11.419   3.082  -2.221  0.00  0.00    +0.127 A 
ATOM     11  C   UNL     1     -11.119   1.920  -1.536  0.00  0.00    +0.047 A 
ATOM     12  C   UNL     1      -9.807   1.613  -1.234  0.00  0.00    +0.078 A 
BRANCH  12  13
ATOM     13  C   UNL     1      -9.480   0.342  -0.493  0.00  0.00    +0.419 C 
ATOM     14  F   UNL     1     -10.661  -0.359  -0.227  0.00  0.00    -0.166 F 
ATOM     15  F   UNL     1      -8.634  -0.450  -1.276  0.00  0.00    -0.166 F 
ATOM     16  F   UNL     1      -8.842   0.656   0.712  0.00  0.00    -0.166 F 
ENDBRANCH  12  13
BRANCH  10  17
ATOM     17  N   UNL     1     -12.826   3.405  -2.549  0.00  0.00    +0.056 N 
ATOM     18  O   UNL     1     -13.090   4.421  -3.148  0.00  0.00    -0.126 OA
ATOM     19  O   UNL     1     -13.712   2.651  -2.217  0.00  0.00    -0.126 OA
ENDBRANCH  10  17
ENDBRANCH   5   7
ENDBRANCH   1   3
BRANCH   1  20
ATOM     20  S   UNL     1      -3.944   2.718  -3.074  0.00  0.00    -0.075 S 
BRANCH  20  25
ATOM     21  C   UNL     1      -0.012   1.134   0.043  0.00  0.00    +0.067 C 
ATOM     22  C   UNL     1      -0.739   1.624  -1.183  0.00  0.00    +0.060 A 
ATOM     23  C   UNL     1      -0.178   1.894  -2.374  0.00  0.00    +0.043 A 
ATOM     24  N   UNL     1      -1.191   2.311  -3.209  0.00  0.00    -0.336 N 
ATOM     25  C   UNL     1      -2.343   2.279  -2.485  0.00  0.00    +0.167 A 
ATOM     26  N   UNL     1      -2.058   1.860  -1.273  0.00  0.00    -0.227 NA
ATOM     27  H   UNL     1      -1.100   2.578  -4.137  0.00  0.00    +0.168 HD
BRANCH  23  28
ATOM     28  C   UNL     1       1.280   1.764  -2.729  0.00  0.00    +0.090 C 
BRANCH  28  29
ATOM     29  C   UNL     1       1.574   0.344  -3.138  0.00  0.00    -0.042 A 
ATOM     30  C   UNL     1       1.956  -0.584  -2.187  0.00  0.00    +0.004 A 
ATOM     31  C   UNL     1       2.225  -1.887  -2.561  0.00  0.00    +0.000 A 
ATOM     32  C   UNL     1       2.113  -2.263  -3.887  0.00  0.00    +0.000 A 
ATOM     33  C   UNL     1       1.730  -1.335  -4.838  0.00  0.00    +0.000 A 
ATOM     34  C   UNL     1       1.457  -0.033  -4.463  0.00  0.00    +0.004 A 
ENDBRANCH  28  29
ENDBRANCH  23  28
ENDBRANCH  20  25
ENDBRANCH   1  20
TORSDOF 8
