REMARK  Name = ZINC36621362
REMARK  3 active torsions:
REMARK  status: ('A' for Active; 'I' for Inactive)
REMARK    1  A    between atoms: C_4  and  C_7
REMARK    2  A    between atoms: C_8  and  C_13
REMARK    3  A    between atoms: C_16  and  C_25
REMARK                            x       y       z     vdW  Elec       q    Type
REMARK                         _______ _______ _______ _____ _____    ______ ____
ROOT
ATOM      1  C   UNL     1       3.242  -2.837   1.350  0.00  0.00    +0.110 C 
ATOM      2  C   UNL     1       2.517  -3.803   0.431  0.00  0.00    +0.083 C 
ATOM      3  C   UNL     1       3.469  -4.607  -0.382  0.00  0.00    +0.061 C 
ATOM      4  N   UNL     1       4.596  -5.061  -0.045  0.00  0.00    -0.249 NA
ATOM      5  C   UNL     1       5.404  -4.986   1.027  0.00  0.00    +0.085 A 
ATOM      6  C   UNL     1       6.618  -5.697   0.946  0.00  0.00    +0.029 A 
ATOM      7  C   UNL     1       7.518  -5.681   1.984  0.00  0.00    +0.002 A 
ATOM      8  C   UNL     1       7.241  -4.961   3.133  0.00  0.00    +0.002 A 
ATOM      9  C   UNL     1       6.058  -4.259   3.233  0.00  0.00    +0.025 A 
ATOM     10  C   UNL     1       5.132  -4.265   2.191  0.00  0.00    +0.053 A 
ATOM     11  N   UNL     1       3.965  -3.542   2.383  0.00  0.00    -0.335 N 
ATOM     12  H   UNL     1       3.606  -3.506   3.284  0.00  0.00    +0.147 HD
ENDROOT
BRANCH   3  13
ATOM     13  C   UNL     1       3.042  -4.912  -1.748  0.00  0.00    +0.114 A 
ATOM     14  C   UNL     1       3.853  -4.584  -2.822  0.00  0.00    +0.265 A 
ATOM     15  N   UNL     1       3.585  -4.833  -4.119  0.00  0.00    -0.283 N 
ATOM     16  H   UNL     1       4.327  -4.784  -4.741  0.00  0.00    +0.172 HD
ATOM     17  C   UNL     1       2.381  -5.144  -4.626  0.00  0.00    +0.294 A 
ATOM     18  O   UNL     1       2.257  -5.377  -5.813  0.00  0.00    -0.259 OA
ATOM     19  S   UNL     1       0.978  -5.214  -3.551  0.00  0.00    +0.014 S 
ATOM     20  C   UNL     1       1.748  -5.574  -1.992  0.00  0.00    +0.235 A 
ATOM     21  O   UNL     1       1.240  -6.319  -1.173  0.00  0.00    -0.279 OA
ATOM     22  O   UNL     1       5.014  -3.960  -2.546  0.00  0.00    -0.267 OA
ENDBRANCH   3  13
BRANCH   1  24
ATOM     23  C   UNL     1       5.263  -1.231   1.050  0.00  0.00    +0.097 A 
ATOM     24  C   UNL     1       4.213  -2.018   0.539  0.00  0.00    +0.018 A 
ATOM     25  C   UNL     1       4.231  -1.909  -0.807  0.00  0.00    +0.111 A 
ATOM     26  N   UNL     1       5.248  -1.088  -1.145  0.00  0.00    -0.284 N 
ATOM     27  H   UNL     1       5.496  -0.830  -2.046  0.00  0.00    +0.188 HD
ATOM     28  N   UNL     1       5.880  -0.668   0.033  0.00  0.00    -0.174 NA
BRANCH  23  32
ATOM     29  C   UNL     1       6.255  -0.742   5.157  0.00  0.00    +0.000 A 
ATOM     30  C   UNL     1       7.259  -0.910   4.221  0.00  0.00    +0.001 A 
ATOM     31  C   UNL     1       6.943  -1.070   2.887  0.00  0.00    +0.010 A 
ATOM     32  C   UNL     1       5.609  -1.060   2.484  0.00  0.00    +0.002 A 
ATOM     33  C   UNL     1       4.602  -0.890   3.431  0.00  0.00    +0.010 A 
ATOM     34  C   UNL     1       4.929  -0.732   4.762  0.00  0.00    +0.001 A 
ENDBRANCH  23  32
ENDBRANCH   1  24
TORSDOF 3
