REMARK  Name = ZINC34829079
REMARK  11 active torsions:
REMARK  status: ('A' for Active; 'I' for Inactive)
REMARK    1  A    between atoms: C_1  and  C_2
REMARK    2  A    between atoms: C_5  and  N_8
REMARK    3  A    between atoms: C_9  and  C_22
REMARK    4  A    between atoms: C_12  and  S_13
REMARK    5  A    between atoms: S_13  and  C_14
REMARK    6  A    between atoms: C_14  and  C_15
REMARK    7  A    between atoms: C_20  and  C_21
REMARK    8  A    between atoms: C_22  and  C_24
REMARK    9  A    between atoms: C_22  and  N_25
REMARK   10  A    between atoms: N_28  and  C_29
REMARK   11  A    between atoms: C_34  and  C_35
REMARK                            x       y       z     vdW  Elec       q    Type
REMARK                         _______ _______ _______ _____ _____    ______ ____
ROOT
ATOM      1  N   UNL     1       0.080  -4.151   0.005  0.00  0.00    -0.273 N 
ATOM      2  C   UNL     1      -0.896  -5.000   0.454  0.00  0.00    +0.159 A 
ATOM      3  N   UNL     1      -0.469  -6.216   0.264  0.00  0.00    -0.131 NA
ATOM      4  N   UNL     1       0.699  -6.196  -0.271  0.00  0.00    -0.122 NA
ATOM      5  C   UNL     1       1.084  -4.955  -0.458  0.00  0.00    +0.196 A 
ENDROOT
BRANCH   1  10
ATOM      6  C   UNL     1      -0.033   1.524   0.035  0.00  0.00    +0.044 C 
ATOM      7  C   UNL     1      -0.003   0.018   0.027  0.00  0.00    -0.050 A 
ATOM      8  C   UNL     1       0.014  -0.666  -1.175  0.00  0.00    +0.005 A 
ATOM      9  C   UNL     1       0.041  -2.047  -1.186  0.00  0.00    +0.026 A 
ATOM     10  C   UNL     1       0.052  -2.748   0.012  0.00  0.00    +0.050 A 
ATOM     11  C   UNL     1       0.035  -2.059   1.217  0.00  0.00    +0.026 A 
ATOM     12  C   UNL     1       0.013  -0.678   1.221  0.00  0.00    +0.005 A 
ENDBRANCH   1  10
BRANCH   2  13
ATOM     13  C   UNL     1      -2.218  -4.602   1.058  0.00  0.00    +0.140 C 
ATOM     14  C   UNL     1      -3.335  -4.831   0.038  0.00  0.00    +0.036 C 
BRANCH  13  15
ATOM     15  N   UNL     1      -2.474  -5.412   2.252  0.00  0.00    -0.290 N 
ATOM     16  C   UNL     1      -3.282  -4.944   3.224  0.00  0.00    +0.304 C 
ATOM     17  O   UNL     1      -3.799  -3.849   3.110  0.00  0.00    -0.252 OA
ATOM     18  N   UNL     1      -3.516  -5.689   4.322  0.00  0.00    -0.269 N 
ATOM     19  H   UNL     1      -2.061  -6.285   2.343  0.00  0.00    +0.151 HD
ATOM     20  H   UNL     1      -3.171  -6.594   4.377  0.00  0.00    +0.156 HD
BRANCH  18  21
ATOM     21  C   UNL     1      -4.258  -5.158   5.383  0.00  0.00    +0.038 A 
ATOM     22  C   UNL     1      -4.318  -3.783   5.571  0.00  0.00    +0.023 A 
ATOM     23  C   UNL     1      -5.051  -3.261   6.618  0.00  0.00    +0.002 A 
ATOM     24  C   UNL     1      -5.726  -4.107   7.480  0.00  0.00    +0.000 A 
ATOM     25  C   UNL     1      -5.669  -5.476   7.296  0.00  0.00    +0.005 A 
ATOM     26  C   UNL     1      -4.942  -6.003   6.246  0.00  0.00    -0.029 A 
ATOM     27  C   UNL     1      -4.885  -7.495   6.043  0.00  0.00    +0.045 C 
ENDBRANCH  18  21
ENDBRANCH  13  15
ENDBRANCH   2  13
BRANCH   5  28
ATOM     28  S   UNL     1       2.608  -4.426  -1.168  0.00  0.00    -0.081 S 
BRANCH  28  29
ATOM     29  C   UNL     1       3.469  -5.974  -1.561  0.00  0.00    +0.112 C 
BRANCH  29  30
ATOM     30  C   UNL     1       4.806  -5.660  -2.183  0.00  0.00    -0.034 A 
ATOM     31  C   UNL     1       4.914  -5.516  -3.554  0.00  0.00    +0.005 A 
ATOM     32  C   UNL     1       6.140  -5.228  -4.124  0.00  0.00    +0.000 A 
ATOM     33  C   UNL     1       7.258  -5.085  -3.324  0.00  0.00    +0.000 A 
ATOM     34  C   UNL     1       7.150  -5.229  -1.953  0.00  0.00    +0.003 A 
ATOM     35  C   UNL     1       5.923  -5.512  -1.383  0.00  0.00    -0.046 A 
ATOM     36  C   UNL     1       5.804  -5.664   0.112  0.00  0.00    +0.044 C 
ENDBRANCH  29  30
ENDBRANCH  28  29
ENDBRANCH   5  28
TORSDOF 7
