REMARK  Name = ZINC39882103
REMARK  9 active torsions:
REMARK  status: ('A' for Active; 'I' for Inactive)
REMARK    1  A    between atoms: C_1  and  C_2
REMARK    2  A    between atoms: C_7  and  N_8
REMARK    3  A    between atoms: C_9  and  C_11
REMARK    4  A    between atoms: C_11  and  N_20
REMARK    5  A    between atoms: C_12  and  C_13
REMARK    6  A    between atoms: C_21  and  C_23
REMARK    7  A    between atoms: C_23  and  C_24
REMARK    8  A    between atoms: C_23  and  C_25
REMARK    9  A    between atoms: C_23  and  C_26
REMARK                            x       y       z     vdW  Elec       q    Type
REMARK                         _______ _______ _______ _____ _____    ______ ____
ROOT
ATOM      1  C   UNL     1      -0.322   0.079   4.954  0.00  0.00    +0.097 C 
ATOM      2  C   UNL     1       0.227  -0.572   6.006  0.00  0.00    +0.036 C 
ENDROOT
BRANCH   2   3
ATOM      3  C   UNL     1       0.287  -2.042   6.011  0.00  0.00    -0.023 A 
ATOM      4  C   UNL     1       0.690  -2.733   4.863  0.00  0.00    +0.009 A 
ATOM      5  C   UNL     1       0.744  -4.110   4.876  0.00  0.00    +0.020 A 
ATOM      6  C   UNL     1       0.400  -4.810   6.021  0.00  0.00    +0.041 A 
ATOM      7  C   UNL     1      -0.000  -4.133   7.161  0.00  0.00    +0.020 A 
ATOM      8  C   UNL     1      -0.053  -2.755   7.165  0.00  0.00    +0.009 A 
ATOM      9 CL   UNL     1       0.470  -6.545   6.026  0.00  0.00    -0.084 Cl
ENDBRANCH   2   3
BRANCH   1  11
ATOM     10  N   UNL     1      -1.504  -0.046   2.823  0.00  0.00    -0.265 N 
ATOM     11  C   UNL     1      -1.069  -0.671   3.935  0.00  0.00    +0.264 C 
ATOM     12  O   UNL     1      -1.294  -1.856   4.094  0.00  0.00    -0.268 OA
ATOM     13  H   UNL     1      -1.324   0.899   2.695  0.00  0.00    +0.157 HD
BRANCH  10  20
ATOM     14  C   UNL     1      -2.380   1.362   0.510  0.00  0.00    +0.047 C 
ATOM     15  C   UNL     1      -2.658  -0.105   0.712  0.00  0.00    -0.010 A 
ATOM     16  C   UNL     1      -3.355  -0.825  -0.243  0.00  0.00    +0.008 A 
ATOM     17  C   UNL     1      -3.588  -2.174  -0.017  0.00  0.00    +0.020 A 
ATOM     18  C   UNL     1      -3.120  -2.755   1.146  0.00  0.00    +0.113 A 
ATOM     19  N   UNL     1      -2.459  -2.044   2.039  0.00  0.00    -0.240 NA
ATOM     20  C   UNL     1      -2.212  -0.756   1.856  0.00  0.00    +0.128 A 
ENDBRANCH  10  20
ENDBRANCH   1  11
BRANCH   1  21
ATOM     21  N   UNL     1      -0.178   1.465   4.838  0.00  0.00    -0.281 N 
ATOM     22  C   UNL     1       0.475   1.989   3.781  0.00  0.00    +0.223 C 
ATOM     23  O   UNL     1       0.864   1.265   2.889  0.00  0.00    -0.275 OA
ATOM     24  H   UNL     1      -0.549   2.050   5.517  0.00  0.00    +0.155 HD
BRANCH  22  25
ATOM     25  C   UNL     1       0.722   3.474   3.709  0.00  0.00    +0.039 C 
ATOM     26  C   UNL     1       1.477   3.802   2.419  0.00  0.00    +0.020 C 
ATOM     27  C   UNL     1      -0.616   4.215   3.720  0.00  0.00    +0.020 C 
ATOM     28  C   UNL     1       1.558   3.911   4.914  0.00  0.00    +0.020 C 
ENDBRANCH  22  25
ENDBRANCH   1  21
TORSDOF 5
