REMARK  Name = ZINC13986217
REMARK  12 active torsions:
REMARK  status: ('A' for Active; 'I' for Inactive)
REMARK    1  A    between atoms: C_1  and  C_2
REMARK    2  A    between atoms: C_2  and  C_3
REMARK    3  A    between atoms: C_2  and  C_4
REMARK    4  A    between atoms: C_4  and  C_6
REMARK    5  A    between atoms: C_4  and  N_26
REMARK    6  A    between atoms: C_6  and  O_8
REMARK    7  A    between atoms: O_8  and  C_9
REMARK    8  A    between atoms: C_9  and  C_10
REMARK    9  A    between atoms: C_10  and  C_12
REMARK   10  A    between atoms: N_21  and  S_22
REMARK   11  A    between atoms: S_22  and  C_25
REMARK   12  A    between atoms: C_27  and  C_29
REMARK                            x       y       z     vdW  Elec       q    Type
REMARK                         _______ _______ _______ _____ _____    ______ ____
ROOT
ATOM      1  C   UNL     1      -0.864  -5.165   0.372  0.00  0.00    +0.328 C 
ATOM      2  O   UNL     1      -1.985  -4.714   0.393  0.00  0.00    -0.249 OA
ENDROOT
BRANCH   1   3
ATOM      3  C   UNL     1      -0.651  -6.656   0.416  0.00  0.00    +0.184 C 
BRANCH   3   4
ATOM      4  N   UNL     1      -1.948  -7.333   0.481  0.00  0.00    -0.302 N 
ATOM      5  C   UNL     1      -2.039  -8.565   1.020  0.00  0.00    +0.220 C 
ATOM      6  O   UNL     1      -1.046  -9.113   1.451  0.00  0.00    -0.275 OA
ATOM      7  H   UNL     1      -2.742  -6.895   0.136  0.00  0.00    +0.150 HD
BRANCH   5   8
ATOM      8  C   UNL     1      -3.373  -9.262   1.086  0.00  0.00    +0.048 C 
ATOM      9  C   UNL     1      -3.929  -9.435  -0.328  0.00  0.00    +0.019 C 
ATOM     10  C   UNL     1      -5.284 -10.143  -0.261  0.00  0.00    -0.009 C 
ATOM     11  C   UNL     1      -5.111 -11.516   0.391  0.00  0.00    +0.007 C 
ATOM     12  C   UNL     1      -4.554 -11.343   1.806  0.00  0.00    -0.009 C 
ATOM     13  C   UNL     1      -3.200 -10.635   1.738  0.00  0.00    +0.019 C 
ATOM     14  C   UNL     1      -5.527 -10.503   2.637  0.00  0.00    +0.007 C 
ATOM     15  C   UNL     1      -5.701  -9.130   1.985  0.00  0.00    -0.009 C 
ATOM     16  C   UNL     1      -6.257  -9.303   0.570  0.00  0.00    +0.007 C 
ATOM     17  C   UNL     1      -4.346  -8.423   1.917  0.00  0.00    +0.019 C 
ENDBRANCH   5   8
ENDBRANCH   3   4
BRANCH   3  19
ATOM     18  C   UNL     1       1.450  -6.394  -0.911  0.00  0.00    +0.009 C 
ATOM     19  C   UNL     1       0.095  -7.101  -0.843  0.00  0.00    +0.014 C 
ATOM     20  C   UNL     1       0.312  -8.615  -0.798  0.00  0.00    +0.009 C 
ENDBRANCH   3  19
ENDBRANCH   1   3
BRANCH   1  21
ATOM     21  O   UNL     1       0.191  -4.337   0.310  0.00  0.00    -0.455 OA
BRANCH  21  22
ATOM     22  C   UNL     1      -0.090  -2.913   0.271  0.00  0.00    +0.311 C 
BRANCH  22  23
ATOM     23  C   UNL     1       1.206  -2.147   0.203  0.00  0.00    +0.200 C 
ATOM     24  O   UNL     1       2.263  -2.743   0.189  0.00  0.00    -0.288 OA
BRANCH  23  25
ATOM     25  C   UNL     1       1.190  -0.680   0.153  0.00  0.00    +0.021 A 
ATOM     26  C   UNL     1      -0.029   0.010   0.169  0.00  0.00    +0.013 A 
ATOM     27  C   UNL     1      -0.035   1.374   0.121  0.00  0.00    +0.026 A 
ATOM     28  C   UNL     1       1.166   2.081   0.058  0.00  0.00    +0.054 A 
ATOM     29  C   UNL     1       2.380   1.401   0.045  0.00  0.00    -0.024 A 
ATOM     30  C   UNL     1       2.393   0.033   0.091  0.00  0.00    +0.017 A 
ATOM     31  C   UNL     1       3.693   2.138  -0.012  0.00  0.00    +0.038 C 
ATOM     32  C   UNL     1       3.489   3.553  -0.553  0.00  0.00    +0.025 C 
ATOM     33  C   UNL     1       2.363   4.229   0.240  0.00  0.00    +0.131 C 
ATOM     34  N   UNL     1       1.127   3.471   0.002  0.00  0.00    -0.207 N 
BRANCH  34  35
ATOM     35  S   UNL     1      -0.291   4.259  -0.328  0.00  0.00    +0.043 S 
ATOM     36  O   UNL     1       0.103   5.564  -0.729  0.00  0.00    -0.155 OA
ATOM     37  O   UNL     1      -0.982   3.402  -1.227  0.00  0.00    -0.155 OA
ATOM     38  C   UNL     1      -1.165   4.331   1.261  0.00  0.00    +0.218 C 
ENDBRANCH  34  35
ENDBRANCH  23  25
ENDBRANCH  22  23
ENDBRANCH  21  22
ENDBRANCH   1  21
TORSDOF 9
