REMARK  Name = ZINC42957916
REMARK  2 active torsions:
REMARK  status: ('A' for Active; 'I' for Inactive)
REMARK    1  A    between atoms: C_10  and  N_12
REMARK    2  A    between atoms: N_18  and  C_21
REMARK                            x       y       z     vdW  Elec       q    Type
REMARK                         _______ _______ _______ _____ _____    ______ ____
ROOT
ATOM      1  N   UNL     1       4.634   0.026  -0.945  0.00  0.00    -0.292 N 
ATOM      2  C   UNL     1       5.321   1.107  -0.525  0.00  0.00    +0.303 C 
ATOM      3  O   UNL     1       5.131   1.553   0.590  0.00  0.00    -0.253 OA
ATOM      4  N   UNL     1       6.219   1.693  -1.342  0.00  0.00    -0.283 N 
ATOM      5  C   UNL     1       6.373   1.241  -2.732  0.00  0.00    +0.128 C 
ATOM      6  C   UNL     1       6.184   2.446  -3.662  0.00  0.00    +0.124 C 
ATOM      7  N   UNL     1       7.026   3.549  -3.179  0.00  0.00    -0.325 N 
ATOM      8  C   UNL     1       6.872   4.001  -1.789  0.00  0.00    +0.124 C 
ATOM      9  C   UNL     1       7.056   2.801  -0.860  0.00  0.00    +0.128 C 
ATOM     10  H   UNL     1       4.741  -0.294  -1.854  0.00  0.00    +0.151 HD
ENDROOT
BRANCH   1  20
ATOM     11  C   UNL     1      -0.023   1.391  -0.063  0.00  0.00    +0.000 A 
ATOM     12  C   UNL     1       1.169   2.091  -0.062  0.00  0.00    +0.000 A 
ATOM     13  C   UNL     1       2.366   1.406  -0.052  0.00  0.00    +0.006 A 
ATOM     14  C   UNL     1       2.385   0.017  -0.045  0.00  0.00    -0.024 A 
ATOM     15  C   UNL     1       1.198  -0.681  -0.051  0.00  0.00    -0.042 A 
ATOM     16  C   UNL     1      -0.007   0.011  -0.057  0.00  0.00    +0.004 A 
ATOM     17  C   UNL     1       1.142  -2.186  -0.060  0.00  0.00    +0.035 C 
ATOM     18  C   UNL     1       2.481  -2.776   0.377  0.00  0.00    +0.007 C 
ATOM     19  C   UNL     1       3.592  -2.126  -0.457  0.00  0.00    +0.027 C 
ATOM     20  C   UNL     1       3.727  -0.667  -0.027  0.00  0.00    +0.105 C 
ENDBRANCH   1  20
BRANCH   7  21
ATOM     21  C   UNL     1       7.957   4.158  -4.026  0.00  0.00    +0.065 A 
ATOM     22  C   UNL     1       7.588   5.254  -4.793  0.00  0.00    +0.026 A 
ATOM     23  C   UNL     1       8.510   5.854  -5.629  0.00  0.00    +0.002 A 
ATOM     24  C   UNL     1       9.801   5.363  -5.703  0.00  0.00    +0.003 A 
ATOM     25  C   UNL     1      10.174   4.271  -4.941  0.00  0.00    +0.040 A 
ATOM     26  C   UNL     1       9.258   3.670  -4.098  0.00  0.00    +0.144 A 
ATOM     27  F   UNL     1       9.624   2.607  -3.349  0.00  0.00    -0.204 F 
ENDBRANCH   7  21
TORSDOF 2
