REMARK  Name = ZINC36506479
REMARK  9 active torsions:
REMARK  status: ('A' for Active; 'I' for Inactive)
REMARK    1  A    between atoms: C_4  and  O_36
REMARK    2  A    between atoms: C_5  and  C_7
REMARK    3  A    between atoms: C_7  and  C_9
REMARK    4  A    between atoms: C_7  and  N_18
REMARK    5  A    between atoms: N_11  and  C_12
REMARK    6  A    between atoms: N_18  and  C_19
REMARK    7  A    between atoms: C_19  and  C_20
REMARK    8  A    between atoms: C_25  and  C_27
REMARK    9  A    between atoms: C_30  and  N_33
REMARK                            x       y       z     vdW  Elec       q    Type
REMARK                         _______ _______ _______ _____ _____    ______ ____
ROOT
ATOM      1  C   UNL     1       4.423  -6.752   1.708  0.00  0.00    +0.196 C 
ENDROOT
BRANCH   1   6
ATOM      2  C   UNL     1       3.204  -8.202  -1.558  0.00  0.00    +0.001 A 
ATOM      3  C   UNL     1       3.207  -9.557  -1.281  0.00  0.00    +0.004 A 
ATOM      4  C   UNL     1       3.604 -10.007  -0.037  0.00  0.00    +0.046 A 
ATOM      5  C   UNL     1       3.999  -9.100   0.935  0.00  0.00    +0.122 A 
ATOM      6  C   UNL     1       3.995  -7.741   0.655  0.00  0.00    +0.023 A 
ATOM      7  C   UNL     1       3.597  -7.295  -0.591  0.00  0.00    +0.009 A 
BRANCH   5   8
ATOM      8  O   UNL     1       4.389  -9.540   2.160  0.00  0.00    -0.506 OA
ATOM      9  H   UNL     1       5.320  -9.798   2.208  0.00  0.00    +0.292 HD
ENDBRANCH   5   8
ENDBRANCH   1   6
BRANCH   1  10
ATOM     10  C   UNL     1       4.905  -5.488   1.044  0.00  0.00    +0.238 C 
ATOM     11  O   UNL     1       4.349  -4.434   1.272  0.00  0.00    -0.273 OA
ATOM     12  N   UNL     1       5.953  -5.528   0.198  0.00  0.00    -0.311 N 
ATOM     13  H   UNL     1       6.351  -6.380  -0.040  0.00  0.00    +0.149 HD
BRANCH  12  14
ATOM     14  C   UNL     1       6.490  -4.286  -0.362  0.00  0.00    +0.073 C 
ATOM     15  C   UNL     1       5.689  -3.898  -1.606  0.00  0.00    +0.022 C 
ATOM     16  C   UNL     1       6.250  -2.601  -2.191  0.00  0.00    +0.002 C 
ATOM     17  C   UNL     1       7.717  -2.807  -2.573  0.00  0.00    +0.000 C 
ATOM     18  C   UNL     1       8.519  -3.194  -1.329  0.00  0.00    +0.002 C 
ATOM     19  C   UNL     1       7.958  -4.492  -0.744  0.00  0.00    +0.022 C 
ENDBRANCH  12  14
ENDBRANCH   1  10
BRANCH   1  20
ATOM     20  N   UNL     1       3.286  -6.444   2.579  0.00  0.00    -0.274 N 
ATOM     21  C   UNL     1       3.403  -6.583   3.915  0.00  0.00    +0.248 C 
ATOM     22  O   UNL     1       2.430  -6.440   4.629  0.00  0.00    -0.270 OA
BRANCH  21  23
ATOM     23  C   UNL     1       4.716  -6.910   4.512  0.00  0.00    +0.037 A 
ATOM     24  C   UNL     1       5.887  -6.396   3.953  0.00  0.00    +0.015 A 
ATOM     25  C   UNL     1       7.109  -6.704   4.515  0.00  0.00    +0.033 A 
ATOM     26  C   UNL     1       7.175  -7.521   5.630  0.00  0.00    +0.126 A 
ATOM     27  C   UNL     1       6.017  -8.034   6.188  0.00  0.00    +0.033 A 
ATOM     28  C   UNL     1       4.789  -7.728   5.640  0.00  0.00    +0.015 A 
BRANCH  26  29
ATOM     29  N   UNL     1       8.489  -7.848   6.228  0.00  0.00    +0.056 N 
ATOM     30  O   UNL     1       9.502  -7.401   5.742  0.00  0.00    -0.126 OA
ATOM     31  O   UNL     1       8.549  -8.561   7.202  0.00  0.00    -0.126 OA
ENDBRANCH  26  29
ENDBRANCH  21  23
BRANCH  20  32
ATOM     32  C   UNL     1       2.022  -5.984   1.999  0.00  0.00    +0.183 C 
BRANCH  32  33
ATOM     33  C   UNL     1       1.946  -4.482   2.085  0.00  0.00    +0.122 A 
ATOM     34  C   UNL     1       2.181  -3.623   1.076  0.00  0.00    +0.046 A 
ATOM     35  C   UNL     1       1.998  -2.321   1.596  0.00  0.00    +0.041 A 
ATOM     36  C   UNL     1       1.664  -2.462   2.891  0.00  0.00    +0.195 A 
ATOM     37  O   UNL     1       1.628  -3.773   3.180  0.00  0.00    -0.466 OA
ENDBRANCH  32  33
ENDBRANCH  20  32
ENDBRANCH   1  20
TORSDOF 9
