REMARK  Name = ZINC13468086
REMARK  7 active torsions:
REMARK  status: ('A' for Active; 'I' for Inactive)
REMARK    1  A    between atoms: C_1  and  C_2
REMARK    2  A    between atoms: C_4  and  S_25
REMARK    3  A    between atoms: C_6  and  N_9
REMARK    4  A    between atoms: C_7  and  C_8
REMARK    5  A    between atoms: C_10  and  C_12
REMARK    6  A    between atoms: C_19  and  C_21
REMARK    7  A    between atoms: S_25  and  N_28
REMARK                            x       y       z     vdW  Elec       q    Type
REMARK                         _______ _______ _______ _____ _____    ______ ____
ROOT
ATOM      1  C   UNL     1       2.675  -4.057   0.778  0.00  0.00    +0.044 C 
ATOM      2  C   UNL     1       2.541  -2.652   0.248  0.00  0.00    -0.044 A 
ATOM      3  C   UNL     1       3.621  -2.036  -0.358  0.00  0.00    +0.032 A 
ATOM      4  C   UNL     1       3.502  -0.748  -0.845  0.00  0.00    +0.107 A 
ATOM      5  C   UNL     1       2.302  -0.073  -0.732  0.00  0.00    +0.052 A 
ATOM      6  C   UNL     1       1.218  -0.687  -0.119  0.00  0.00    +0.038 A 
ATOM      7  C   UNL     1       1.340  -1.981   0.369  0.00  0.00    -0.026 A 
ATOM      8  C   UNL     1       0.164  -2.653   1.030  0.00  0.00    +0.046 C 
ENDROOT
BRANCH   6   9
ATOM      9  N   UNL     1       0.002  -0.004   0.002  0.00  0.00    -0.285 N 
ATOM     10  C   UNL     1      -0.017   1.344   0.006  0.00  0.00    +0.222 C 
ATOM     11  O   UNL     1       1.025   1.964   0.006  0.00  0.00    -0.275 OA
ATOM     12  H   UNL     1      -0.827  -0.501   0.083  0.00  0.00    +0.155 HD
BRANCH  10  13
ATOM     13  C   UNL     1      -1.332   2.079   0.005  0.00  0.00    +0.096 C 
ATOM     14  C   UNL     1      -1.098   3.623  -0.043  0.00  0.00    +0.025 C 
ATOM     15  C   UNL     1      -2.450   4.093  -0.697  0.00  0.00    +0.016 C 
ATOM     16  C   UNL     1      -2.260   3.187  -1.968  0.00  0.00    +0.027 C 
ATOM     17  C   UNL     1      -2.119   1.784  -1.296  0.00  0.00    +0.121 C 
ATOM     18  C   UNL     1      -0.826   3.556  -2.367  0.00  0.00    -0.027 C 
ATOM     19  C   UNL     1      -0.140   3.804  -1.270  0.00  0.00    -0.027 C 
BRANCH  17  20
ATOM     20  C   UNL     1      -3.475   1.210  -0.976  0.00  0.00    +0.360 C 
ATOM     21  O   UNL     1      -3.804   1.044   0.175  0.00  0.00    -0.246 OA
ATOM     22  O   UNL     1      -4.317   0.885  -1.969  0.00  0.00    -0.246 OA
ENDBRANCH  17  20
ENDBRANCH  10  13
ENDBRANCH   6   9
BRANCH   4  23
ATOM     23  S   UNL     1       4.881   0.032  -1.616  0.00  0.00    +0.056 S 
ATOM     24  O   UNL     1       4.674   1.433  -1.498  0.00  0.00    -0.153 OA
ATOM     25  O   UNL     1       6.045  -0.611  -1.115  0.00  0.00    -0.153 OA
BRANCH  23  26
ATOM     26  N   UNL     1       4.803  -0.323  -3.232  0.00  0.00    -0.204 NA
ATOM     27  H   UNL     1       4.080  -0.872  -3.574  0.00  0.00    +0.144 HD
ATOM     28  H   UNL     1       5.481   0.018  -3.837  0.00  0.00    +0.144 HD
ENDBRANCH  23  26
ENDBRANCH   4  23
TORSDOF 5
