REMARK  Name = ZINC13523686
REMARK  7 active torsions:
REMARK  status: ('A' for Active; 'I' for Inactive)
REMARK    1  A    between atoms: C_1  and  O_2
REMARK    2  A    between atoms: O_2  and  C_3
REMARK    3  A    between atoms: C_6  and  C_9
REMARK    4  A    between atoms: C_9  and  C_24
REMARK    5  A    between atoms: C_11  and  C_17
REMARK    6  A    between atoms: C_27  and  O_31
REMARK    7  A    between atoms: C_29  and  O_30
REMARK                            x       y       z     vdW  Elec       q    Type
REMARK                         _______ _______ _______ _____ _____    ______ ____
ROOT
ATOM      1  C   UNL     1       2.505  -2.503  -4.381  0.00  0.00    +0.089 C 
ATOM      2  C   UNL     1       1.789  -3.856  -4.470  0.00  0.00    +0.062 C 
ATOM      3  C   UNL     1       0.338  -3.613  -4.899  0.00  0.00    +0.106 C 
ATOM      4  N   UNL     1       0.328  -2.857  -6.152  0.00  0.00    -0.320 N 
ATOM      5  C   UNL     1       1.319  -2.008  -6.463  0.00  0.00    +0.132 C 
ATOM      6  S   UNL     1       1.230  -1.147  -7.940  0.00  0.00    -0.019 S 
ATOM      7  N   UNL     1       2.377  -1.808  -5.663  0.00  0.00    -0.313 N 
ATOM      8  H   UNL     1      -0.411  -2.972  -6.770  0.00  0.00    +0.148 HD
ATOM      9  H   UNL     1       3.071  -1.189  -5.939  0.00  0.00    +0.149 HD
ENDROOT
BRANCH   3  10
ATOM     10  C   UNL     1      -0.355  -4.935  -5.101  0.00  0.00    -0.009 A 
ATOM     11  C   UNL     1      -0.419  -5.497  -6.362  0.00  0.00    +0.007 A 
ATOM     12  C   UNL     1      -1.055  -6.710  -6.548  0.00  0.00    +0.000 A 
ATOM     13  C   UNL     1      -1.628  -7.362  -5.472  0.00  0.00    +0.001 A 
ATOM     14  C   UNL     1      -1.565  -6.802  -4.210  0.00  0.00    +0.020 A 
ATOM     15  C   UNL     1      -0.924  -5.590  -4.023  0.00  0.00    +0.046 A 
ATOM     16 CL   UNL     1      -0.839  -4.889  -2.437  0.00  0.00    -0.083 Cl
ENDBRANCH   3  10
BRANCH   1  20
ATOM     17  C   UNL     1       0.726  -0.146  -1.293  0.00  0.00    +0.120 A 
ATOM     18  C   UNL     1       1.291   0.471  -2.399  0.00  0.00    +0.046 A 
ATOM     19  C   UNL     1       1.866  -0.293  -3.396  0.00  0.00    +0.009 A 
ATOM     20  C   UNL     1       1.877  -1.672  -3.292  0.00  0.00    -0.019 A 
ATOM     21  C   UNL     1       1.314  -2.289  -2.191  0.00  0.00    +0.009 A 
ATOM     22  C   UNL     1       0.743  -1.529  -1.188  0.00  0.00    +0.046 A 
BRANCH  17  24
ATOM     23  C   UNL     1       0.178   2.022  -0.485  0.00  0.00    +0.277 C 
ATOM     24  O   UNL     1       0.160   0.604  -0.310  0.00  0.00    -0.495 OA
ENDBRANCH  17  24
ENDBRANCH   1  20
BRANCH   1  25
ATOM     25  C   UNL     1       3.963  -2.723  -4.071  0.00  0.00    +0.022 A 
ATOM     26  C   UNL     1       4.932  -2.232  -4.925  0.00  0.00    +0.013 A 
ATOM     27  C   UNL     1       6.270  -2.432  -4.644  0.00  0.00    +0.046 A 
ATOM     28  C   UNL     1       6.643  -3.126  -3.501  0.00  0.00    +0.120 A 
ATOM     29  C   UNL     1       5.673  -3.619  -2.643  0.00  0.00    +0.091 A 
ATOM     30  C   UNL     1       4.331  -3.412  -2.925  0.00  0.00    +0.126 A 
BRANCH  30  31
ATOM     31  O   UNL     1       3.378  -3.889  -2.082  0.00  0.00    -0.506 OA
ATOM     32  H   UNL     1       3.083  -4.787  -2.289  0.00  0.00    +0.292 HD
ENDBRANCH  30  31
BRANCH  28  33
ATOM     33  O   UNL     1       7.959  -3.322  -3.225  0.00  0.00    -0.507 OA
ATOM     34  H   UNL     1       8.358  -2.622  -2.690  0.00  0.00    +0.292 HD
ENDBRANCH  28  33
ENDBRANCH   1  25
TORSDOF 6
