REMARK  Name = ZINC33692139
REMARK  8 active torsions:
REMARK  status: ('A' for Active; 'I' for Inactive)
REMARK    1  A    between atoms: C_3  and  C_20
REMARK    2  A    between atoms: C_6  and  C_7
REMARK    3  A    between atoms: C_7  and  O_8
REMARK    4  A    between atoms: O_8  and  C_9
REMARK    5  A    between atoms: C_12  and  N_15
REMARK    6  A    between atoms: N_22  and  C_23
REMARK    7  A    between atoms: C_23  and  C_24
REMARK    8  A    between atoms: C_26  and  N_28
REMARK                            x       y       z     vdW  Elec       q    Type
REMARK                         _______ _______ _______ _____ _____    ______ ____
ROOT
ATOM      1  C   UNL     1      -0.017   1.379   0.010  0.00  0.00    +0.008 A 
ATOM      2  C   UNL     1       1.167   2.088   0.002  0.00  0.00    +0.013 A 
ATOM      3  C   UNL     1       2.385   1.407  -0.013  0.00  0.00    +0.037 A 
ATOM      4  C   UNL     1       2.397   0.011  -0.021  0.00  0.00    +0.013 A 
ATOM      5  C   UNL     1       1.206  -0.686  -0.013  0.00  0.00    +0.008 A 
ATOM      6  C   UNL     1       0.002  -0.004   0.002  0.00  0.00    -0.010 A 
ENDROOT
BRANCH   3   7
ATOM      7  C   UNL     1       3.657   2.160  -0.022  0.00  0.00    +0.244 C 
ATOM      8  O   UNL     1       3.643   3.376  -0.015  0.00  0.00    -0.270 OA
ATOM      9  N   UNL     1       4.831   1.499  -0.037  0.00  0.00    -0.308 N 
ATOM     10  H   UNL     1       4.842   0.529  -0.042  0.00  0.00    +0.149 HD
BRANCH   9  11
ATOM     11  C   UNL     1       6.092   2.246  -0.045  0.00  0.00    +0.137 C 
BRANCH  11  12
ATOM     12  C   UNL     1       7.248   1.279  -0.061  0.00  0.00    +0.058 C 
ATOM     13  C   UNL     1       8.171   1.364  -1.012  0.00  0.00    +0.232 C 
ATOM     14  O   UNL     1       8.074   2.321  -1.969  0.00  0.00    -0.271 OA
BRANCH  13  15
ATOM     15  N   UNL     1       9.237   0.473  -1.027  0.00  0.00    -0.326 N 
ATOM     16  H   UNL     1       9.307  -0.211  -0.343  0.00  0.00    +0.145 HD
ATOM     17  H   UNL     1       9.911   0.535  -1.721  0.00  0.00    +0.145 HD
ENDBRANCH  13  15
ENDBRANCH  11  12
ENDBRANCH   9  11
ENDBRANCH   3   7
BRANCH   6  18
ATOM     18  C   UNL     1      -1.295  -0.772   0.010  0.00  0.00    +0.264 C 
BRANCH  18  19
ATOM     19  O   UNL     1      -1.717  -1.007  -1.334  0.00  0.00    -0.487 OA
BRANCH  19  20
ATOM     20  C   UNL     1      -2.879  -1.693  -1.505  0.00  0.00    +0.121 A 
ATOM     21  C   UNL     1      -3.598  -2.125  -0.400  0.00  0.00    +0.047 A 
ATOM     22  C   UNL     1      -4.778  -2.821  -0.573  0.00  0.00    +0.030 A 
ATOM     23  C   UNL     1      -5.244  -3.089  -1.853  0.00  0.00    +0.048 A 
ATOM     24  C   UNL     1      -4.524  -2.657  -2.958  0.00  0.00    +0.030 A 
ATOM     25  C   UNL     1      -3.347  -1.956  -2.784  0.00  0.00    +0.047 A 
BRANCH  23  26
ATOM     26  N   UNL     1      -6.443  -3.798  -2.029  0.00  0.00    -0.306 N 
ATOM     27  C   UNL     1      -7.020  -4.138  -3.225  0.00  0.00    +0.112 A 
ATOM     28  C   UNL     1      -8.152  -4.808  -2.935  0.00  0.00    +0.130 A 
ATOM     29  N   UNL     1      -8.268  -4.877  -1.601  0.00  0.00    -0.244 NA
ATOM     30  C   UNL     1      -7.247  -4.280  -1.047  0.00  0.00    +0.204 A 
ENDBRANCH  23  26
ENDBRANCH  19  20
ENDBRANCH  18  19
ENDBRANCH   6  18
TORSDOF 8
