REMARK  Name = ZINC52472920
REMARK  6 active torsions:
REMARK  status: ('A' for Active; 'I' for Inactive)
REMARK    1  A    between atoms: C_1  and  C_2
REMARK    2  A    between atoms: C_6  and  N_8
REMARK    3  A    between atoms: N_11  and  C_12
REMARK    4  A    between atoms: C_16  and  C_18
REMARK    5  A    between atoms: C_18  and  N_19
REMARK    6  A    between atoms: C_22  and  C_27
REMARK                            x       y       z     vdW  Elec       q    Type
REMARK                         _______ _______ _______ _____ _____    ______ ____
ROOT
ATOM      1  C   UNL     1      -0.068  -6.218   3.647  0.00  0.00    +0.035 A 
ATOM      2  C   UNL     1      -0.057  -6.912   2.444  0.00  0.00    +0.023 A 
ATOM      3  C   UNL     1      -0.034  -8.293   2.445  0.00  0.00    +0.002 A 
ATOM      4  C   UNL     1      -0.023  -8.985   3.643  0.00  0.00    +0.005 A 
ATOM      5  C   UNL     1      -0.034  -8.297   4.842  0.00  0.00    -0.029 A 
ATOM      6  C   UNL     1      -0.050  -6.915   4.848  0.00  0.00    +0.028 A 
ENDROOT
BRANCH   1  10
ATOM      7  N   UNL     1      -0.678  -2.809   2.618  0.00  0.00    -0.269 N 
ATOM      8  C   UNL     1      -0.742  -4.154   2.675  0.00  0.00    +0.308 C 
ATOM      9  O   UNL     1      -1.388  -4.768   1.847  0.00  0.00    -0.252 OA
ATOM     10  N   UNL     1      -0.091  -4.819   3.650  0.00  0.00    -0.269 N 
ATOM     11  H   UNL     1      -0.103  -2.324   3.230  0.00  0.00    +0.156 HD
ATOM     12  H   UNL     1       0.362  -4.327   4.353  0.00  0.00    +0.156 HD
BRANCH   7  18
ATOM     13  C   UNL     1      -4.786  -2.429  -0.057  0.00  0.00    +0.044 C 
ATOM     14  C   UNL     1      -3.436  -1.905   0.360  0.00  0.00    -0.049 A 
ATOM     15  C   UNL     1      -2.950  -0.733  -0.191  0.00  0.00    +0.003 A 
ATOM     16  C   UNL     1      -1.711  -0.249   0.189  0.00  0.00    +0.002 A 
ATOM     17  C   UNL     1      -0.956  -0.935   1.119  0.00  0.00    +0.023 A 
ATOM     18  C   UNL     1      -1.441  -2.112   1.674  0.00  0.00    +0.035 A 
ATOM     19  C   UNL     1      -2.688  -2.592   1.295  0.00  0.00    +0.026 A 
ENDBRANCH   7  18
ENDBRANCH   1  10
BRANCH   5  20
ATOM     20  C   UNL     1      -0.022  -9.055   6.145  0.00  0.00    +0.138 C 
BRANCH  20  21
ATOM     21  N   UNL     1       1.363  -9.278   6.567  0.00  0.00    -0.325 N 
ATOM     22  C   UNL     1       1.627  -9.959   7.744  0.00  0.00    +0.124 A 
ATOM     23  C   UNL     1       0.580 -10.442   8.533  0.00  0.00    +0.064 A 
ATOM     24  C   UNL     1       0.890 -11.116   9.698  0.00  0.00    +0.019 A 
ATOM     25  N   UNL     1       2.162 -11.283  10.031  0.00  0.00    -0.332 N 
ATOM     26  C   UNL     1       3.135 -10.814   9.264  0.00  0.00    +0.192 A 
ATOM     27  N   UNL     1       2.879 -10.168   8.136  0.00  0.00    -0.201 NA
ATOM     28  N   UNL     1       4.450 -11.010   9.647  0.00  0.00    -0.329 N 
ATOM     29  C   UNL     1      -0.206 -11.653  10.582  0.00  0.00    +0.063 C 
ATOM     30  H   UNL     1       2.095  -8.950   6.022  0.00  0.00    +0.148 HD
ATOM     31  H   UNL     1       4.650 -11.485  10.468  0.00  0.00    +0.145 HD
ATOM     32  H   UNL     1       5.171 -10.671   9.094  0.00  0.00    +0.145 HD
ATOM     33  H   UNL     1       2.384 -11.756  10.849  0.00  0.00    +0.168 HD
ENDBRANCH  20  21
ENDBRANCH   5  20
TORSDOF 4
