REMARK  Name = ZINC40035701
REMARK  7 active torsions:
REMARK  status: ('A' for Active; 'I' for Inactive)
REMARK    1  A    between atoms: C_1  and  C_2
REMARK    2  A    between atoms: C_2  and  C_3
REMARK    3  A    between atoms: C_3  and  C_39
REMARK    4  A    between atoms: N_15  and  C_33
REMARK    5  A    between atoms: N_18  and  N_19
REMARK    6  A    between atoms: C_20  and  C_21
REMARK    7  A    between atoms: C_30  and  C_32
REMARK                            x       y       z     vdW  Elec       q    Type
REMARK                         _______ _______ _______ _____ _____    ______ ____
ROOT
ATOM      1  C   UNL     1       1.005  -1.086  -1.945  0.00  0.00    +0.004 C 
ATOM      2  C   UNL     1       1.196  -2.581  -1.702  0.00  0.00    +0.047 C 
ATOM      3  C   UNL     1       1.791  -2.824  -0.342  0.00  0.00    -0.037 A 
ATOM      4  C   UNL     1       1.418  -3.928   0.397  0.00  0.00    +0.004 A 
ATOM      5  C   UNL     1       1.974  -4.147   1.645  0.00  0.00    +0.000 A 
ATOM      6  C   UNL     1       2.904  -3.263   2.163  0.00  0.00    +0.001 A 
ATOM      7  C   UNL     1       3.284  -2.153   1.434  0.00  0.00    +0.010 A 
ATOM      8  C   UNL     1       2.727  -1.929   0.179  0.00  0.00    +0.004 A 
ATOM      9  C   UNL     1       3.107  -0.743  -0.621  0.00  0.00    +0.084 A 
ATOM     10  C   UNL     1       2.275  -0.336  -1.655  0.00  0.00    +0.050 A 
ATOM     11  C   UNL     1       2.640   0.781  -2.416  0.00  0.00    +0.264 A 
ATOM     12  O   UNL     1       1.934   1.167  -3.334  0.00  0.00    -0.267 OA
ATOM     13  N   UNL     1       3.789   1.423  -2.112  0.00  0.00    -0.248 N 
ATOM     14  C   UNL     1       4.569   0.985  -1.082  0.00  0.00    +0.223 A 
ATOM     15  N   UNL     1       4.232  -0.067  -0.364  0.00  0.00    -0.214 NA
ATOM     16  N   UNL     1       5.729   1.653  -0.788  0.00  0.00    -0.206 N 
ATOM     17  C   UNL     1       0.609  -0.859  -3.405  0.00  0.00    +0.016 C 
ATOM     18  H   UNL     1       5.950   2.471  -1.260  0.00  0.00    +0.177 HD
ENDROOT
BRANCH  13  19
ATOM     19  C   UNL     1       4.181   2.541  -2.858  0.00  0.00    +0.053 A 
ATOM     20  C   UNL     1       5.000   2.384  -3.969  0.00  0.00    +0.026 A 
ATOM     21  C   UNL     1       5.385   3.489  -4.702  0.00  0.00    +0.002 A 
ATOM     22  C   UNL     1       4.957   4.751  -4.332  0.00  0.00    +0.000 A 
ATOM     23  C   UNL     1       4.143   4.910  -3.226  0.00  0.00    +0.002 A 
ATOM     24  C   UNL     1       3.749   3.809  -2.492  0.00  0.00    +0.026 A 
ENDBRANCH  13  19
BRANCH   1  26
ATOM     25  C   UNL     1      -0.323   0.928  -1.293  0.00  0.00    +0.005 C 
ATOM     26  C   UNL     1      -0.108  -0.565  -1.034  0.00  0.00    +0.008 C 
ENDBRANCH   1  26
BRANCH  16  27
ATOM     27  N   UNL     1       6.595   1.155   0.193  0.00  0.00    -0.188 NA
ATOM     28  C   UNL     1       7.697   1.790   0.472  0.00  0.00    +0.137 C 
BRANCH  28  29
ATOM     29  C   UNL     1       8.574   1.285   1.466  0.00  0.00    +0.013 C 
ATOM     30  C   UNL     1       8.271   0.139   2.123  0.00  0.00    +0.020 C 
ATOM     31  C   UNL     1       9.207  -0.329   3.159  0.00  0.00    +0.017 A 
ATOM     32  C   UNL     1       9.161  -1.634   3.644  0.00  0.00    +0.011 A 
ATOM     33  C   UNL     1      10.059  -2.030   4.616  0.00  0.00    +0.001 A 
ATOM     34  C   UNL     1      10.998  -1.138   5.105  0.00  0.00    +0.004 A 
ATOM     35  C   UNL     1      11.051   0.161   4.630  0.00  0.00    +0.046 A 
ATOM     36  C   UNL     1      10.161   0.574   3.657  0.00  0.00    +0.128 A 
ATOM     37  O   UNL     1      10.187   1.841   3.170  0.00  0.00    -0.484 OA
ATOM     38  C   UNL     1       9.850   2.017   1.791  0.00  0.00    +0.202 C 
ATOM     39  C   UNL     1      10.982   1.474   0.915  0.00  0.00    +0.057 C 
ENDBRANCH  28  29
ENDBRANCH  16  27
TORSDOF 4
