REMARK  Name = ZINC40986273
REMARK  14 active torsions:
REMARK  status: ('A' for Active; 'I' for Inactive)
REMARK    1  A    between atoms: C_1  and  C_2
REMARK    2  A    between atoms: C_2  and  C_3
REMARK    3  A    between atoms: C_3  and  C_4
REMARK    4  A    between atoms: C_4  and  S_5
REMARK    5  A    between atoms: S_5  and  C_8
REMARK    6  A    between atoms: C_11  and  C_15
REMARK    7  A    between atoms: N_17  and  C_18
REMARK    8  A    between atoms: C_18  and  C_19
REMARK    9  A    between atoms: C_19  and  C_21
REMARK   10  A    between atoms: C_19  and  N_31
REMARK   11  A    between atoms: C_24  and  C_27
REMARK   12  A    between atoms: C_27  and  C_28
REMARK   13  A    between atoms: C_27  and  C_29
REMARK   14  A    between atoms: C_27  and  C_30
REMARK                            x       y       z     vdW  Elec       q    Type
REMARK                         _______ _______ _______ _____ _____    ______ ____
ROOT
ATOM      1  C   UNL     1      -0.032 -10.661  -1.302  0.00  0.00    +0.248 C 
ATOM      2  O   UNL     1      -0.150  -9.896  -2.239  0.00  0.00    -0.270 OA
ATOM      3  N   UNL     1       1.194 -11.040  -0.891  0.00  0.00    -0.312 N 
ATOM      4  H   UNL     1       1.288 -11.650  -0.143  0.00  0.00    +0.149 HD
ENDROOT
BRANCH   1   8
ATOM      5  C   UNL     1      -3.413 -12.110   0.636  0.00  0.00    +0.272 A 
ATOM      6  N   UNL     1      -2.222 -12.494   1.054  0.00  0.00    -0.219 NA
ATOM      7  C   UNL     1      -1.121 -12.058   0.468  0.00  0.00    +0.130 A 
ATOM      8  C   UNL     1      -1.234 -11.177  -0.613  0.00  0.00    +0.092 A 
ATOM      9  C   UNL     1      -2.518 -10.796  -1.024  0.00  0.00    +0.146 A 
ATOM     10  N   UNL     1      -3.566 -11.286  -0.381  0.00  0.00    -0.199 NA
ATOM     11 CL   UNL     1      -2.732  -9.705  -2.357  0.00  0.00    -0.061 Cl
BRANCH   5  12
ATOM     12  S   UNL     1      -4.845 -12.726   1.458  0.00  0.00    +0.032 S 
ATOM     13  O   UNL     1      -5.843 -11.739   1.236  0.00  0.00    -0.166 OA
ATOM     14  O   UNL     1      -4.405 -13.028   2.775  0.00  0.00    -0.166 OA
BRANCH  12  15
ATOM     15  C   UNL     1      -5.268 -14.253   0.576  0.00  0.00    +0.175 C 
BRANCH  15  16
ATOM     16  C   UNL     1      -6.511 -14.881   1.211  0.00  0.00    +0.023 C 
BRANCH  16  18
ATOM     17  C   UNL     1      -8.111 -16.797   1.101  0.00  0.00    +0.004 C 
ATOM     18  C   UNL     1      -6.868 -16.169   0.466  0.00  0.00    -0.002 C 
ENDBRANCH  16  18
ENDBRANCH  15  16
ENDBRANCH  12  15
ENDBRANCH   5  12
ENDBRANCH   1   8
BRANCH   3  19
ATOM     19  C   UNL     1       2.386 -10.529  -1.573  0.00  0.00    +0.094 C 
BRANCH  19  20
ATOM     20  C   UNL     1       3.640 -11.023  -0.850  0.00  0.00    -0.020 C 
BRANCH  20  21
ATOM     21  C   UNL     1       3.735 -12.522  -0.977  0.00  0.00    -0.059 A 
ATOM     22  C   UNL     1       4.230 -13.087  -2.137  0.00  0.00    +0.002 A 
ATOM     23  C   UNL     1       4.317 -14.462  -2.253  0.00  0.00    +0.004 A 
ATOM     24  C   UNL     1       3.910 -15.271  -1.209  0.00  0.00    -0.042 A 
ATOM     25  C   UNL     1       3.416 -14.706  -0.049  0.00  0.00    +0.004 A 
ATOM     26  C   UNL     1       3.332 -13.331   0.069  0.00  0.00    +0.002 A 
BRANCH  24  27
ATOM     27  C   UNL     1       4.004 -16.770  -1.337  0.00  0.00    -0.013 C 
ATOM     28  C   UNL     1       5.462 -17.171  -1.568  0.00  0.00    +0.015 C 
ATOM     29  C   UNL     1       3.493 -17.424  -0.051  0.00  0.00    +0.015 C 
ATOM     30  C   UNL     1       3.153 -17.236  -2.519  0.00  0.00    +0.015 C 
ENDBRANCH  24  27
ENDBRANCH  20  21
BRANCH  20  31
ATOM     31  N   UNL     1       4.828 -10.404  -1.451  0.00  0.00    +0.385 N 
ATOM     32  C   UNL     1       4.786  -8.931  -1.270  0.00  0.00    -0.078 C 
ATOM     33  C   UNL     1       6.271  -8.513  -1.416  0.00  0.00    -0.020 C 
ATOM     34  C   UNL     1       7.026  -9.671  -0.724  0.00  0.00    -0.020 C 
ATOM     35  C   UNL     1       6.050 -10.861  -0.753  0.00  0.00    -0.078 C 
ATOM     36  H   UNL     1       4.882 -10.634  -2.432  0.00  0.00    -0.081 HD
ENDBRANCH  20  31
ENDBRANCH  19  20
ENDBRANCH   3  19
TORSDOF 10
