REMARK  Name = ZINC02474891
REMARK  5 active torsions:
REMARK  status: ('A' for Active; 'I' for Inactive)
REMARK    1  A    between atoms: C_4  and  C_7
REMARK    2  A    between atoms: C_9  and  C_20
REMARK    3  A    between atoms: C_11  and  C_13
REMARK    4  A    between atoms: C_17  and  N_19
REMARK    5  A    between atoms: C_24  and  N_26
REMARK                            x       y       z     vdW  Elec       q    Type
REMARK                         _______ _______ _______ _____ _____    ______ ____
ROOT
ATOM      1  C   UNL     1       3.698  -0.688  -0.038  0.00  0.00    +0.075 A 
ATOM      2  C   UNL     1       3.732  -2.084  -0.052  0.00  0.00    +0.056 A 
ATOM      3  C   UNL     1       4.975  -2.717  -0.068  0.00  0.00    +0.075 A 
ATOM      4  N   UNL     1       6.079  -1.974  -0.070  0.00  0.00    -0.227 NA
ATOM      5  C   UNL     1       6.008  -0.651  -0.056  0.00  0.00    +0.161 A 
ATOM      6  N   UNL     1       4.846  -0.014  -0.047  0.00  0.00    -0.227 NA
ENDROOT
BRANCH   1  10
ATOM      7  C   UNL     1      -0.017   1.379   0.010  0.00  0.00    +0.000 A 
ATOM      8  C   UNL     1       1.169   2.092   0.002  0.00  0.00    +0.001 A 
ATOM      9  C   UNL     1       2.377   1.426  -0.013  0.00  0.00    +0.010 A 
ATOM     10  C   UNL     1       2.402   0.033  -0.021  0.00  0.00    +0.000 A 
ATOM     11  C   UNL     1       1.205  -0.680  -0.013  0.00  0.00    +0.010 A 
ATOM     12  C   UNL     1       0.002  -0.004   0.002  0.00  0.00    +0.001 A 
ENDBRANCH   1  10
BRANCH   5  13
ATOM     13  C   UNL     1       7.263   0.140  -0.058  0.00  0.00    +0.021 A 
ATOM     14  C   UNL     1       8.497  -0.509  -0.080  0.00  0.00    +0.012 A 
ATOM     15  C   UNL     1       9.665   0.228  -0.081  0.00  0.00    +0.002 A 
ATOM     16  C   UNL     1       9.615   1.609  -0.061  0.00  0.00    +0.023 A 
ATOM     17  C   UNL     1       8.390   2.264  -0.040  0.00  0.00    +0.025 A 
ATOM     18  C   UNL     1       7.212   1.531  -0.045  0.00  0.00    +0.034 A 
BRANCH  17  19
ATOM     19  N   UNL     1       8.344   3.660  -0.019  0.00  0.00    -0.358 N 
ATOM     20  H   UNL     1       9.168   4.172  -0.019  0.00  0.00    +0.142 HD
ATOM     21  H   UNL     1       7.489   4.117  -0.004  0.00  0.00    +0.142 HD
ENDBRANCH  17  19
ENDBRANCH   5  13
BRANCH   3  22
ATOM     22  C   UNL     1       5.065  -4.197  -0.082  0.00  0.00    +0.002 A 
ATOM     23  C   UNL     1       3.904  -4.968  -0.086  0.00  0.00    +0.010 A 
ATOM     24  C   UNL     1       3.989  -6.346  -0.099  0.00  0.00    +0.002 A 
ATOM     25  C   UNL     1       5.224  -6.966  -0.108  0.00  0.00    +0.023 A 
ATOM     26  C   UNL     1       6.388  -6.206  -0.105  0.00  0.00    +0.025 A 
ATOM     27  C   UNL     1       6.310  -4.821  -0.098  0.00  0.00    +0.032 A 
BRANCH  26  28
ATOM     28  N   UNL     1       7.634  -6.836  -0.115  0.00  0.00    -0.358 N 
ATOM     29  H   UNL     1       7.688  -7.805  -0.124  0.00  0.00    +0.142 HD
ATOM     30  H   UNL     1       8.446  -6.305  -0.113  0.00  0.00    +0.142 HD
ENDBRANCH  26  28
ENDBRANCH   3  22
TORSDOF 5
