REMARK  Name = ZINC44067610
REMARK  5 active torsions:
REMARK  status: ('A' for Active; 'I' for Inactive)
REMARK    1  A    between atoms: C_3  and  N_12
REMARK    2  A    between atoms: C_6  and  C_7
REMARK    3  A    between atoms: C_7  and  S_8
REMARK    4  A    between atoms: S_8  and  N_11
REMARK    5  A    between atoms: C_13  and  C_15
REMARK                            x       y       z     vdW  Elec       q    Type
REMARK                         _______ _______ _______ _____ _____    ______ ____
ROOT
ATOM      1  C   UNL     1      -0.014   1.367  -0.001  0.00  0.00    +0.007 A 
ATOM      2  C   UNL     1       1.169   2.079  -0.002  0.00  0.00    +0.023 A 
ATOM      3  C   UNL     1       2.383   1.405  -0.020  0.00  0.00    +0.034 A 
ATOM      4  C   UNL     1       2.403   0.016  -0.036  0.00  0.00    +0.023 A 
ATOM      5  C   UNL     1       1.216  -0.690  -0.035  0.00  0.00    +0.007 A 
ATOM      6  C   UNL     1       0.009  -0.015  -0.017  0.00  0.00    -0.025 A 
ENDROOT
BRANCH   3   7
ATOM      7  N   UNL     1       3.583   2.123  -0.021  0.00  0.00    -0.281 N 
ATOM      8  C   UNL     1       4.658   1.642   0.635  0.00  0.00    +0.250 C 
ATOM      9  O   UNL     1       4.609   0.544   1.158  0.00  0.00    -0.270 OA
ATOM     10  H   UNL     1       3.643   2.967  -0.495  0.00  0.00    +0.155 HD
BRANCH   8  11
ATOM     11  C   UNL     1       5.887   2.443   0.720  0.00  0.00    +0.064 A 
ATOM     12  C   UNL     1       5.981   3.752   0.117  0.00  0.00    +0.042 A 
ATOM     13  C   UNL     1       7.163   4.382   0.266  0.00  0.00    +0.080 A 
ATOM     14  S   UNL     1       8.126   3.219   1.207  0.00  0.00    -0.064 S 
ATOM     15  C   UNL     1       7.005   1.983   1.383  0.00  0.00    +0.091 A 
ATOM     16 CL   UNL     1       7.207   0.470   2.211  0.00  0.00    -0.075 Cl
ATOM     17 CL   UNL     1       7.633   5.948  -0.318  0.00  0.00    -0.076 Cl
ENDBRANCH   8  11
ENDBRANCH   3   7
BRANCH   6  18
ATOM     18  C   UNL     1      -1.284  -0.789  -0.016  0.00  0.00    +0.219 C 
BRANCH  18  19
ATOM     19  S   UNL     1      -1.817  -1.079  -1.726  0.00  0.00    +0.031 S 
ATOM     20  O   UNL     1      -2.187   0.149  -2.338  0.00  0.00    -0.158 OA
ATOM     21  O   UNL     1      -0.920  -1.970  -2.373  0.00  0.00    -0.158 OA
BRANCH  19  22
ATOM     22  N   UNL     1      -3.233  -1.928  -1.592  0.00  0.00    -0.208 NA
ATOM     23  H   UNL     1      -3.583  -2.152  -0.716  0.00  0.00    +0.144 HD
ATOM     24  H   UNL     1      -3.712  -2.201  -2.390  0.00  0.00    +0.144 HD
ENDBRANCH  19  22
ENDBRANCH  18  19
ENDBRANCH   6  18
TORSDOF 5
