REMARK  Name = ZINC00887686
REMARK  11 active torsions:
REMARK  status: ('A' for Active; 'I' for Inactive)
REMARK    1  A    between atoms: C_1  and  C_2
REMARK    2  A    between atoms: C_5  and  C_8
REMARK    3  A    between atoms: C_8  and  C_10
REMARK    4  A    between atoms: C_8  and  N_20
REMARK    5  A    between atoms: N_12  and  C_13
REMARK    6  A    between atoms: C_13  and  C_14
REMARK    7  A    between atoms: N_20  and  C_21
REMARK    8  A    between atoms: C_21  and  C_22
REMARK    9  A    between atoms: C_29  and  C_31
REMARK   10  A    between atoms: C_31  and  N_32
REMARK   11  A    between atoms: C_34  and  C_37
REMARK                            x       y       z     vdW  Elec       q    Type
REMARK                         _______ _______ _______ _____ _____    ______ ____
ROOT
ATOM      1  N   UNL     1       0.875   1.256  -0.287  0.00  0.00    -0.280 N 
ATOM      2  C   UNL     1       0.621   2.117   0.718  0.00  0.00    +0.240 C 
ATOM      3  O   UNL     1       0.100   1.720   1.739  0.00  0.00    -0.273 OA
ENDROOT
BRANCH   1   4
ATOM      4  C   UNL     1       0.523  -0.159  -0.146  0.00  0.00    +0.193 C 
BRANCH   4   9
ATOM      5  C   UNL     1      -5.181  -0.656   0.638  0.00  0.00    +0.044 C 
ATOM      6  C   UNL     1      -3.693  -0.526   0.433  0.00  0.00    -0.050 A 
ATOM      7  C   UNL     1      -2.858  -1.583   0.744  0.00  0.00    +0.004 A 
ATOM      8  C   UNL     1      -1.494  -1.464   0.556  0.00  0.00    +0.006 A 
ATOM      9  C   UNL     1      -0.965  -0.288   0.058  0.00  0.00    -0.018 A 
ATOM     10  C   UNL     1      -1.799   0.770  -0.248  0.00  0.00    +0.006 A 
ATOM     11  C   UNL     1      -3.164   0.650  -0.065  0.00  0.00    +0.004 A 
ENDBRANCH   4   9
BRANCH   4  12
ATOM     12  C   UNL     1       0.925  -0.903  -1.394  0.00  0.00    +0.238 C 
ATOM     13  O   UNL     1       0.448  -0.594  -2.465  0.00  0.00    -0.273 OA
ATOM     14  N   UNL     1       1.816  -1.912  -1.319  0.00  0.00    -0.311 N 
ATOM     15  H   UNL     1       2.197  -2.159  -0.462  0.00  0.00    +0.149 HD
BRANCH  14  16
ATOM     16  C   UNL     1       2.207  -2.635  -2.531  0.00  0.00    +0.135 C 
BRANCH  16  17
ATOM     17  C   UNL     1       3.221  -3.723  -2.171  0.00  0.00    +0.135 C 
ATOM     18  C   UNL     1       3.713  -4.442  -3.446  0.00  0.00    +0.035 C 
ATOM     19  C   UNL     1       3.863  -5.917  -3.011  0.00  0.00    +0.031 C 
ATOM     20  C   UNL     1       3.444  -5.914  -1.524  0.00  0.00    +0.160 C 
ATOM     21  O   UNL     1       2.592  -4.755  -1.381  0.00  0.00    -0.375 OA
ENDBRANCH  16  17
ENDBRANCH  14  16
ENDBRANCH   4  12
ENDBRANCH   1   4
BRANCH   1  22
ATOM     22  C   UNL     1       1.509   1.734  -1.519  0.00  0.00    +0.147 C 
BRANCH  22  23
ATOM     23  C   UNL     1       0.631   2.776  -2.164  0.00  0.00    +0.005 A 
ATOM     24  C   UNL     1       1.099   4.064  -2.336  0.00  0.00    +0.008 A 
ATOM     25  C   UNL     1       0.295   5.020  -2.928  0.00  0.00    +0.000 A 
ATOM     26  C   UNL     1      -0.979   4.687  -3.350  0.00  0.00    +0.003 A 
ATOM     27  C   UNL     1      -1.450   3.399  -3.179  0.00  0.00    +0.038 A 
ATOM     28  C   UNL     1      -0.643   2.440  -2.590  0.00  0.00    +0.128 A 
ATOM     29  F   UNL     1      -1.100   1.179  -2.427  0.00  0.00    -0.205 F 
ENDBRANCH  22  23
ENDBRANCH   1  22
BRANCH   2  30
ATOM     30  C   UNL     1       0.983   3.573   0.573  0.00  0.00    +0.264 C 
BRANCH  30  31
ATOM     31  N   UNL     1       0.608   4.293   1.792  0.00  0.00    -0.154 N 
ATOM     32  N   UNL     1       1.366   4.464   2.820  0.00  0.00    -0.129 NA
ATOM     33  C   UNL     1       0.685   5.157   3.713  0.00  0.00    +0.211 A 
ATOM     34  N   UNL     1      -0.520   5.397   3.175  0.00  0.00    -0.107 NA
ATOM     35  N   UNL     1      -0.529   4.859   2.002  0.00  0.00    -0.045 NA
BRANCH  33  36
ATOM     36  C   UNL     1       1.159   5.587   5.047  0.00  0.00    +0.060 A 
ATOM     37  C   UNL     1       0.500   6.308   6.005  0.00  0.00    +0.019 A 
ATOM     38  C   UNL     1       1.149   6.588   7.188  0.00  0.00    +0.008 A 
ATOM     39  C   UNL     1       2.423   6.152   7.362  0.00  0.00    +0.046 A 
ATOM     40  S   UNL     1       2.742   5.305   5.823  0.00  0.00    -0.093 S 
ENDBRANCH  33  36
ENDBRANCH  30  31
ENDBRANCH   2  30
TORSDOF 10
