REMARK  Name = ZINC18250337
REMARK  14 active torsions:
REMARK  status: ('A' for Active; 'I' for Inactive)
REMARK    1  A    between atoms: C_1  and  C_2
REMARK    2  A    between atoms: C_2  and  C_3
REMARK    3  A    between atoms: C_3  and  C_4
REMARK    4  A    between atoms: C_4  and  C_5
REMARK    5  A    between atoms: C_5  and  C_6
REMARK    6  A    between atoms: C_6  and  O_7
REMARK    7  A    between atoms: O_7  and  C_8
REMARK    8  A    between atoms: C_11  and  N_14
REMARK    9  A    between atoms: C_18  and  N_22
REMARK   10  A    between atoms: N_22  and  C_23
REMARK   11  A    between atoms: C_23  and  C_24
REMARK   12  A    between atoms: C_24  and  C_25
REMARK   13  A    between atoms: C_28  and  S_31
REMARK   14  A    between atoms: S_31  and  N_34
REMARK                            x       y       z     vdW  Elec       q    Type
REMARK                         _______ _______ _______ _____ _____    ______ ____
ROOT
ATOM      1  N   UNL     1       2.575  -9.986  -4.370  0.00  0.00    -0.212 N 
ATOM      2  C   UNL     1       2.162 -10.862  -3.445  0.00  0.00    +0.225 C 
ATOM      3  O   UNL     1       1.658 -10.575  -2.381  0.00  0.00    -0.275 OA
ATOM      4  C   UNL     1       2.424 -12.268  -3.940  0.00  0.00    +0.090 C 
ATOM      5  C   UNL     1       3.067 -12.050  -5.325  0.00  0.00    +0.026 C 
ATOM      6  C   UNL     1       3.095 -10.544  -5.470  0.00  0.00    +0.213 C 
ATOM      7  O   UNL     1       3.523  -9.939  -6.429  0.00  0.00    -0.277 OA
ENDROOT
BRANCH   1  11
ATOM      8  C   UNL     1       2.249  -5.857  -3.870  0.00  0.00    +0.121 A 
ATOM      9  C   UNL     1       1.489  -6.501  -4.836  0.00  0.00    +0.047 A 
ATOM     10  C   UNL     1       1.596  -7.868  -5.002  0.00  0.00    +0.027 A 
ATOM     11  C   UNL     1       2.465  -8.597  -4.202  0.00  0.00    +0.044 A 
ATOM     12  C   UNL     1       3.226  -7.953  -3.236  0.00  0.00    +0.027 A 
ATOM     13  C   UNL     1       3.122  -6.585  -3.075  0.00  0.00    +0.047 A 
BRANCH   8  14
ATOM     14  O   UNL     1       2.143  -4.512  -3.708  0.00  0.00    -0.492 OA
BRANCH  14  15
ATOM     15  C   UNL     1       1.225  -3.825  -4.561  0.00  0.00    +0.229 C 
BRANCH  15  16
ATOM     16  C   UNL     1       1.244  -2.331  -4.234  0.00  0.00    +0.041 C 
BRANCH  16  17
ATOM     17  C   UNL     1       0.261  -1.596  -5.147  0.00  0.00    +0.003 C 
BRANCH  17  18
ATOM     18  C   UNL     1       0.279  -0.102  -4.819  0.00  0.00    -0.000 C 
BRANCH  18  20
ATOM     19  C   UNL     1      -0.685   2.127  -5.405  0.00  0.00    +0.004 C 
ATOM     20  C   UNL     1      -0.704   0.633  -5.733  0.00  0.00    -0.003 C 
ENDBRANCH  18  20
ENDBRANCH  17  18
ENDBRANCH  16  17
ENDBRANCH  15  16
ENDBRANCH  14  15
ENDBRANCH   8  14
ENDBRANCH   1  11
BRANCH   5  21
ATOM     21  N   UNL     1       4.426 -12.606  -5.357  0.00  0.00    +0.387 N 
ATOM     22  H   UNL     1       5.014 -12.094  -4.717  0.00  0.00    -0.085 HD
ATOM     23  H   UNL     1       4.399 -13.578  -5.086  0.00  0.00    -0.085 HD
BRANCH  21  24
ATOM     24  C   UNL     1       4.969 -12.493  -6.718  0.00  0.00    -0.077 C 
BRANCH  24  25
ATOM     25  C   UNL     1       6.385 -13.072  -6.751  0.00  0.00    +0.016 C 
BRANCH  25  26
ATOM     26  C   UNL     1       6.942 -12.956  -8.147  0.00  0.00    -0.049 A 
ATOM     27  C   UNL     1       6.745 -13.978  -9.057  0.00  0.00    +0.005 A 
ATOM     28  C   UNL     1       7.256 -13.871 -10.337  0.00  0.00    +0.029 A 
ATOM     29  C   UNL     1       7.963 -12.742 -10.707  0.00  0.00    +0.105 A 
ATOM     30  C   UNL     1       8.159 -11.720  -9.798  0.00  0.00    +0.029 A 
ATOM     31  C   UNL     1       7.644 -11.825  -8.519  0.00  0.00    +0.005 A 
BRANCH  29  32
ATOM     32  S   UNL     1       8.615 -12.607 -12.338  0.00  0.00    +0.056 S 
ATOM     33  O   UNL     1       9.703 -11.695 -12.267  0.00  0.00    -0.153 OA
ATOM     34  O   UNL     1       8.764 -13.933 -12.828  0.00  0.00    -0.153 OA
BRANCH  32  35
ATOM     35  N   UNL     1       7.453 -11.886 -13.272  0.00  0.00    -0.204 NA
ATOM     36  H   UNL     1       6.605 -11.629 -12.878  0.00  0.00    +0.144 HD
ATOM     37  H   UNL     1       7.621 -11.720 -14.213  0.00  0.00    +0.144 HD
ENDBRANCH  32  35
ENDBRANCH  29  32
ENDBRANCH  25  26
ENDBRANCH  24  25
ENDBRANCH  21  24
ENDBRANCH   5  21
TORSDOF 13
