REMARK  Name = ZINC37441497
REMARK  4 active torsions:
REMARK  status: ('A' for Active; 'I' for Inactive)
REMARK    1  A    between atoms: C_1  and  C_2
REMARK    2  A    between atoms: C_2  and  N_3
REMARK    3  A    between atoms: C_11  and  C_12
REMARK    4  A    between atoms: C_17  and  N_18
REMARK                            x       y       z     vdW  Elec       q    Type
REMARK                         _______ _______ _______ _____ _____    ______ ____
ROOT
ATOM      1  N   UNL     1       0.694  -0.511  -1.207  0.00  0.00    -0.324 N 
ATOM      2  C   UNL     1       0.104  -0.871  -2.404  0.00  0.00    +0.069 A 
ATOM      3  C   UNL     1      -1.209  -0.929  -2.850  0.00  0.00    +0.029 A 
ATOM      4  C   UNL     1      -1.479  -1.342  -4.138  0.00  0.00    +0.017 A 
ATOM      5  C   UNL     1      -0.446  -1.701  -4.993  0.00  0.00    +0.020 A 
ATOM      6  C   UNL     1       0.863  -1.650  -4.569  0.00  0.00    +0.045 A 
ATOM      7  C   UNL     1       1.154  -1.233  -3.266  0.00  0.00    +0.091 A 
ATOM      8  N   UNL     1       2.311  -1.081  -2.574  0.00  0.00    -0.227 NA
ATOM      9  C   UNL     1       2.047  -0.651  -1.364  0.00  0.00    +0.144 A 
ATOM     10 BR   UNL     1      -0.840  -2.265  -6.755  0.00  0.00    -0.050 Br
ENDROOT
BRANCH   9  11
ATOM     11  C   UNL     1       3.057  -0.365  -0.325  0.00  0.00    +0.038 A 
ATOM     12  C   UNL     1       2.912  -0.893   0.959  0.00  0.00    +0.015 A 
ATOM     13  C   UNL     1       3.858  -0.623   1.925  0.00  0.00    +0.021 A 
ATOM     14  C   UNL     1       4.954   0.172   1.627  0.00  0.00    +0.043 A 
ATOM     15  C   UNL     1       5.110   0.701   0.360  0.00  0.00    +0.043 A 
ATOM     16  C   UNL     1       4.170   0.434  -0.625  0.00  0.00    +0.037 A 
ATOM     17 CL   UNL     1       6.137   0.504   2.853  0.00  0.00    -0.083 Cl
BRANCH  16  18
ATOM     18  N   UNL     1       4.327   0.962  -1.904  0.00  0.00    -0.357 N 
ATOM     19  H   UNL     1       3.630   0.843  -2.567  0.00  0.00    +0.142 HD
ATOM     20  H   UNL     1       5.135   1.448  -2.131  0.00  0.00    +0.142 HD
ENDBRANCH  16  18
ENDBRANCH   9  11
BRANCH   1  22
ATOM     21  C   UNL     1      -0.040   1.472   0.023  0.00  0.00    +0.027 C 
ATOM     22  C   UNL     1       0.001  -0.058   0.002  0.00  0.00    +0.120 C 
ENDBRANCH   1  22
TORSDOF 3
