REMARK  Name = ZINC27969233
REMARK  8 active torsions:
REMARK  status: ('A' for Active; 'I' for Inactive)
REMARK    1  A    between atoms: C_1  and  C_2
REMARK    2  A    between atoms: C_4  and  C_22
REMARK    3  A    between atoms: N_5  and  C_7
REMARK    4  A    between atoms: C_7  and  C_8
REMARK    5  A    between atoms: C_8  and  C_9
REMARK    6  A    between atoms: N_11  and  C_12
REMARK    7  A    between atoms: C_15  and  S_18
REMARK    8  A    between atoms: S_18  and  N_21
REMARK                            x       y       z     vdW  Elec       q    Type
REMARK                         _______ _______ _______ _____ _____    ______ ____
ROOT
ATOM      1  C   UNL     1      -2.798  -2.084  -1.426  0.00  0.00    +0.219 C 
ATOM      2  O   UNL     1      -3.268  -2.460  -0.373  0.00  0.00    -0.275 OA
ATOM      3  N   UNL     1      -3.349  -2.480  -2.590  0.00  0.00    -0.285 N 
ATOM      4  H   UNL     1      -2.970  -2.080  -3.542  0.00  0.00    +0.155 HD
ENDROOT
BRANCH   3   5
ATOM      5  C   UNL     1      -4.403  -3.401  -2.588  0.00  0.00    +0.033 A 
ATOM      6  C   UNL     1      -4.513  -4.335  -3.610  0.00  0.00    +0.025 A 
ATOM      7  C   UNL     1      -5.551  -5.247  -3.601  0.00  0.00    +0.030 A 
ATOM      8  C   UNL     1      -6.486  -5.222  -2.583  0.00  0.00    +0.105 A 
ATOM      9  C   UNL     1      -6.382  -4.289  -1.567  0.00  0.00    +0.030 A 
ATOM     10  C   UNL     1      -5.343  -3.379  -1.567  0.00  0.00    +0.025 A 
BRANCH   8  11
ATOM     11  S   UNL     1      -7.812  -6.381  -2.579  0.00  0.00    +0.056 S 
ATOM     12  O   UNL     1      -7.378  -7.498  -3.344  0.00  0.00    -0.153 OA
ATOM     13  O   UNL     1      -8.242  -6.503  -1.230  0.00  0.00    -0.153 OA
BRANCH  11  14
ATOM     14  N   UNL     1      -9.066  -5.694  -3.415  0.00  0.00    -0.204 NA
ATOM     15  H   UNL     1      -9.918  -6.390  -3.436  0.00  0.00    +0.144 HD
ATOM     16  H   UNL     1      -8.745  -5.477  -4.445  0.00  0.00    +0.144 HD
ENDBRANCH  11  14
ENDBRANCH   8  11
ENDBRANCH   3   5
BRANCH   1  17
ATOM     17  C   UNL     1      -1.596  -1.174  -1.432  0.00  0.00    +0.119 C 
BRANCH  17  18
ATOM     18  C   UNL     1      -1.172  -0.879   0.008  0.00  0.00    +0.153 C 
BRANCH  18  23
ATOM     19  C   UNL     1       3.594   0.693  -0.038  0.00  0.00    +0.068 C 
ATOM     20  C   UNL     1       2.088   0.671  -0.018  0.00  0.00    +0.074 A 
ATOM     21  C   UNL     1       1.251   1.792   0.002  0.00  0.00    +0.061 A 
ATOM     22  C   UNL     1      -0.030   1.355   0.014  0.00  0.00    +0.050 A 
ATOM     23  N   UNL     1      -0.004   0.005   0.002  0.00  0.00    -0.267 N 
ATOM     24  N   UNL     1       1.336  -0.400  -0.019  0.00  0.00    -0.175 NA
ATOM     25  C   UNL     1      -1.264   2.220   0.032  0.00  0.00    +0.066 C 
ATOM     26 BR   UNL     1       1.810   3.598   0.011  0.00  0.00    -0.047 Br
ENDBRANCH  18  23
ENDBRANCH  17  18
ENDBRANCH   1  17
TORSDOF 6
