REMARK  Name = ZINC09341556
REMARK  3 active torsions:
REMARK  status: ('A' for Active; 'I' for Inactive)
REMARK    1  A    between atoms: C_1  and  N_2
REMARK    2  A    between atoms: C_6  and  C_7
REMARK    3  A    between atoms: C_14  and  O_17
REMARK                            x       y       z     vdW  Elec       q    Type
REMARK                         _______ _______ _______ _____ _____    ______ ____
ROOT
ATOM      1  C   UNL     1      -2.113  -4.325  -0.106  0.00  0.00    +0.001 A 
ATOM      2  C   UNL     1      -0.926  -5.040  -0.115  0.00  0.00    +0.091 A 
ATOM      3  N   UNL     1      -1.193  -6.353  -0.225  0.00  0.00    -0.360 N 
ATOM      4  H   UNL     1      -0.521  -7.052  -0.252  0.00  0.00    +0.165 HD
ATOM      5  C   UNL     1      -2.557  -6.573  -0.294  0.00  0.00    +0.047 A 
ATOM      6  C   UNL     1      -3.195  -5.325  -0.218  0.00  0.00    +0.010 A 
ATOM      7  C   UNL     1      -4.582  -5.244  -0.259  0.00  0.00    +0.056 A 
ATOM      8  C   UNL     1      -5.332  -6.402  -0.373  0.00  0.00    +0.118 A 
ATOM      9  C   UNL     1      -4.700  -7.638  -0.445  0.00  0.00    +0.047 A 
ATOM     10  C   UNL     1      -3.325  -7.726  -0.412  0.00  0.00    +0.030 A 
ENDROOT
BRANCH   1  16
ATOM     11  C   UNL     1      -0.708   1.329   1.934  0.00  0.00    +0.143 C 
ATOM     12  N   UNL     1      -0.757  -0.135   1.894  0.00  0.00    -0.223 N 
ATOM     13  C   UNL     1      -1.498  -0.747   0.946  0.00  0.00    +0.259 C 
ATOM     14  O   UNL     1      -2.125  -0.103   0.125  0.00  0.00    -0.269 OA
ATOM     15  C   UNL     1      -1.522  -2.219   0.937  0.00  0.00    +0.102 C 
ATOM     16  C   UNL     1      -2.259  -2.927  -0.004  0.00  0.00    +0.028 C 
ATOM     17  C   UNL     1      -0.728  -2.908   1.974  0.00  0.00    +0.276 C 
ATOM     18  N   UNL     1      -0.040  -2.160   2.852  0.00  0.00    -0.123 NA
ATOM     19  C   UNL     1      -0.052  -0.851   2.808  0.00  0.00    +0.335 C 
ATOM     20  O   UNL     1       0.671  -0.177   3.723  0.00  0.00    -0.250 OA
ATOM     21  O   UNL     1      -0.698  -4.125   2.032  0.00  0.00    -0.268 OA
ENDBRANCH   1  16
BRANCH   8  22
ATOM     22  O   UNL     1      -6.689  -6.330  -0.414  0.00  0.00    -0.507 OA
ATOM     23  H   UNL     1      -7.051  -6.242  -1.306  0.00  0.00    +0.292 HD
ENDBRANCH   8  22
TORSDOF 2
