REMARK  Name = ZINC39448859
REMARK  7 active torsions:
REMARK  status: ('A' for Active; 'I' for Inactive)
REMARK    1  A    between atoms: C_1  and  C_2
REMARK    2  A    between atoms: C_2  and  C_3
REMARK    3  A    between atoms: C_2  and  C_4
REMARK    4  A    between atoms: C_7  and  C_10
REMARK    5  A    between atoms: C_15  and  S_17
REMARK    6  A    between atoms: S_17  and  C_18
REMARK    7  A    between atoms: C_18  and  C_19
REMARK                            x       y       z     vdW  Elec       q    Type
REMARK                         _______ _______ _______ _____ _____    ______ ____
ROOT
ATOM      1  C   UNL     1      -5.419  -2.005   0.043  0.00  0.00    +0.200 C 
ATOM      2  N   UNL     1      -6.294  -1.049   0.731  0.00  0.00    -0.336 N 
ATOM      3  C   UNL     1      -6.929  -0.129   0.054  0.00  0.00    +0.190 C 
ATOM      4  N   UNL     1      -6.847  -0.045  -1.284  0.00  0.00    -0.195 NA
ATOM      5  C   UNL     1      -6.330  -1.032  -1.995  0.00  0.00    +0.159 C 
ATOM      6  N   UNL     1      -5.901  -2.162  -1.338  0.00  0.00    -0.300 N 
ATOM      7  N   UNL     1      -7.709   0.784   0.735  0.00  0.00    -0.329 N 
ATOM      8  H   UNL     1      -7.779   0.737   1.702  0.00  0.00    +0.145 HD
ATOM      9  H   UNL     1      -8.187   1.473   0.247  0.00  0.00    +0.145 HD
ATOM     10  H   UNL     1      -5.915  -3.031  -1.769  0.00  0.00    +0.150 HD
ATOM     11  H   UNL     1      -6.402  -1.100   1.694  0.00  0.00    +0.164 HD
ENDROOT
BRANCH   1  15
ATOM     12  C   UNL     1      -1.412  -0.526   0.013  0.00  0.00    -0.045 A 
ATOM     13  C   UNL     1      -2.259  -0.204   1.056  0.00  0.00    +0.004 A 
ATOM     14  C   UNL     1      -3.556  -0.683   1.066  0.00  0.00    +0.007 A 
ATOM     15  C   UNL     1      -4.006  -1.482   0.032  0.00  0.00    -0.007 A 
ATOM     16  C   UNL     1      -3.159  -1.803  -1.012  0.00  0.00    +0.007 A 
ATOM     17  C   UNL     1      -1.863  -1.321  -1.024  0.00  0.00    +0.004 A 
BRANCH  12  19
ATOM     18  C   UNL     1      -0.019   1.526   0.010  0.00  0.00    +0.012 C 
ATOM     19  C   UNL     1       0.002  -0.004   0.002  0.00  0.00    +0.013 C 
ATOM     20  C   UNL     1       0.742  -0.511   1.242  0.00  0.00    +0.012 C 
ENDBRANCH  12  19
ENDBRANCH   1  15
BRANCH   5  21
ATOM     21  S   UNL     1      -6.194  -0.903  -3.747  0.00  0.00    -0.081 S 
BRANCH  21  22
ATOM     22  C   UNL     1      -6.881   0.734  -4.121  0.00  0.00    +0.173 C 
BRANCH  22  23
ATOM     23  C   UNL     1      -6.824   0.974  -5.608  0.00  0.00    +0.234 C 
ATOM     24  O   UNL     1      -6.366   0.125  -6.343  0.00  0.00    -0.274 OA
ATOM     25  N   UNL     1      -7.283   2.133  -6.121  0.00  0.00    -0.239 N 
ATOM     26  C   UNL     1      -7.812   3.132  -5.292  0.00  0.00    +0.044 A 
ATOM     27  C   UNL     1      -7.010   3.619  -4.265  0.00  0.00    +0.024 A 
ATOM     28  C   UNL     1      -7.463   4.627  -3.441  0.00  0.00    +0.002 A 
ATOM     29  C   UNL     1      -8.725   5.152  -3.650  0.00  0.00    +0.000 A 
ATOM     30  C   UNL     1      -9.524   4.661  -4.656  0.00  0.00    +0.005 A 
ATOM     31  C   UNL     1      -9.092   3.627  -5.490  0.00  0.00    -0.025 A 
ATOM     32  C   UNL     1     -10.122   3.146  -6.486  0.00  0.00    +0.042 C 
ATOM     33  C   UNL     1      -9.647   1.971  -7.322  0.00  0.00    +0.042 C 
ATOM     34  C   UNL     1      -8.447   2.338  -8.158  0.00  0.00    -0.025 A 
ATOM     35  C   UNL     1      -7.241   2.380  -7.500  0.00  0.00    +0.044 A 
ATOM     36  C   UNL     1      -6.068   2.661  -8.178  0.00  0.00    +0.024 A 
ATOM     37  C   UNL     1      -6.134   2.929  -9.537  0.00  0.00    +0.002 A 
ATOM     38  C   UNL     1      -7.350   2.914 -10.195  0.00  0.00    +0.000 A 
ATOM     39  C   UNL     1      -8.530   2.613  -9.503  0.00  0.00    +0.005 A 
ENDBRANCH  22  23
ENDBRANCH  21  22
ENDBRANCH   5  21
TORSDOF 5
