REMARK  Name = ZINC25580392
REMARK  8 active torsions:
REMARK  status: ('A' for Active; 'I' for Inactive)
REMARK    1  A    between atoms: C_4  and  C_7
REMARK    2  A    between atoms: C_7  and  O_9
REMARK    3  A    between atoms: O_9  and  C_10
REMARK    4  A    between atoms: C_19  and  C_20
REMARK    5  A    between atoms: N_21  and  N_22
REMARK    6  A    between atoms: N_22  and  C_23
REMARK    7  A    between atoms: C_23  and  N_25
REMARK    8  A    between atoms: N_25  and  C_26
REMARK                            x       y       z     vdW  Elec       q    Type
REMARK                         _______ _______ _______ _____ _____    ______ ____
ROOT
ATOM      1  C   UNL     1       6.113  -0.547  -0.090  0.00  0.00    +0.141 A 
ATOM      2  C   UNL     1       6.162  -1.938  -0.169  0.00  0.00    +0.047 A 
ATOM      3  C   UNL     1       7.342  -2.611  -0.222  0.00  0.00    +0.012 A 
ATOM      4  C   UNL     1       8.566  -1.921  -0.187  0.00  0.00    -0.017 A 
ATOM      5  C   UNL     1       9.792  -2.607  -0.235  0.00  0.00    +0.008 A 
ATOM      6  C   UNL     1      10.958  -1.905  -0.199  0.00  0.00    +0.001 A 
ATOM      7  C   UNL     1      10.957  -0.515  -0.114  0.00  0.00    +0.001 A 
ATOM      8  C   UNL     1       9.787   0.182  -0.066  0.00  0.00    +0.009 A 
ATOM      9  C   UNL     1       8.568  -0.507  -0.101  0.00  0.00    -0.006 A 
ATOM     10  C   UNL     1       7.290   0.200  -0.051  0.00  0.00    +0.045 A 
ENDROOT
BRANCH  10  11
ATOM     11  C   UNL     1       7.247   1.667   0.038  0.00  0.00    +0.142 C 
ATOM     12  N   UNL     1       8.348   2.342   0.178  0.00  0.00    -0.188 NA
BRANCH  12  13
ATOM     13  N   UNL     1       8.299   3.729   0.373  0.00  0.00    -0.218 N 
ATOM     14  H   UNL     1       7.329   4.234   0.492  0.00  0.00    +0.176 HD
BRANCH  13  15
ATOM     15  C   UNL     1       9.441   4.444   0.415  0.00  0.00    +0.150 C 
ATOM     16  S   UNL     1       9.390   6.116   0.781  0.00  0.00    -0.017 S 
BRANCH  15  17
ATOM     17  N   UNL     1      10.621   3.844   0.168  0.00  0.00    -0.322 N 
ATOM     18  H   UNL     1      10.648   2.790  -0.147  0.00  0.00    +0.148 HD
BRANCH  17  19
ATOM     19  C   UNL     1      11.871   4.594   0.319  0.00  0.00    +0.072 C 
ATOM     20  C   UNL     1      12.118   5.431  -0.938  0.00  0.00    +0.022 C 
ATOM     21  C   UNL     1      13.423   6.214  -0.780  0.00  0.00    +0.002 C 
ATOM     22  C   UNL     1      14.584   5.237  -0.581  0.00  0.00    +0.000 C 
ATOM     23  C   UNL     1      14.336   4.401   0.676  0.00  0.00    +0.002 C 
ATOM     24  C   UNL     1      13.031   3.617   0.518  0.00  0.00    +0.022 C 
ENDBRANCH  17  19
ENDBRANCH  15  17
ENDBRANCH  13  15
ENDBRANCH  12  13
ENDBRANCH  10  11
BRANCH   1  25
ATOM     25  O   UNL     1       4.912   0.085  -0.044  0.00  0.00    -0.422 OA
BRANCH  25  26
ATOM     26  C   UNL     1       4.403   0.516  -1.215  0.00  0.00    +0.344 C 
ATOM     27  O   UNL     1       4.968   0.252  -2.257  0.00  0.00    -0.245 OA
BRANCH  26  31
ATOM     28  C   UNL     1       0.821   2.797  -1.260  0.00  0.00    +0.000 A 
ATOM     29  C   UNL     1       1.284   2.266  -0.070  0.00  0.00    +0.001 A 
ATOM     30  C   UNL     1       2.447   1.524  -0.048  0.00  0.00    +0.015 A 
ATOM     31  C   UNL     1       3.157   1.310  -1.231  0.00  0.00    +0.059 A 
ATOM     32  C   UNL     1       2.684   1.848  -2.429  0.00  0.00    +0.015 A 
ATOM     33  C   UNL     1       1.520   2.588  -2.437  0.00  0.00    +0.001 A 
ENDBRANCH  26  31
ENDBRANCH  25  26
ENDBRANCH   1  25
TORSDOF 8
