REMARK  Name = ZINC63980353
REMARK  4 active torsions:
REMARK  status: ('A' for Active; 'I' for Inactive)
REMARK    1  A    between atoms: C_7  and  C_10
REMARK    2  A    between atoms: C_10  and  C_11
REMARK    3  A    between atoms: C_11  and  N_12
REMARK    4  A    between atoms: C_26  and  C_28
REMARK                            x       y       z     vdW  Elec       q    Type
REMARK                         _______ _______ _______ _____ _____    ______ ____
ROOT
ATOM      1  N   UNL     1      -0.458  -4.798  -1.460  0.00  0.00    -0.274 N 
ATOM      2  C   UNL     1      -1.824  -4.578  -1.551  0.00  0.00    +0.076 C 
ATOM      3  C   UNL     1      -2.703  -5.535  -1.371  0.00  0.00    +0.020 C 
ATOM      4  C   UNL     1      -2.301  -6.938  -1.047  0.00  0.00    +0.171 C 
ATOM      5  C   UNL     1      -0.832  -7.153  -1.319  0.00  0.00    +0.057 C 
ATOM      6  H   UNL     1      -0.998 -10.356  -1.325  0.00  0.00    +0.154 HD
ATOM      7  C   UNL     1       0.042  -6.044  -1.376  0.00  0.00    +0.250 C 
ATOM      8  O   UNL     1       1.248  -6.215  -1.344  0.00  0.00    -0.270 OA
ATOM      9  C   UNL     1      -0.359  -8.398  -1.563  0.00  0.00    +0.086 C 
ATOM     10  N   UNL     1      -1.246  -9.461  -1.606  0.00  0.00    -0.290 N 
ATOM     11  C   UNL     1      -2.518  -9.153  -2.081  0.00  0.00    +0.219 A 
ATOM     12  N   UNL     1      -3.036  -7.917  -1.841  0.00  0.00    -0.221 N 
ATOM     13  N   UNL     1      -4.276  -7.888  -2.459  0.00  0.00    -0.147 NA
ATOM     14  C   UNL     1      -4.443  -9.068  -3.027  0.00  0.00    +0.183 A 
ATOM     15  N   UNL     1      -3.385  -9.829  -2.768  0.00  0.00    -0.193 NA
ENDROOT
BRANCH  14  16
ATOM     16  C   UNL     1      -5.637  -9.491  -3.801  0.00  0.00    +0.021 A 
ATOM     17  C   UNL     1      -6.701  -8.610  -3.980  0.00  0.00    +0.013 A 
ATOM     18  C   UNL     1      -7.809  -9.008  -4.700  0.00  0.00    +0.021 A 
ATOM     19  C   UNL     1      -7.864 -10.280  -5.244  0.00  0.00    +0.041 A 
ATOM     20  C   UNL     1      -6.809 -11.159  -5.068  0.00  0.00    +0.021 A 
ATOM     21  C   UNL     1      -5.694 -10.768  -4.354  0.00  0.00    +0.013 A 
ATOM     22 CL   UNL     1      -9.261 -10.774  -6.149  0.00  0.00    -0.084 Cl
ENDBRANCH  14  16
BRANCH   1  23
ATOM     23  C   UNL     1       0.457  -3.653  -1.462  0.00  0.00    +0.118 C 
BRANCH  23  24
ATOM     24  C   UNL     1       0.691  -3.186  -0.024  0.00  0.00    +0.052 C 
BRANCH  24  31
ATOM     25  C   UNL     1      -0.016   1.348   0.009  0.00  0.00    +0.001 A 
ATOM     26  C   UNL     1       1.166   2.101   0.002  0.00  0.00    +0.002 A 
ATOM     27  C   UNL     1       2.391   1.535  -0.013  0.00  0.00    +0.026 A 
ATOM     28  C   UNL     1       2.529   0.120  -0.022  0.00  0.00    +0.043 A 
ATOM     29  N   UNL     1       3.587  -0.654  -0.037  0.00  0.00    -0.380 N 
ATOM     30  C   UNL     1       3.143  -2.053  -0.041  0.00  0.00    +0.144 C 
ATOM     31  C   UNL     1       1.631  -2.008  -0.025  0.00  0.00    -0.040 C 
ATOM     32  C   UNL     1       1.295  -0.698  -0.014  0.00  0.00    -0.001 A 
ATOM     33  C   UNL     1       0.002  -0.004   0.002  0.00  0.00    +0.010 A 
ATOM     34  H   UNL     1       4.509  -0.353  -0.045  0.00  0.00    +0.160 HD
ENDBRANCH  24  31
ENDBRANCH  23  24
ENDBRANCH   1  23
TORSDOF 4
