REMARK  Name = ZINC35048277
REMARK  13 active torsions:
REMARK  status: ('A' for Active; 'I' for Inactive)
REMARK    1  A    between atoms: N_9  and  C_10
REMARK    2  A    between atoms: C_10  and  C_11
REMARK    3  A    between atoms: C_11  and  C_13
REMARK    4  A    between atoms: C_11  and  O_36
REMARK    5  A    between atoms: C_13  and  N_14
REMARK    6  A    between atoms: N_14  and  C_15
REMARK    7  A    between atoms: N_14  and  C_18
REMARK    8  A    between atoms: C_15  and  C_16
REMARK    9  A    between atoms: C_16  and  O_17
REMARK   10  A    between atoms: C_18  and  C_19
REMARK   11  A    between atoms: C_19  and  C_21
REMARK   12  A    between atoms: C_19  and  O_35
REMARK   13  A    between atoms: C_21  and  N_22
REMARK                            x       y       z     vdW  Elec       q    Type
REMARK                         _______ _______ _______ _____ _____    ______ ____
ROOT
ATOM      1  N   UNL     1       7.413   0.378   2.868  0.00  0.00    +0.385 N 
ATOM      2  H   UNL     1       6.500   0.808   2.855  0.00  0.00    -0.082 HD
ENDROOT
BRANCH   1   3
ATOM      3  C   UNL     1       7.601  -0.409   1.642  0.00  0.00    -0.045 C 
BRANCH   3   4
ATOM      4  C   UNL     1       6.447  -1.401   1.490  0.00  0.00    +0.118 C 
BRANCH   4   5
ATOM      5  O   UNL     1       6.538  -2.398   2.510  0.00  0.00    -0.392 OA
ATOM      6  H   UNL     1       7.359  -2.909   2.488  0.00  0.00    +0.210 HD
ENDBRANCH   4   5
BRANCH   4   7
ATOM      7  C   UNL     1       6.525  -2.069   0.116  0.00  0.00    +0.151 C 
BRANCH   7  16
ATOM      8  C   UNL     1       1.501  -2.279  -1.406  0.00  0.00    +0.001 A 
ATOM      9  C   UNL     1       2.328  -1.164  -1.372  0.00  0.00    +0.002 A 
ATOM     10  C   UNL     1       3.633  -1.270  -0.944  0.00  0.00    +0.026 A 
ATOM     11  C   UNL     1       4.130  -2.506  -0.542  0.00  0.00    +0.049 A 
ATOM     12  C   UNL     1       3.288  -3.632  -0.578  0.00  0.00    -0.000 A 
ATOM     13  C   UNL     1       1.969  -3.502  -1.016  0.00  0.00    +0.010 A 
ATOM     14  C   UNL     1       4.096  -4.757  -0.101  0.00  0.00    +0.027 A 
ATOM     15  C   UNL     1       5.316  -4.273   0.181  0.00  0.00    +0.087 A 
ATOM     16  N   UNL     1       5.355  -2.929  -0.076  0.00  0.00    -0.344 N 
ENDBRANCH   7  16
ENDBRANCH   4   7
ENDBRANCH   3   4
ENDBRANCH   1   3
BRANCH   1  17
ATOM     17  C   UNL     1       7.523  -0.503   4.038  0.00  0.00    -0.050 C 
BRANCH  17  18
ATOM     18  C   UNL     1       8.838  -1.282   3.967  0.00  0.00    +0.137 C 
BRANCH  18  19
ATOM     19  O   UNL     1       9.933  -0.390   4.186  0.00  0.00    -0.397 OA
ATOM     20  H   UNL     1      10.800  -0.816   4.155  0.00  0.00    +0.209 HD
ENDBRANCH  18  19
ENDBRANCH  17  18
ENDBRANCH   1  17
BRANCH   1  21
ATOM     21  C   UNL     1       8.444   1.422   2.942  0.00  0.00    -0.045 C 
BRANCH  21  22
ATOM     22  C   UNL     1       8.216   2.275   4.192  0.00  0.00    +0.118 C 
BRANCH  22  23
ATOM     23  O   UNL     1       6.948   2.926   4.100  0.00  0.00    -0.392 OA
ATOM     24  H   UNL     1       6.861   3.512   3.336  0.00  0.00    +0.210 HD
ENDBRANCH  22  23
BRANCH  22  25
ATOM     25  C   UNL     1       9.323   3.327   4.300  0.00  0.00    +0.151 C 
BRANCH  25  26
ATOM     26  N   UNL     1       9.174   4.064   5.557  0.00  0.00    -0.341 N 
ATOM     27  C   UNL     1       8.426   5.210   5.718  0.00  0.00    +0.050 A 
ATOM     28  C   UNL     1       7.646   5.972   4.853  0.00  0.00    +0.026 A 
ATOM     29  C   UNL     1       7.003   7.097   5.322  0.00  0.00    +0.002 A 
ATOM     30  C   UNL     1       7.125   7.479   6.651  0.00  0.00    +0.001 A 
ATOM     31  C   UNL     1       7.885   6.747   7.517  0.00  0.00    +0.010 A 
ATOM     32  C   UNL     1       8.546   5.602   7.065  0.00  0.00    +0.003 A 
ATOM     33  C   UNL     1       9.413   4.610   7.692  0.00  0.00    -0.019 A 
ATOM     34  C   UNL     1       9.752   3.715   6.745  0.00  0.00    +0.023 A 
ATOM     35  C   UNL     1      10.643   2.522   7.000  0.00  0.00    +0.054 C 
ATOM     36  C   UNL     1      11.390   2.745   8.320  0.00  0.00    +0.006 C 
ATOM     37  C   UNL     1      10.392   3.137   9.413  0.00  0.00    +0.005 C 
ATOM     38  C   UNL     1       9.866   4.552   9.129  0.00  0.00    +0.037 C 
ENDBRANCH  25  26
ENDBRANCH  22  25
ENDBRANCH  21  22
ENDBRANCH   1  21
TORSDOF 13
