REMARK  Name = ZINC41584921
REMARK  8 active torsions:
REMARK  status: ('A' for Active; 'I' for Inactive)
REMARK    1  A    between atoms: C_1  and  C_2
REMARK    2  A    between atoms: C_2  and  N_3
REMARK    3  A    between atoms: C_5  and  C_12
REMARK    4  A    between atoms: C_19  and  O_37
REMARK    5  A    between atoms: C_20  and  C_23
REMARK    6  A    between atoms: C_23  and  N_24
REMARK    7  A    between atoms: N_27  and  C_30
REMARK    8  A    between atoms: C_30  and  C_31
REMARK                            x       y       z     vdW  Elec       q    Type
REMARK                         _______ _______ _______ _____ _____    ______ ____
ROOT
ATOM      1  C   UNL     1       0.760  -1.669  -4.652  0.00  0.00    +0.060 C 
ATOM      2  C   UNL     1      -0.520  -1.823  -5.095  0.00  0.00    +0.176 C 
ATOM      3  C   UNL     1      -1.694  -1.484  -4.373  0.00  0.00    +0.231 C 
ATOM      4  O   UNL     1      -1.764  -1.004  -3.253  0.00  0.00    -0.283 OA
ATOM      5  C   UNL     1      -2.812  -1.834  -5.267  0.00  0.00    +0.068 A 
ATOM      6  C   UNL     1      -4.199  -1.747  -5.151  0.00  0.00    +0.019 A 
ATOM      7  C   UNL     1      -4.995  -2.164  -6.180  0.00  0.00    +0.046 A 
ATOM      8  C   UNL     1      -4.427  -2.676  -7.343  0.00  0.00    +0.122 A 
ATOM      9  C   UNL     1      -3.051  -2.768  -7.473  0.00  0.00    +0.020 A 
ATOM     10  C   UNL     1      -2.228  -2.348  -6.437  0.00  0.00    +0.144 A 
ATOM     11  O   UNL     1      -0.885  -2.321  -6.300  0.00  0.00    -0.451 OA
ENDROOT
BRANCH   1  14
ATOM     12  N   UNL     1       0.855  -1.114  -1.046  0.00  0.00    -0.346 N 
ATOM     13  C   UNL     1       0.330  -1.703  -2.149  0.00  0.00    +0.094 A 
ATOM     14  C   UNL     1       1.011  -1.274  -3.268  0.00  0.00    +0.004 A 
ATOM     15  C   UNL     1       2.044  -0.336  -2.788  0.00  0.00    +0.007 A 
ATOM     16  C   UNL     1       1.893  -0.274  -1.393  0.00  0.00    +0.050 A 
ATOM     17  C   UNL     1       2.737   0.547  -0.653  0.00  0.00    +0.026 A 
ATOM     18  C   UNL     1       3.707   1.290  -1.289  0.00  0.00    +0.002 A 
ATOM     19  C   UNL     1       3.853   1.230  -2.667  0.00  0.00    +0.001 A 
ATOM     20  C   UNL     1       3.031   0.416  -3.418  0.00  0.00    +0.010 A 
BRANCH  12  22
ATOM     21  C   UNL     1      -0.625  -0.244   0.696  0.00  0.00    +0.027 C 
ATOM     22  C   UNL     1       0.382  -1.334   0.323  0.00  0.00    +0.118 C 
ENDBRANCH  12  22
ENDBRANCH   1  14
BRANCH   8  23
ATOM     23  O   UNL     1      -5.228  -3.088  -8.359  0.00  0.00    -0.506 OA
ATOM     24  H   UNL     1      -5.438  -2.396  -9.000  0.00  0.00    +0.292 HD
ENDBRANCH   8  23
BRANCH   9  25
ATOM     25  C   UNL     1      -2.448  -3.325  -8.737  0.00  0.00    -0.035 C 
BRANCH  25  26
ATOM     26  N   UNL     1      -2.217  -2.232  -9.692  0.00  0.00    +0.384 N 
ATOM     27  C   UNL     1      -3.507  -1.655 -10.095  0.00  0.00    -0.063 C 
ATOM     28  C   UNL     1      -3.266  -0.505 -11.075  0.00  0.00    +0.066 C 
ATOM     29  N   UNL     1      -2.546  -1.011 -12.253  0.00  0.00    -0.302 NA
ATOM     30  C   UNL     1      -1.264  -1.614 -11.861  0.00  0.00    +0.066 C 
ATOM     31  C   UNL     1      -1.521  -2.755 -10.875  0.00  0.00    -0.063 C 
ATOM     32  H   UNL     1      -1.652  -1.519  -9.257  0.00  0.00    -0.081 HD
BRANCH  29  33
ATOM     33  C   UNL     1      -2.346   0.054 -13.245  0.00  0.00    +0.119 C 
BRANCH  33  34
ATOM     34  C   UNL     1      -1.831  -0.545 -14.528  0.00  0.00    -0.033 A 
ATOM     35  C   UNL     1      -0.470  -0.680 -14.731  0.00  0.00    +0.005 A 
ATOM     36  C   UNL     1       0.002  -1.230 -15.908  0.00  0.00    +0.000 A 
ATOM     37  C   UNL     1      -0.887  -1.645 -16.882  0.00  0.00    +0.000 A 
ATOM     38  C   UNL     1      -2.247  -1.511 -16.679  0.00  0.00    +0.000 A 
ATOM     39  C   UNL     1      -2.720  -0.965 -15.500  0.00  0.00    +0.005 A 
ENDBRANCH  33  34
ENDBRANCH  29  33
ENDBRANCH  25  26
ENDBRANCH   9  25
TORSDOF 7
