REMARK  Name = ZINC08766266
REMARK  7 active torsions:
REMARK  status: ('A' for Active; 'I' for Inactive)
REMARK    1  A    between atoms: C_1  and  C_2
REMARK    2  A    between atoms: C_2  and  C_3
REMARK    3  A    between atoms: C_9  and  C_10
REMARK    4  A    between atoms: C_9  and  N_61
REMARK    5  A    between atoms: C_11  and  O_35
REMARK    6  A    between atoms: C_17  and  C_31
REMARK    7  A    between atoms: C_18  and  C_21
REMARK                            x       y       z     vdW  Elec       q    Type
REMARK                         _______ _______ _______ _____ _____    ______ ____
ROOT
ATOM      1  C   UNL     1      -1.342   5.006   0.175  0.00  0.00    +0.020 A 
ATOM      2  C   UNL     1      -2.412   5.770  -0.258  0.00  0.00    +0.122 A 
ATOM      3  C   UNL     1      -2.386   7.158  -0.140  0.00  0.00    +0.046 A 
ATOM      4  C   UNL     1      -1.301   7.783   0.407  0.00  0.00    +0.019 A 
ATOM      5  C   UNL     1      -0.215   7.026   0.848  0.00  0.00    +0.065 A 
ATOM      6  C   UNL     1      -0.234   5.625   0.738  0.00  0.00    +0.144 A 
ATOM      7  O   UNL     1       0.813   4.894   1.170  0.00  0.00    -0.450 OA
ATOM      8  C   UNL     1       1.905   5.431   1.720  0.00  0.00    +0.219 A 
ATOM      9  C   UNL     1       2.053   6.772   1.893  0.00  0.00    +0.077 A 
ATOM     10  C   UNL     1       0.971   7.667   1.443  0.00  0.00    +0.201 A 
ATOM     11  O   UNL     1       1.048   8.876   1.571  0.00  0.00    -0.286 OA
ENDROOT
BRANCH   9  12
ATOM     12  C   UNL     1       3.282   7.323   2.507  0.00  0.00    -0.003 A 
ATOM     13  C   UNL     1       4.368   7.661   1.718  0.00  0.00    +0.009 A 
ATOM     14  C   UNL     1       5.523   8.183   2.288  0.00  0.00    +0.001 A 
ATOM     15  C   UNL     1       5.624   8.368   3.634  0.00  0.00    +0.008 A 
ATOM     16  C   UNL     1       4.547   8.033   4.473  0.00  0.00    -0.017 A 
ATOM     17  C   UNL     1       3.361   7.504   3.909  0.00  0.00    -0.010 A 
ATOM     18  C   UNL     1       2.288   7.170   4.748  0.00  0.00    +0.009 A 
ATOM     19  C   UNL     1       2.399   7.357   6.092  0.00  0.00    +0.001 A 
ATOM     20  C   UNL     1       3.565   7.877   6.649  0.00  0.00    +0.001 A 
ATOM     21  C   UNL     1       4.626   8.213   5.865  0.00  0.00    +0.008 A 
ENDBRANCH   9  12
BRANCH   8  22
ATOM     22  C   UNL     1       3.016   4.516   2.168  0.00  0.00    +0.451 C 
ATOM     23  F   UNL     1       2.803   4.142   3.499  0.00  0.00    -0.163 F 
ATOM     24  F   UNL     1       3.034   3.375   1.359  0.00  0.00    -0.163 F 
ATOM     25  F   UNL     1       4.241   5.183   2.061  0.00  0.00    -0.163 F 
ENDBRANCH   8  22
BRANCH   2  26
ATOM     26  O   UNL     1      -3.496   5.162  -0.804  0.00  0.00    -0.506 OA
ATOM     27  H   UNL     1      -4.178   4.924  -0.162  0.00  0.00    +0.292 HD
ENDBRANCH   2  26
BRANCH   1  28
ATOM     28  C   UNL     1      -1.382   3.505   0.041  0.00  0.00    -0.035 C 
BRANCH  28  34
ATOM     29  C   UNL     1      -0.707   1.654  -1.365  0.00  0.00    -0.068 C 
ATOM     30  C   UNL     1       0.015   1.290  -2.664  0.00  0.00    -0.015 C 
ATOM     31  C   UNL     1      -0.770   1.849  -3.853  0.00  0.00    -0.003 C 
ATOM     32  C   UNL     1      -0.913   3.365  -3.693  0.00  0.00    -0.019 C 
ATOM     33  C   UNL     1      -1.609   3.669  -2.364  0.00  0.00    -0.078 C 
ATOM     34  N   UNL     1      -0.790   3.126  -1.259  0.00  0.00    +0.384 N 
ATOM     35  H   UNL     1       0.156   3.519  -1.321  0.00  0.00    -0.081 HD
BRANCH  29  37
ATOM     36  C   UNL     1       0.143  -0.413  -0.248  0.00  0.00    +0.002 C 
ATOM     37  C   UNL     1       0.085   1.114  -0.173  0.00  0.00    -0.019 C 
ENDBRANCH  29  37
ENDBRANCH  28  34
ENDBRANCH   1  28
TORSDOF 6
