REMARK  Name = ZINC04905412
REMARK  7 active torsions:
REMARK  status: ('A' for Active; 'I' for Inactive)
REMARK    1  A    between atoms: C_1  and  C_2
REMARK    2  A    between atoms: C_8  and  C_13
REMARK    3  A    between atoms: C_9  and  C_12
REMARK    4  A    between atoms: C_13  and  C_14
REMARK    5  A    between atoms: C_14  and  N_15
REMARK    6  A    between atoms: N_17  and  C_18
REMARK    7  A    between atoms: C_21  and  C_24
REMARK                            x       y       z     vdW  Elec       q    Type
REMARK                         _______ _______ _______ _____ _____    ______ ____
ROOT
ATOM      1  N   UNL     1      -1.352  -3.682   6.240  0.00  0.00    -0.367 N 
ATOM      2  C   UNL     1      -2.517  -3.064   6.597  0.00  0.00    +0.143 C 
ATOM      3  N   UNL     1      -2.554  -2.259   7.702  0.00  0.00    -0.295 N 
ATOM      4  S   UNL     1      -3.889  -3.293   5.690  0.00  0.00    -0.016 SA
ATOM      5  H   UNL     1      -1.744  -1.826   8.014  0.00  0.00    +0.154 HD
ATOM      6  H   UNL     1      -0.550  -3.548   6.770  0.00  0.00    +0.161 HD
ENDROOT
BRANCH   3   7
ATOM      7  C   UNL     1      -3.760  -2.058   8.382  0.00  0.00    +0.033 A 
ATOM      8  C   UNL     1      -4.028  -0.833   8.978  0.00  0.00    +0.024 A 
ATOM      9  C   UNL     1      -5.220  -0.638   9.648  0.00  0.00    +0.014 A 
ATOM     10  C   UNL     1      -6.146  -1.662   9.726  0.00  0.00    +0.055 A 
ATOM     11  C   UNL     1      -5.883  -2.884   9.133  0.00  0.00    +0.014 A 
ATOM     12  C   UNL     1      -4.695  -3.083   8.457  0.00  0.00    +0.024 A 
BRANCH  10  13
ATOM     13  C   UNL     1      -7.445  -1.447  10.459  0.00  0.00    +0.417 C 
ATOM     14  F   UNL     1      -8.407  -0.958   9.568  0.00  0.00    -0.166 F 
ATOM     15  F   UNL     1      -7.883  -2.661  10.999  0.00  0.00    -0.166 F 
ATOM     16  F   UNL     1      -7.251  -0.521  11.489  0.00  0.00    -0.166 F 
ENDBRANCH  10  13
ENDBRANCH   3   7
BRANCH   1  17
ATOM     17  C   UNL     1      -1.312  -4.545   5.057  0.00  0.00    +0.119 C 
BRANCH  17  18
ATOM     18  C   UNL     1       0.100  -5.107   4.882  0.00  0.00    +0.058 C 
BRANCH  18  26
ATOM     19  C   UNL     1       1.372  -2.987  -0.285  0.00  0.00    +0.044 C 
ATOM     20  C   UNL     1       1.018  -4.304   0.356  0.00  0.00    -0.050 A 
ATOM     21  C   UNL     1       0.937  -5.449  -0.424  0.00  0.00    +0.005 A 
ATOM     22  C   UNL     1       0.614  -6.663   0.142  0.00  0.00    +0.026 A 
ATOM     23  C   UNL     1       0.367  -6.744   1.509  0.00  0.00    +0.047 A 
ATOM     24  C   UNL     1       0.451  -5.581   2.295  0.00  0.00    +0.003 A 
ATOM     25  C   UNL     1       0.784  -4.362   1.701  0.00  0.00    +0.013 A 
ATOM     26  C   UNL     1       0.141  -5.995   3.665  0.00  0.00    -0.018 A 
ATOM     27  C   UNL     1      -0.100  -7.315   3.631  0.00  0.00    +0.017 A 
ATOM     28  N   UNL     1       0.030  -7.780   2.351  0.00  0.00    -0.358 N 
ATOM     29  H   UNL     1      -0.095  -8.702   2.078  0.00  0.00    +0.166 HD
ATOM     30  C   UNL     1      -0.461  -8.159   4.826  0.00  0.00    +0.063 C 
ENDBRANCH  18  26
ENDBRANCH  17  18
ENDBRANCH   1  17
TORSDOF 5
