REMARK  Name = ZINC40587468
REMARK  12 active torsions:
REMARK  status: ('A' for Active; 'I' for Inactive)
REMARK    1  A    between atoms: C_1  and  C_2
REMARK    2  A    between atoms: C_2  and  N_3
REMARK    3  A    between atoms: N_3  and  C_4
REMARK    4  A    between atoms: C_4  and  C_5
REMARK    5  A    between atoms: C_5  and  O_6
REMARK    6  A    between atoms: C_8  and  N_33
REMARK    7  A    between atoms: C_9  and  N_13
REMARK    8  A    between atoms: N_13  and  C_14
REMARK    9  A    between atoms: C_17  and  C_21
REMARK   10  A    between atoms: C_19  and  C_20
REMARK   11  A    between atoms: C_21  and  C_23
REMARK   12  A    between atoms: C_21  and  C_25
REMARK                            x       y       z     vdW  Elec       q    Type
REMARK                         _______ _______ _______ _____ _____    ______ ____
ROOT
ATOM      1  N   UNL     1      -2.951  -0.759  -4.114  0.00  0.00    -0.297 N 
ATOM      2  H   UNL     1      -2.926   0.101  -3.665  0.00  0.00    +0.154 HD
ENDROOT
BRANCH   1   3
ATOM      3  C   UNL     1      -4.040  -1.092  -4.925  0.00  0.00    +0.037 A 
ATOM      4  C   UNL     1      -3.866  -1.944  -6.008  0.00  0.00    +0.043 A 
ATOM      5  C   UNL     1      -4.945  -2.272  -6.807  0.00  0.00    +0.047 A 
ATOM      6  C   UNL     1      -6.197  -1.751  -6.529  0.00  0.00    -0.008 A 
ATOM      7  C   UNL     1      -6.372  -0.903  -5.451  0.00  0.00    +0.011 A 
ATOM      8  C   UNL     1      -5.299  -0.577  -4.645  0.00  0.00    -0.029 A 
ATOM      9  C   UNL     1      -5.493   0.343  -3.467  0.00  0.00    +0.045 C 
ATOM     10 CL   UNL     1      -4.729  -3.336  -8.161  0.00  0.00    -0.083 Cl
BRANCH   6  11
ATOM     11  C   UNL     1      -7.371  -2.110  -7.402  0.00  0.00    +0.153 C 
BRANCH  11  12
ATOM     12  C   UNL     1      -7.852  -0.879  -8.128  0.00  0.00    -0.026 A 
ATOM     13  C   UNL     1      -8.409   0.168  -7.418  0.00  0.00    +0.006 A 
ATOM     14  C   UNL     1      -8.850   1.297  -8.082  0.00  0.00    +0.020 A 
ATOM     15  C   UNL     1      -8.733   1.379  -9.459  0.00  0.00    +0.041 A 
ATOM     16  C   UNL     1      -8.175   0.330 -10.168  0.00  0.00    +0.020 A 
ATOM     17  C   UNL     1      -7.730  -0.795  -9.502  0.00  0.00    +0.006 A 
ATOM     18 CL   UNL     1      -9.287   2.796 -10.294  0.00  0.00    -0.084 Cl
ENDBRANCH  11  12
BRANCH  11  19
ATOM     19  C   UNL     1      -8.460  -2.643  -6.567  0.00  0.00    +0.075 C 
ATOM     20  N   UNL     1      -9.300  -3.055  -5.922  0.00  0.00    -0.196 NA
ENDBRANCH  11  19
ENDBRANCH   6  11
ENDBRANCH   1   3
BRANCH   1  24
ATOM     21  N   UNL     1       1.426  -1.904  -2.442  0.00  0.00    -0.311 N 
ATOM     22  C   UNL     1       0.262  -2.224  -3.124  0.00  0.00    +0.157 A 
ATOM     23  C   UNL     1      -0.758  -1.286  -3.259  0.00  0.00    +0.206 A 
ATOM     24  C   UNL     1      -1.905  -1.656  -3.953  0.00  0.00    +0.159 A 
ATOM     25  N   UNL     1      -1.986  -2.886  -4.460  0.00  0.00    -0.218 NA
ATOM     26  C   UNL     1      -0.998  -3.744  -4.311  0.00  0.00    +0.225 A 
ATOM     27  N   UNL     1       0.106  -3.430  -3.665  0.00  0.00    -0.218 NA
BRANCH  23  28
ATOM     28  N   UNL     1      -0.625   0.069  -2.679  0.00  0.00    +0.063 N 
ATOM     29  O   UNL     1      -0.002   0.921  -3.268  0.00  0.00    -0.126 OA
ATOM     30  O   UNL     1      -1.140   0.324  -1.615  0.00  0.00    -0.126 OA
ENDBRANCH  23  28
BRANCH  21  32
ATOM     31  C   UNL     1       0.931  -1.224  -0.145  0.00  0.00    +0.024 C 
ATOM     32  C   UNL     1       1.579  -2.286  -1.036  0.00  0.00    +0.103 C 
ENDBRANCH  21  32
BRANCH  21  33
ATOM     33  C   UNL     1       2.502  -1.183  -3.126  0.00  0.00    +0.134 C 
BRANCH  33  34
ATOM     34  C   UNL     1       3.460  -2.188  -3.770  0.00  0.00    +0.174 C 
BRANCH  34  35
ATOM     35  O   UNL     1       2.775  -2.909  -4.796  0.00  0.00    -0.393 OA
ATOM     36  H   UNL     1       3.322  -3.565  -5.248  0.00  0.00    +0.209 HD
ENDBRANCH  34  35
ENDBRANCH  33  34
ENDBRANCH  21  33
ENDBRANCH   1  24
TORSDOF 10
