REMARK  Name = ZINC03242633
REMARK  6 active torsions:
REMARK  status: ('A' for Active; 'I' for Inactive)
REMARK    1  A    between atoms: C_4  and  C_7
REMARK    2  A    between atoms: C_7  and  C_8
REMARK    3  A    between atoms: C_7  and  N_73
REMARK    4  A    between atoms: C_19  and  C_21
REMARK    5  A    between atoms: C_23  and  S_28
REMARK    6  A    between atoms: S_28  and  N_31
REMARK                            x       y       z     vdW  Elec       q    Type
REMARK                         _______ _______ _______ _____ _____    ______ ____
ROOT
ATOM      1  C   UNL     1      -0.885   0.039   2.261  0.00  0.00    -0.058 C 
ATOM      2  C   UNL     1      -2.095  -0.372   3.107  0.00  0.00    +0.089 C 
ATOM      3  N   UNL     1      -2.235  -1.835   3.042  0.00  0.00    -0.301 N 
ATOM      4  C   UNL     1      -2.248  -2.474   1.717  0.00  0.00    +0.089 C 
ATOM      5  C   UNL     1      -1.033  -1.980   0.925  0.00  0.00    -0.058 C 
ATOM      6  C   UNL     1      -2.348  -2.570   4.166  0.00  0.00    +0.248 C 
ATOM      7  O   UNL     1      -2.563  -3.764   4.092  0.00  0.00    -0.270 OA
ATOM      8  N   UNL     1      -1.055  -0.501   0.895  0.00  0.00    +0.389 N 
ATOM      9  H   UNL     1      -1.961  -0.190   0.524  0.00  0.00    -0.080 HD
ENDROOT
BRANCH   6  10
ATOM     10  C   UNL     1      -2.209  -1.925   5.488  0.00  0.00    +0.057 A 
ATOM     11  C   UNL     1      -1.067  -1.178   5.787  0.00  0.00    +0.043 A 
ATOM     12  C   UNL     1      -0.946  -0.574   7.021  0.00  0.00    +0.106 A 
ATOM     13  C   UNL     1      -1.948  -0.715   7.966  0.00  0.00    +0.030 A 
ATOM     14  C   UNL     1      -3.079  -1.457   7.679  0.00  0.00    +0.022 A 
ATOM     15  C   UNL     1      -3.216  -2.063   6.445  0.00  0.00    +0.053 A 
ATOM     16 CL   UNL     1      -4.636  -2.995   6.086  0.00  0.00    -0.083 Cl
BRANCH  12  17
ATOM     17  S   UNL     1       0.491   0.372   7.399  0.00  0.00    +0.061 S 
ATOM     18  O   UNL     1       1.031   0.804   6.157  0.00  0.00    -0.153 OA
ATOM     19  O   UNL     1       0.120   1.282   8.425  0.00  0.00    -0.153 OA
BRANCH  17  20
ATOM     20  N   UNL     1       1.599  -0.663   8.062  0.00  0.00    -0.172 NA
ATOM     21  C   UNL     1       1.656  -0.896   9.515  0.00  0.00    +0.114 C 
ATOM     22  C   UNL     1       1.303  -2.367   9.763  0.00  0.00    +0.052 C 
ATOM     23  C   UNL     1       2.077  -3.267   8.837  0.00  0.00    -0.042 A 
ATOM     24  C   UNL     1       2.201  -4.605   9.194  0.00  0.00    +0.004 A 
ATOM     25  C   UNL     1       2.886  -5.486   8.384  0.00  0.00    +0.000 A 
ATOM     26  C   UNL     1       3.456  -5.038   7.207  0.00  0.00    +0.000 A 
ATOM     27  C   UNL     1       3.338  -3.710   6.853  0.00  0.00    +0.005 A 
ATOM     28  C   UNL     1       2.651  -2.821   7.668  0.00  0.00    -0.028 A 
ATOM     29  C   UNL     1       2.568  -1.381   7.227  0.00  0.00    +0.144 C 
ENDBRANCH  17  20
ENDBRANCH  12  17
ENDBRANCH   6  10
BRANCH   8  30
ATOM     30  C   UNL     1       0.021   0.001   0.016  0.00  0.00    -0.007 C 
BRANCH  30  34
ATOM     31  C   UNL     1      -0.055   4.272   0.033  0.00  0.00    +0.000 A 
ATOM     32  C   UNL     1       1.154   3.602   0.028  0.00  0.00    +0.000 A 
ATOM     33  C   UNL     1       1.179   2.220   0.022  0.00  0.00    +0.002 A 
ATOM     34  C   UNL     1      -0.006   1.508   0.022  0.00  0.00    -0.057 A 
ATOM     35  C   UNL     1      -1.215   2.177   0.022  0.00  0.00    +0.002 A 
ATOM     36  C   UNL     1      -1.240   3.559   0.033  0.00  0.00    +0.000 A 
ENDBRANCH  30  34
BRANCH  30  37
ATOM     37  C   UNL     1      -0.220  -0.500  -1.385  0.00  0.00    -0.057 A 
ATOM     38  C   UNL     1      -1.508  -0.560  -1.885  0.00  0.00    +0.002 A 
ATOM     39  C   UNL     1      -1.728  -1.015  -3.172  0.00  0.00    +0.000 A 
ATOM     40  C   UNL     1      -0.663  -1.419  -3.955  0.00  0.00    +0.000 A 
ATOM     41  C   UNL     1       0.624  -1.364  -3.452  0.00  0.00    +0.000 A 
ATOM     42  C   UNL     1       0.845  -0.904  -2.168  0.00  0.00    +0.002 A 
ENDBRANCH  30  37
ENDBRANCH   8  30
TORSDOF 6
