REMARK  Name = ZINC36704414
REMARK  12 active torsions:
REMARK  status: ('A' for Active; 'I' for Inactive)
REMARK    1  A    between atoms: C_1  and  C_2
REMARK    2  A    between atoms: C_2  and  N_3
REMARK    3  A    between atoms: N_3  and  C_4
REMARK    4  A    between atoms: N_3  and  C_6
REMARK    5  A    between atoms: C_4  and  C_5
REMARK    6  A    between atoms: C_6  and  C_7
REMARK    7  A    between atoms: C_7  and  N_8
REMARK    8  A    between atoms: C_12  and  C_19
REMARK    9  A    between atoms: C_13  and  C_18
REMARK   10  A    between atoms: C_20  and  C_22
REMARK   11  A    between atoms: N_27  and  S_28
REMARK   12  A    between atoms: S_28  and  C_31
REMARK                            x       y       z     vdW  Elec       q    Type
REMARK                         _______ _______ _______ _____ _____    ______ ____
ROOT
ATOM      1  N   UNL     1      -0.870  -4.236  -1.073  0.00  0.00    -0.251 N 
ATOM      2  C   UNL     1      -0.858  -4.973   0.100  0.00  0.00    +0.168 A 
ATOM      3  N   UNL     1      -0.836  -6.276   0.253  0.00  0.00    -0.224 NA
ATOM      4  C   UNL     1      -0.827  -6.865   1.469  0.00  0.00    +0.083 A 
ATOM      5  C   UNL     1      -0.803  -8.246   1.770  0.00  0.00    -0.021 A 
ATOM      6  C   UNL     1      -0.797  -8.679   3.070  0.00  0.00    -0.045 A 
ATOM      7  C   UNL     1      -0.814  -7.786   4.132  0.00  0.00    +0.005 A 
ATOM      8  C   UNL     1      -0.838  -6.427   3.874  0.00  0.00    +0.017 A 
ATOM      9  C   UNL     1      -0.843  -5.985   2.575  0.00  0.00    +0.041 A 
ATOM     10  S   UNL     1      -0.863  -4.391   1.790  0.00  0.00    -0.052 S 
ATOM     11  C   UNL     1      -0.772 -10.159   3.353  0.00  0.00    +0.044 C 
ATOM     12  C   UNL     1      -0.784  -9.253   0.649  0.00  0.00    +0.046 C 
ATOM     13  C   UNL     1      -0.966  -4.863  -2.262  0.00  0.00    +0.240 C 
ATOM     14  O   UNL     1      -0.889  -4.226  -3.292  0.00  0.00    -0.273 OA
ENDROOT
BRANCH  13  15
ATOM     15  C   UNL     1      -1.169  -6.356  -2.313  0.00  0.00    +0.166 C 
ATOM     16  C   UNL     1      -2.647  -6.694  -2.023  0.00  0.00    +0.031 C 
ATOM     17  C   UNL     1      -3.249  -6.864  -3.442  0.00  0.00    +0.019 C 
ATOM     18  C   UNL     1      -2.067  -7.509  -4.207  0.00  0.00    +0.110 C 
ATOM     19  N   UNL     1      -0.859  -6.857  -3.660  0.00  0.00    -0.164 NA
BRANCH  19  20
ATOM     20  S   UNL     1       0.598  -6.712  -4.432  0.00  0.00    +0.068 S 
ATOM     21  O   UNL     1       0.330  -6.797  -5.825  0.00  0.00    -0.152 OA
ATOM     22  O   UNL     1       1.257  -5.595  -3.850  0.00  0.00    -0.152 OA
BRANCH  20  23
ATOM     23  C   UNL     1       1.553  -8.133  -4.014  0.00  0.00    +0.143 A 
ATOM     24  C   UNL     1       1.627  -9.328  -4.650  0.00  0.00    +0.036 A 
ATOM     25  C   UNL     1       2.454 -10.310  -4.137  0.00  0.00    +0.010 A 
ATOM     26  C   UNL     1       3.165 -10.049  -3.013  0.00  0.00    +0.047 A 
ATOM     27  S   UNL     1       2.678  -8.370  -2.649  0.00  0.00    -0.077 S 
ENDBRANCH  20  23
ENDBRANCH  19  20
ENDBRANCH  13  15
BRANCH   1  28
ATOM     28  C   UNL     1      -0.778  -2.775  -1.021  0.00  0.00    +0.097 C 
BRANCH  28  29
ATOM     29  C   UNL     1       0.683  -2.350  -1.184  0.00  0.00    -0.059 C 
BRANCH  29  30
ATOM     30  N   UNL     1       0.785  -0.889  -1.061  0.00  0.00    +0.380 N 
ATOM     31  H   UNL     1       0.162  -0.452  -1.723  0.00  0.00    -0.082 HD
BRANCH  30  33
ATOM     32  C   UNL     1       0.379   1.041   0.391  0.00  0.00    -0.017 C 
ATOM     33  C   UNL     1       0.412  -0.486   0.302  0.00  0.00    -0.082 C 
ENDBRANCH  30  33
BRANCH  30  34
ATOM     34  C   UNL     1       2.165  -0.470  -1.335  0.00  0.00    -0.082 C 
ATOM     35  C   UNL     1       2.504  -0.757  -2.800  0.00  0.00    -0.017 C 
ENDBRANCH  30  34
ENDBRANCH  29  30
ENDBRANCH  28  29
ENDBRANCH   1  28
TORSDOF 8
