REMARK  Name = ZINC65393818
REMARK  1 active torsions:
REMARK  status: ('A' for Active; 'I' for Inactive)
REMARK    1  A    between atoms: C_4  and  C_12
REMARK                            x       y       z     vdW  Elec       q    Type
REMARK                         _______ _______ _______ _____ _____    ______ ____
ROOT
ATOM      1  C   UNL     1      -0.018   1.509   0.010  0.00  0.00    +0.067 C 
ATOM      2  C   UNL     1       1.451   1.956  -0.001  0.00  0.00    +0.087 C 
ATOM      3  N   UNL     1       2.341   0.842  -0.318  0.00  0.00    -0.307 NA
ATOM      4  C   UNL     1       1.949   0.028  -1.469  0.00  0.00    +0.107 C 
ATOM      5  C   UNL     1       0.678  -0.756  -1.140  0.00  0.00    +0.121 C 
ATOM      6  C   UNL     1       0.002  -0.004   0.002  0.00  0.00    +0.035 C 
ATOM      7  N   UNL     1      -0.439  -0.829   0.852  0.00  0.00    -0.276 NA
ATOM      8  C   UNL     1      -0.115  -2.207   0.450  0.00  0.00    +0.225 C 
ATOM      9  N   UNL     1       0.969  -2.089  -0.580  0.00  0.00    -0.288 NA
ATOM     10  H   UNL     1       3.296   1.155  -0.406  0.00  0.00    +0.123 HD
ATOM     11  H   UNL     1       0.890  -2.804  -1.287  0.00  0.00    +0.124 HD
ENDROOT
BRANCH   4  12
ATOM     12  C   UNL     1       3.059  -0.935  -1.802  0.00  0.00    -0.028 C 
ATOM     13  C   UNL     1       3.587  -0.959  -3.063  0.00  0.00    +0.011 C 
ATOM     14  C   UNL     1       4.656  -1.855  -3.247  0.00  0.00    -0.018 C 
ATOM     15  C   UNL     1       5.087  -2.560  -4.305  0.00  0.00    +0.025 C 
ATOM     16  C   UNL     1       6.019  -3.530  -3.872  0.00  0.00    +0.106 C 
ATOM     17  N   UNL     1       6.304  -3.405  -2.607  0.00  0.00    -0.279 NA
ATOM     18  C   UNL     1       5.583  -2.245  -2.106  0.00  0.00    +0.158 C 
ATOM     19  C   UNL     1       4.732  -2.493  -0.897  0.00  0.00    +0.004 C 
ATOM     20  C   UNL     1       3.573  -1.839  -0.777  0.00  0.00    +0.003 C 
ENDBRANCH   4  12
TORSDOF 1
