REMARK  Name = ZINC31046906
REMARK  10 active torsions:
REMARK  status: ('A' for Active; 'I' for Inactive)
REMARK    1  A    between atoms: C_6  and  C_7
REMARK    2  A    between atoms: C_7  and  S_8
REMARK    3  A    between atoms: S_8  and  C_9
REMARK    4  A    between atoms: C_9  and  C_10
REMARK    5  A    between atoms: C_10  and  C_11
REMARK    6  A    between atoms: C_11  and  N_12
REMARK    7  A    between atoms: C_13  and  C_15
REMARK    8  A    between atoms: N_20  and  C_22
REMARK    9  A    between atoms: C_22  and  C_23
REMARK   10  A    between atoms: C_25  and  C_28
REMARK                            x       y       z     vdW  Elec       q    Type
REMARK                         _______ _______ _______ _____ _____    ______ ____
ROOT
ATOM      1  C   UNL     1       9.739  -0.988   2.773  0.00  0.00    +0.058 C 
ATOM      2  C   UNL     1       9.082  -2.043   3.668  0.00  0.00    +0.009 C 
ATOM      3  C   UNL     1       7.560  -1.900   3.579  0.00  0.00    -0.018 C 
ATOM      4  C   UNL     1       7.122  -2.046   2.120  0.00  0.00    -0.078 C 
ATOM      5  N   UNL     1       7.777  -1.014   1.306  0.00  0.00    +0.386 N 
ATOM      6  C   UNL     1       9.238  -1.161   1.337  0.00  0.00    -0.065 C 
ATOM      7  H   UNL     1       7.529  -0.035   1.742  0.00  0.00    -0.081 HD
ENDROOT
BRANCH   1   9
ATOM      8  N   UNL     1      11.899  -1.050   3.977  0.00  0.00    -0.315 N 
ATOM      9  C   UNL     1      11.235  -1.160   2.808  0.00  0.00    +0.214 C 
ATOM     10  O   UNL     1      11.843  -1.397   1.786  0.00  0.00    -0.276 OA
ATOM     11  H   UNL     1      11.348  -0.835   4.904  0.00  0.00    +0.149 HD
BRANCH   8  12
ATOM     12  C   UNL     1      13.354  -1.217   4.011  0.00  0.00    +0.105 C 
BRANCH  12  13
ATOM     13  C   UNL     1      13.853  -1.045   5.447  0.00  0.00    +0.029 C 
BRANCH  13  14
ATOM     14  C   UNL     1      15.373  -1.219   5.483  0.00  0.00    +0.071 C 
BRANCH  14  15
ATOM     15  S   UNL     1      15.965  -1.014   7.185  0.00  0.00    -0.156 S 
BRANCH  15  16
ATOM     16  C   UNL     1      17.759  -1.248   7.057  0.00  0.00    +0.104 C 
BRANCH  16  22
ATOM     17  C   UNL     1      18.815   0.138   8.854  0.00  0.00    +0.006 A 
ATOM     18  C   UNL     1      19.383   0.274  10.106  0.00  0.00    +0.020 A 
ATOM     19  C   UNL     1      19.531  -0.834  10.922  0.00  0.00    +0.041 A 
ATOM     20  C   UNL     1      19.104  -2.076  10.486  0.00  0.00    +0.020 A 
ATOM     21  C   UNL     1      18.531  -2.209   9.235  0.00  0.00    +0.006 A 
ATOM     22  C   UNL     1      18.384  -1.102   8.420  0.00  0.00    -0.037 A 
ATOM     23 CL   UNL     1      20.252  -0.666  12.492  0.00  0.00    -0.084 Cl
ENDBRANCH  16  22
ENDBRANCH  15  16
ENDBRANCH  14  15
ENDBRANCH  13  14
ENDBRANCH  12  13
ENDBRANCH   8  12
ENDBRANCH   1   9
BRANCH   5  24
ATOM     24  C   UNL     1       7.276  -1.036  -0.075  0.00  0.00    +0.022 C 
BRANCH  24  25
ATOM     25  C   UNL     1       5.772  -1.131  -0.062  0.00  0.00    +0.211 A 
ATOM     26  N   UNL     1       4.929  -0.129  -0.053  0.00  0.00    -0.193 NA
ATOM     27  C   UNL     1       3.699  -0.689  -0.038  0.00  0.00    +0.202 A 
ATOM     28  N   UNL     1       3.865  -1.986  -0.049  0.00  0.00    -0.056 NA
ATOM     29  O   UNL     1       5.047  -2.255  -0.062  0.00  0.00    -0.340 OA
BRANCH  27  30
ATOM     30  C   UNL     1       2.402   0.033  -0.021  0.00  0.00    +0.023 A 
ATOM     31  C   UNL     1       1.205  -0.680  -0.014  0.00  0.00    +0.013 A 
ATOM     32  C   UNL     1       0.002  -0.004   0.002  0.00  0.00    +0.021 A 
ATOM     33  C   UNL     1      -0.017   1.380   0.010  0.00  0.00    +0.041 A 
ATOM     34  C   UNL     1       1.170   2.093   0.002  0.00  0.00    +0.021 A 
ATOM     35  C   UNL     1       2.378   1.426  -0.013  0.00  0.00    +0.013 A 
ATOM     36 CL   UNL     1      -1.533   2.225   0.021  0.00  0.00    -0.084 Cl
ENDBRANCH  27  30
ENDBRANCH  24  25
ENDBRANCH   5  24
TORSDOF 10
