REMARK  Name = ZINC21522669
REMARK  11 active torsions:
REMARK  status: ('A' for Active; 'I' for Inactive)
REMARK    1  A    between atoms: C_1  and  C_2
REMARK    2  A    between atoms: C_2  and  C_3
REMARK    3  A    between atoms: C_12  and  C_29
REMARK    4  A    between atoms: C_12  and  C_30
REMARK    5  A    between atoms: N_13  and  C_16
REMARK    6  A    between atoms: C_16  and  C_17
REMARK    7  A    between atoms: C_17  and  C_18
REMARK    8  A    between atoms: C_18  and  N_19
REMARK    9  A    between atoms: C_21  and  C_28
REMARK   10  A    between atoms: C_24  and  C_27
REMARK   11  A    between atoms: N_32  and  C_33
REMARK                            x       y       z     vdW  Elec       q    Type
REMARK                         _______ _______ _______ _____ _____    ______ ____
ROOT
ATOM      1  C   UNL     1       0.707  -0.490  -1.238  0.00  0.00    -0.008 A 
ATOM      2  C   UNL     1       2.018  -0.758  -1.412  0.00  0.00    +0.037 A 
ATOM      3  C   UNL     1       2.489  -1.206  -2.655  0.00  0.00    +0.057 A 
ATOM      4  C   UNL     1       1.515  -1.347  -3.656  0.00  0.00    +0.038 A 
ATOM      5  S   UNL     1       0.016  -0.863  -2.840  0.00  0.00    -0.092 S 
ATOM      6  C   UNL     1       2.114  -1.799  -4.826  0.00  0.00    +0.048 A 
ATOM      7  C   UNL     1       3.444  -1.948  -4.566  0.00  0.00    +0.106 A 
ATOM      8  N   UNL     1       3.683  -1.572  -3.248  0.00  0.00    -0.333 N 
ATOM      9  C   UNL     1       5.030  -1.585  -2.672  0.00  0.00    +0.157 C 
ATOM     10  C   UNL     1       5.858  -2.668  -3.365  0.00  0.00    +0.128 C 
ATOM     11  N   UNL     1       5.730  -2.628  -4.817  0.00  0.00    -0.281 N 
ATOM     12  C   UNL     1       4.545  -2.395  -5.428  0.00  0.00    +0.264 C 
ATOM     13  O   UNL     1       4.400  -2.548  -6.627  0.00  0.00    -0.268 OA
ATOM     14  C   UNL     1       7.330  -2.480  -2.992  0.00  0.00    +0.043 C 
ENDROOT
BRANCH  10  15
ATOM     15  C   UNL     1       5.402  -4.018  -2.873  0.00  0.00    +0.238 C 
ATOM     16  O   UNL     1       5.985  -4.558  -1.956  0.00  0.00    -0.273 OA
ATOM     17  N   UNL     1       4.347  -4.625  -3.451  0.00  0.00    -0.311 N 
ATOM     18  H   UNL     1       3.881  -4.193  -4.184  0.00  0.00    +0.149 HD
BRANCH  17  19
ATOM     19  C   UNL     1       3.905  -5.937  -2.974  0.00  0.00    +0.073 C 
ATOM     20  C   UNL     1       4.787  -7.027  -3.616  0.00  0.00    +0.022 C 
ATOM     21  C   UNL     1       4.696  -8.272  -2.777  0.00  0.00    +0.002 C 
ATOM     22  C   UNL     1       3.619  -9.248  -3.286  0.00  0.00    +0.000 C 
ATOM     23  C   UNL     1       2.322  -8.536  -3.716  0.00  0.00    +0.000 C 
ATOM     24  C   UNL     1       1.927  -7.438  -2.766  0.00  0.00    +0.002 C 
ATOM     25  C   UNL     1       2.495  -6.105  -3.294  0.00  0.00    +0.022 C 
ENDBRANCH  17  19
ENDBRANCH  10  15
BRANCH   1  27
ATOM     26  C   UNL     1      -0.019   1.526   0.010  0.00  0.00    +0.009 C 
ATOM     27  C   UNL     1       0.002  -0.004   0.002  0.00  0.00    +0.039 C 
ENDBRANCH   1  27
BRANCH  11  28
ATOM     28  C   UNL     1       6.922  -2.846  -5.640  0.00  0.00    +0.107 C 
BRANCH  28  29
ATOM     29  C   UNL     1       7.067  -4.339  -5.942  0.00  0.00    +0.000 C 
BRANCH  29  30
ATOM     30  C   UNL     1       8.312  -4.567  -6.802  0.00  0.00    -0.077 C 
BRANCH  30  31
ATOM     31  N   UNL     1       8.451  -6.000  -7.092  0.00  0.00    +0.380 N 
ATOM     32  C   UNL     1       8.693  -6.730  -5.841  0.00  0.00    -0.076 C 
ATOM     33  C   UNL     1       8.758  -8.232  -6.127  0.00  0.00    -0.031 C 
ATOM     34  C   UNL     1       9.898  -8.510  -7.111  0.00  0.00    +0.003 C 
ATOM     35  C   UNL     1       9.673  -7.687  -8.383  0.00  0.00    -0.031 C 
ATOM     36  C   UNL     1       9.575  -6.205  -8.013  0.00  0.00    -0.076 C 
ATOM     37  C   UNL     1      10.846  -7.898  -9.342  0.00  0.00    +0.005 C 
ATOM     38  C   UNL     1       9.012  -8.989  -4.822  0.00  0.00    +0.005 C 
ATOM     39  H   UNL     1       7.602  -6.340  -7.518  0.00  0.00    -0.082 HD
ENDBRANCH  30  31
ENDBRANCH  29  30
ENDBRANCH  28  29
ENDBRANCH  11  28
TORSDOF 7
