REMARK  Name = ZINC35354205
REMARK  5 active torsions:
REMARK  status: ('A' for Active; 'I' for Inactive)
REMARK    1  A    between atoms: C_3  and  S_9
REMARK    2  A    between atoms: C_6  and  N_7
REMARK    3  A    between atoms: N_7  and  N_8
REMARK    4  A    between atoms: S_9  and  N_12
REMARK    5  A    between atoms: N_12  and  C_13
REMARK                            x       y       z     vdW  Elec       q    Type
REMARK                         _______ _______ _______ _____ _____    ______ ____
ROOT
ATOM      1  S   UNL     1       3.670   1.611   0.429  0.00  0.00    +0.072 S 
ATOM      2  O   UNL     1       4.796   0.938  -0.118  0.00  0.00    -0.150 OA
ATOM      3  O   UNL     1       2.748   2.332  -0.377  0.00  0.00    -0.150 OA
ENDROOT
BRANCH   1   6
ATOM      4  C   UNL     1       0.628  -0.406   2.107  0.00  0.00    +0.026 A 
ATOM      5  C   UNL     1       1.364   0.541   1.424  0.00  0.00    +0.030 A 
ATOM      6  C   UNL     1       2.735   0.400   1.303  0.00  0.00    +0.109 A 
ATOM      7  C   UNL     1       3.373  -0.690   1.867  0.00  0.00    +0.030 A 
ATOM      8  C   UNL     1       2.643  -1.641   2.552  0.00  0.00    +0.026 A 
ATOM      9  C   UNL     1       1.266  -1.502   2.675  0.00  0.00    +0.041 A 
BRANCH   9  10
ATOM     10  N   UNL     1       0.525  -2.462   3.367  0.00  0.00    -0.283 N 
ATOM     11  H   UNL     1      -0.436  -2.364   3.452  0.00  0.00    +0.166 HD
BRANCH  10  12
ATOM     12  N   UNL     1       1.154  -3.539   3.924  0.00  0.00    -0.257 NA
ATOM     13  H   UNL     1       0.493  -4.144   4.389  0.00  0.00    +0.140 HD
ATOM     14  H   UNL     1       1.683  -4.048   3.231  0.00  0.00    +0.140 HD
ENDBRANCH  10  12
ENDBRANCH   9  10
ENDBRANCH   1   6
BRANCH   1  15
ATOM     15  N   UNL     1       4.256   2.680   1.550  0.00  0.00    -0.216 N 
ATOM     16  H   UNL     1       5.213   2.775   1.676  0.00  0.00    +0.174 HD
BRANCH  15  17
ATOM     17  C   UNL     1       3.371   3.446   2.315  0.00  0.00    +0.050 A 
ATOM     18  C   UNL     1       2.713   4.527   1.742  0.00  0.00    +0.026 A 
ATOM     19  C   UNL     1       1.839   5.282   2.500  0.00  0.00    +0.023 A 
ATOM     20  C   UNL     1       1.619   4.963   3.828  0.00  0.00    +0.059 A 
ATOM     21  C   UNL     1       2.274   3.886   4.402  0.00  0.00    +0.061 A 
ATOM     22  C   UNL     1       3.144   3.123   3.646  0.00  0.00    +0.046 A 
ATOM     23 CL   UNL     1       1.996   3.489   6.069  0.00  0.00    -0.082 Cl
ATOM     24 CL   UNL     1       0.520   5.915   4.777  0.00  0.00    -0.082 Cl
ENDBRANCH  15  17
ENDBRANCH   1  15
TORSDOF 5
