REMARK  Name = ZINC65584656
REMARK  12 active torsions:
REMARK  status: ('A' for Active; 'I' for Inactive)
REMARK    1  A    between atoms: C_1  and  C_2
REMARK    2  A    between atoms: C_2  and  C_3
REMARK    3  A    between atoms: C_3  and  C_4
REMARK    4  A    between atoms: C_4  and  C_5
REMARK    5  A    between atoms: C_5  and  C_6
REMARK    6  A    between atoms: C_5  and  N_22
REMARK    7  A    between atoms: N_8  and  C_9
REMARK    8  A    between atoms: C_9  and  C_10
REMARK    9  A    between atoms: C_9  and  C_11
REMARK   10  A    between atoms: C_14  and  N_17
REMARK   11  A    between atoms: C_18  and  C_20
REMARK   12  A    between atoms: C_20  and  C_21
REMARK                            x       y       z     vdW  Elec       q    Type
REMARK                         _______ _______ _______ _____ _____    ______ ____
ROOT
ATOM      1  C   UNL     1       1.396  -4.098  -2.348  0.00  0.00    +0.234 C 
ATOM      2  O   UNL     1       2.347  -4.820  -2.137  0.00  0.00    -0.274 OA
ATOM      3  N   UNL     1       0.250  -4.618  -2.831  0.00  0.00    -0.307 N 
ATOM      4  H   UNL     1      -0.511  -4.041  -3.000  0.00  0.00    +0.149 HD
ENDROOT
BRANCH   3   5
ATOM      5  C   UNL     1       0.154  -6.055  -3.102  0.00  0.00    +0.100 C 
ATOM      6  C   UNL     1       0.704  -6.348  -4.499  0.00  0.00    +0.033 C 
BRANCH   5   7
ATOM      7  C   UNL     1      -1.289  -6.484  -3.030  0.00  0.00    -0.027 A 
ATOM      8  C   UNL     1      -2.277  -5.674  -3.558  0.00  0.00    +0.007 A 
ATOM      9  C   UNL     1      -3.600  -6.064  -3.494  0.00  0.00    +0.023 A 
ATOM     10  C   UNL     1      -3.938  -7.272  -2.898  0.00  0.00    +0.033 A 
ATOM     11  C   UNL     1      -2.943  -8.084  -2.369  0.00  0.00    +0.023 A 
ATOM     12  C   UNL     1      -1.621  -7.690  -2.441  0.00  0.00    +0.007 A 
BRANCH  10  13
ATOM     13  N   UNL     1      -5.277  -7.671  -2.831  0.00  0.00    -0.286 N 
ATOM     14  C   UNL     1      -6.130  -7.338  -3.821  0.00  0.00    +0.217 C 
ATOM     15  O   UNL     1      -5.717  -6.777  -4.814  0.00  0.00    -0.275 OA
ATOM     16  H   UNL     1      -5.593  -8.186  -2.072  0.00  0.00    +0.155 HD
BRANCH  14  17
ATOM     17  C   UNL     1      -7.596  -7.663  -3.693  0.00  0.00    +0.093 C 
ATOM     18  C   UNL     1      -8.335  -7.182  -4.943  0.00  0.00    +0.013 C 
ENDBRANCH  14  17
ENDBRANCH  10  13
ENDBRANCH   5   7
ENDBRANCH   3   5
BRANCH   1  19
ATOM     19  C   UNL     1       1.495  -2.621  -2.069  0.00  0.00    +0.160 C 
BRANCH  19  20
ATOM     20  N   UNL     1       2.905  -2.226  -2.021  0.00  0.00    -0.288 N 
ATOM     21  C   UNL     1       3.730  -2.784  -1.114  0.00  0.00    +0.298 C 
ATOM     22  O   UNL     1       3.304  -3.616  -0.335  0.00  0.00    -0.253 OA
ATOM     23  N   UNL     1       5.027  -2.421  -1.069  0.00  0.00    -0.313 N 
ATOM     24  H   UNL     1       3.244  -1.563  -2.643  0.00  0.00    +0.151 HD
ATOM     25  H   UNL     1       5.367  -1.758  -1.691  0.00  0.00    +0.146 HD
ATOM     26  H   UNL     1       5.621  -2.823  -0.416  0.00  0.00    +0.146 HD
ENDBRANCH  19  20
BRANCH  19  27
ATOM     27  C   UNL     1       0.832  -2.309  -0.726  0.00  0.00    +0.032 C 
BRANCH  27  28
ATOM     28  C   UNL     1       0.821  -0.796  -0.501  0.00  0.00    +0.002 C 
BRANCH  28  30
ATOM     29  C   UNL     1       0.148   1.028   1.067  0.00  0.00    +0.004 C 
ATOM     30  C   UNL     1       0.158  -0.485   0.842  0.00  0.00    -0.003 C 
ENDBRANCH  28  30
ENDBRANCH  27  28
ENDBRANCH  19  27
ENDBRANCH   1  19
TORSDOF 9
