REMARK  Name = ZINC31053564
REMARK  10 active torsions:
REMARK  status: ('A' for Active; 'I' for Inactive)
REMARK    1  A    between atoms: C_3  and  C_8
REMARK    2  A    between atoms: C_10  and  C_13
REMARK    3  A    between atoms: C_13  and  N_14
REMARK    4  A    between atoms: C_18  and  C_21
REMARK    5  A    between atoms: N_23  and  C_24
REMARK    6  A    between atoms: C_24  and  C_25
REMARK    7  A    between atoms: C_25  and  C_26
REMARK    8  A    between atoms: C_26  and  S_27
REMARK    9  A    between atoms: S_27  and  C_28
REMARK   10  A    between atoms: C_28  and  C_29
REMARK                            x       y       z     vdW  Elec       q    Type
REMARK                         _______ _______ _______ _____ _____    ______ ____
ROOT
ATOM      1  N   UNL     1      -1.602  -1.204  -1.374  0.00  0.00    +0.386 N 
ATOM      2  C   UNL     1      -0.437  -1.543  -2.202  0.00  0.00    -0.078 C 
ATOM      3  C   UNL     1      -0.874  -1.695  -3.661  0.00  0.00    -0.018 C 
ATOM      4  C   UNL     1      -1.933  -2.797  -3.760  0.00  0.00    +0.009 C 
ATOM      5  C   UNL     1      -3.113  -2.443  -2.851  0.00  0.00    +0.058 C 
ATOM      6  C   UNL     1      -2.611  -2.270  -1.415  0.00  0.00    -0.065 C 
ATOM      7  H   UNL     1      -2.057  -0.294  -1.792  0.00  0.00    -0.081 HD
ENDROOT
BRANCH   5   8
ATOM      8  C   UNL     1      -4.134  -3.551  -2.897  0.00  0.00    +0.214 C 
ATOM      9  O   UNL     1      -4.431  -4.144  -1.882  0.00  0.00    -0.276 OA
ATOM     10  N   UNL     1      -4.716  -3.882  -4.066  0.00  0.00    -0.315 N 
ATOM     11  H   UNL     1      -4.447  -3.344  -4.987  0.00  0.00    +0.149 HD
BRANCH  10  12
ATOM     12  C   UNL     1      -5.708  -4.959  -4.111  0.00  0.00    +0.105 C 
BRANCH  12  13
ATOM     13  C   UNL     1      -6.209  -5.132  -5.547  0.00  0.00    +0.029 C 
BRANCH  13  14
ATOM     14  C   UNL     1      -7.245  -6.256  -5.593  0.00  0.00    +0.071 C 
BRANCH  14  15
ATOM     15  S   UNL     1      -7.839  -6.461  -7.295  0.00  0.00    -0.153 S 
BRANCH  15  16
ATOM     16  C   UNL     1      -9.043  -7.813  -7.180  0.00  0.00    +0.143 C 
BRANCH  16  17
ATOM     17  C   UNL     1      -9.621  -8.088  -8.544  0.00  0.00    +0.115 A 
ATOM     18  C   UNL     1      -9.129  -8.955  -9.447  0.00  0.00    +0.045 A 
ATOM     19  C   UNL     1      -9.976  -8.895 -10.578  0.00  0.00    +0.041 A 
ATOM     20  C   UNL     1     -10.935  -7.995 -10.298  0.00  0.00    +0.195 A 
ATOM     21  O   UNL     1     -10.719  -7.513  -9.063  0.00  0.00    -0.467 OA
ENDBRANCH  16  17
ENDBRANCH  15  16
ENDBRANCH  14  15
ENDBRANCH  13  14
ENDBRANCH  12  13
ENDBRANCH  10  12
ENDBRANCH   5   8
BRANCH   1  22
ATOM     22  C   UNL     1      -1.198  -0.916   0.009  0.00  0.00    +0.022 C 
BRANCH  22  25
ATOM     23  C   UNL     1       1.282   1.686  -0.001  0.00  0.00    +0.202 A 
ATOM     24  N   UNL     1      -0.016   1.306   0.009  0.00  0.00    -0.193 NA
ATOM     25  C   UNL     1       0.002  -0.004   0.002  0.00  0.00    +0.211 A 
ATOM     26  O   UNL     1       1.285  -0.380  -0.012  0.00  0.00    -0.340 OA
ATOM     27  N   UNL     1       2.004   0.597  -0.014  0.00  0.00    -0.056 NA
BRANCH  23  30
ATOM     28  C   UNL     1       1.377   5.446   0.016  0.00  0.00    +0.002 A 
ATOM     29  C   UNL     1       0.898   4.150   0.009  0.00  0.00    +0.012 A 
ATOM     30  C   UNL     1       1.791   3.081   0.001  0.00  0.00    +0.024 A 
ATOM     31  C   UNL     1       3.163   3.324  -0.011  0.00  0.00    +0.031 A 
ATOM     32  C   UNL     1       3.631   4.623  -0.009  0.00  0.00    +0.042 A 
ATOM     33  C   UNL     1       2.739   5.683   0.005  0.00  0.00    +0.020 A 
ATOM     34 CL   UNL     1       5.339   4.929  -0.023  0.00  0.00    -0.084 Cl
ENDBRANCH  23  30
ENDBRANCH  22  25
ENDBRANCH   1  22
TORSDOF 10
