REMARK  Name = ZINC63160906
REMARK  6 active torsions:
REMARK  status: ('A' for Active; 'I' for Inactive)
REMARK    1  A    between atoms: C_7  and  C_10
REMARK    2  A    between atoms: C_10  and  C_11
REMARK    3  A    between atoms: C_11  and  C_13
REMARK    4  A    between atoms: C_11  and  N_27
REMARK    5  A    between atoms: N_15  and  C_16
REMARK    6  A    between atoms: C_28  and  C_30
REMARK                            x       y       z     vdW  Elec       q    Type
REMARK                         _______ _______ _______ _____ _____    ______ ____
ROOT
ATOM      1  C   UNL     1       0.460  -3.655  -1.467  0.00  0.00    +0.163 C 
ENDROOT
BRANCH   1   2
ATOM      2  C   UNL     1      -0.385  -4.903  -1.451  0.00  0.00    +0.238 C 
ATOM      3  O   UNL     1      -1.463  -4.913  -2.007  0.00  0.00    -0.273 OA
ATOM      4  N   UNL     1       0.057  -6.008  -0.819  0.00  0.00    -0.284 N 
ATOM      5  H   UNL     1       0.946  -6.023  -0.432  0.00  0.00    +0.155 HD
BRANCH   4   6
ATOM      6  C   UNL     1      -0.769  -7.136  -0.720  0.00  0.00    +0.037 A 
ATOM      7  C   UNL     1      -1.625  -7.462  -1.763  0.00  0.00    +0.027 A 
ATOM      8  C   UNL     1      -2.441  -8.575  -1.669  0.00  0.00    +0.051 A 
ATOM      9  C   UNL     1      -2.401  -9.364  -0.532  0.00  0.00    +0.162 A 
ATOM     10  C   UNL     1      -1.546  -9.040   0.512  0.00  0.00    +0.164 A 
ATOM     11  C   UNL     1      -0.725  -7.930   0.419  0.00  0.00    +0.072 A 
ATOM     12  O   UNL     1      -1.516  -9.827   1.627  0.00  0.00    -0.488 OA
ATOM     13  C   UNL     1      -2.690  -9.801   2.442  0.00  0.00    +0.232 C 
ATOM     14  C   UNL     1      -3.732 -10.777   1.918  0.00  0.00    +0.082 C 
ATOM     15  C   UNL     1      -4.247 -10.390   0.541  0.00  0.00    +0.232 C 
ATOM     16  O   UNL     1      -3.203 -10.465  -0.431  0.00  0.00    -0.488 OA
ENDBRANCH   4   6
ENDBRANCH   1   2
BRANCH   1  17
ATOM     17  N   UNL     1      -0.236  -2.604  -2.212  0.00  0.00    -0.300 N 
ATOM     18  C   UNL     1       0.467  -1.611  -2.793  0.00  0.00    +0.245 C 
ATOM     19  O   UNL     1       1.678  -1.589  -2.699  0.00  0.00    -0.270 OA
ATOM     20  H   UNL     1      -1.203  -2.622  -2.288  0.00  0.00    +0.150 HD
BRANCH  18  21
ATOM     21  C   UNL     1      -0.235  -0.551  -3.545  0.00  0.00    +0.037 A 
ATOM     22  C   UNL     1      -1.628  -0.571  -3.650  0.00  0.00    +0.016 A 
ATOM     23  C   UNL     1      -2.278   0.421  -4.353  0.00  0.00    +0.039 A 
ATOM     24  C   UNL     1      -1.552   1.437  -4.955  0.00  0.00    +0.123 A 
ATOM     25  C   UNL     1      -0.169   1.462  -4.853  0.00  0.00    +0.039 A 
ATOM     26  C   UNL     1       0.490   0.478  -4.148  0.00  0.00    +0.016 A 
ATOM     27  F   UNL     1      -2.194   2.406  -5.643  0.00  0.00    -0.205 F 
ENDBRANCH  18  21
ENDBRANCH   1  17
BRANCH   1  28
ATOM     28  C   UNL     1       0.704  -3.187  -0.032  0.00  0.00    +0.065 C 
BRANCH  28  35
ATOM     29  C   UNL     1       0.011   1.349   0.001  0.00  0.00    +0.001 A 
ATOM     30  C   UNL     1       1.196   2.099  -0.015  0.00  0.00    +0.002 A 
ATOM     31  C   UNL     1       2.419   1.529  -0.037  0.00  0.00    +0.026 A 
ATOM     32  C   UNL     1       2.553   0.113  -0.045  0.00  0.00    +0.043 A 
ATOM     33  N   UNL     1       3.608  -0.664  -0.066  0.00  0.00    -0.380 N 
ATOM     34  C   UNL     1       3.160  -2.061  -0.065  0.00  0.00    +0.144 C 
ATOM     35  C   UNL     1       1.649  -2.012  -0.041  0.00  0.00    -0.039 C 
ATOM     36  C   UNL     1       1.317  -0.701  -0.029  0.00  0.00    -0.001 A 
ATOM     37  C   UNL     1       0.026  -0.003  -0.005  0.00  0.00    +0.010 A 
ATOM     38  H   UNL     1       4.531  -0.366  -0.080  0.00  0.00    +0.160 HD
ENDBRANCH  28  35
ENDBRANCH   1  28
TORSDOF 6
