REMARK  Name = ZINC53137357
REMARK  7 active torsions:
REMARK  status: ('A' for Active; 'I' for Inactive)
REMARK    1  A    between atoms: C_1  and  C_2
REMARK    2  A    between atoms: C_5  and  C_9
REMARK    3  A    between atoms: C_7  and  C_8
REMARK    4  A    between atoms: C_9  and  C_10
REMARK    5  A    between atoms: N_12  and  C_13
REMARK    6  A    between atoms: C_14  and  C_21
REMARK    7  A    between atoms: C_18  and  N_19
REMARK                            x       y       z     vdW  Elec       q    Type
REMARK                         _______ _______ _______ _____ _____    ______ ____
ROOT
ATOM      1  C   UNL     1       1.360  -5.069   0.495  0.00  0.00    +0.222 C 
ATOM      2  O   UNL     1       2.165  -4.546   1.237  0.00  0.00    -0.275 OA
ATOM      3  N   UNL     1       1.727  -6.120  -0.264  0.00  0.00    -0.284 N 
ATOM      4  H   UNL     1       1.068  -6.579  -0.808  0.00  0.00    +0.155 HD
ENDROOT
BRANCH   3   5
ATOM      5  C   UNL     1       3.061  -6.551  -0.268  0.00  0.00    +0.057 A 
ATOM      6  C   UNL     1       4.083  -5.647  -0.514  0.00  0.00    -0.026 A 
ATOM      7  C   UNL     1       5.398  -6.073  -0.516  0.00  0.00    +0.020 A 
ATOM      8  C   UNL     1       5.699  -7.401  -0.273  0.00  0.00    +0.020 A 
ATOM      9  C   UNL     1       4.686  -8.310  -0.027  0.00  0.00    +0.040 A 
ATOM     10  C   UNL     1       3.364  -7.889  -0.017  0.00  0.00    +0.047 A 
ATOM     11 BR   UNL     1       7.501  -7.976  -0.278  0.00  0.00    -0.050 Br
ATOM     12  C   UNL     1       3.760  -4.199  -0.780  0.00  0.00    +0.046 C 
BRANCH  10  13
ATOM     13  N   UNL     1       2.338  -8.805   0.238  0.00  0.00    -0.356 N 
ATOM     14  H   UNL     1       1.426  -8.493   0.349  0.00  0.00    +0.142 HD
ATOM     15  H   UNL     1       2.539  -9.752   0.304  0.00  0.00    +0.142 HD
ENDBRANCH  10  13
ENDBRANCH   3   5
BRANCH   1  16
ATOM     16  C   UNL     1      -0.050  -4.542   0.422  0.00  0.00    +0.131 C 
BRANCH  16  21
ATOM     17  C   UNL     1      -0.624  -0.059   4.023  0.00  0.00    +0.044 C 
ATOM     18  C   UNL     1      -0.474  -1.228   3.084  0.00  0.00    -0.048 A 
ATOM     19  C   UNL     1      -0.080  -1.018   1.776  0.00  0.00    +0.004 A 
ATOM     20  C   UNL     1       0.058  -2.090   0.914  0.00  0.00    +0.004 A 
ATOM     21  C   UNL     1      -0.199  -3.373   1.361  0.00  0.00    -0.038 A 
ATOM     22  C   UNL     1      -0.592  -3.584   2.669  0.00  0.00    +0.007 A 
ATOM     23  C   UNL     1      -0.725  -2.512   3.532  0.00  0.00    -0.047 A 
ATOM     24  C   UNL     1      -1.149  -2.742   4.960  0.00  0.00    +0.044 C 
ENDBRANCH  16  21
ENDBRANCH   1  16
TORSDOF 4
