REMARK  Name = ZINC63652890
REMARK  8 active torsions:
REMARK  status: ('A' for Active; 'I' for Inactive)
REMARK    1  A    between atoms: C_1  and  C_2
REMARK    2  A    between atoms: C_4  and  C_21
REMARK    3  A    between atoms: C_5  and  C_20
REMARK    4  A    between atoms: C_21  and  C_22
REMARK    5  A    between atoms: C_22  and  C_23
REMARK    6  A    between atoms: N_25  and  C_26
REMARK    7  A    between atoms: C_26  and  C_27
REMARK    8  A    between atoms: C_27  and  C_28
REMARK                            x       y       z     vdW  Elec       q    Type
REMARK                         _______ _______ _______ _____ _____    ______ ____
ROOT
ATOM      1  C   UNL     1      -0.159   1.698   0.424  0.00  0.00    +0.035 C 
ATOM      2  C   UNL     1      -0.078   0.194   0.151  0.00  0.00    +0.120 C 
ATOM      3  C   UNL     1      -1.460  -0.418   0.154  0.00  0.00    -0.030 C 
ATOM      4  C   UNL     1      -1.496  -1.312   1.120  0.00  0.00    +0.020 C 
ATOM      5  N   UNL     1      -0.291  -1.392   1.792  0.00  0.00    -0.267 N 
ATOM      6  N   UNL     1       0.634  -0.488   1.245  0.00  0.00    -0.228 N 
ATOM      7  C   UNL     1       1.951  -0.279   1.651  0.00  0.00    +0.161 A 
ATOM      8  C   UNL     1       2.482  -1.018   2.710  0.00  0.00    +0.050 A 
ATOM      9  C   UNL     1       3.793  -0.775   3.077  0.00  0.00    +0.049 A 
ATOM     10  C   UNL     1       4.503   0.194   2.366  0.00  0.00    +0.144 A 
ATOM     11  N   UNL     1       3.917   0.845   1.376  0.00  0.00    -0.132 NA
ATOM     12  N   UNL     1       2.702   0.616   1.032  0.00  0.00    -0.131 NA
ATOM     13  N   UNL     1       5.827   0.474   2.699  0.00  0.00    -0.314 N 
ATOM     14  C   UNL     1       6.654   1.322   1.830  0.00  0.00    +0.106 C 
ATOM     15  C   UNL     1       7.246   2.459   2.669  0.00  0.00    +0.019 C 
ATOM     16  C   UNL     1       7.994   1.868   3.866  0.00  0.00    +0.003 C 
ATOM     17  C   UNL     1       7.017   1.080   4.742  0.00  0.00    +0.019 C 
ATOM     18  C   UNL     1       6.421  -0.068   3.929  0.00  0.00    +0.106 C 
ATOM     19  C   UNL     1      -2.705  -2.148   1.452  0.00  0.00    +0.062 C 
ATOM     20  H   UNL     1      -0.110  -1.988   2.536  0.00  0.00    +0.170 HD
ENDROOT
BRANCH   3  21
ATOM     21  C   UNL     1      -2.592  -0.069  -0.778  0.00  0.00    +0.043 C 
BRANCH  21  22
ATOM     22  C   UNL     1      -3.347   1.144  -0.230  0.00  0.00    +0.100 C 
BRANCH  22  23
ATOM     23  C   UNL     1      -4.478   1.494  -1.162  0.00  0.00    +0.213 C 
ATOM     24  O   UNL     1      -4.662   0.838  -2.166  0.00  0.00    -0.276 OA
ATOM     25  N   UNL     1      -5.285   2.536  -0.881  0.00  0.00    -0.315 N 
ATOM     26  H   UNL     1      -5.138   3.061  -0.079  0.00  0.00    +0.149 HD
BRANCH  25  27
ATOM     27  C   UNL     1      -6.385   2.876  -1.787  0.00  0.00    +0.108 C 
BRANCH  27  28
ATOM     28  C   UNL     1      -7.141   4.089  -1.240  0.00  0.00    +0.052 C 
BRANCH  28  29
ATOM     29  C   UNL     1      -8.272   4.439  -2.172  0.00  0.00    -0.040 C 
ATOM     30  C   UNL     1      -9.562   4.048  -2.067  0.00  0.00    -0.001 A 
ATOM     31  C   UNL     1     -10.272   3.212  -1.091  0.00  0.00    +0.010 A 
ATOM     32  C   UNL     1     -11.597   2.994  -1.254  0.00  0.00    +0.001 A 
ATOM     33  C   UNL     1     -12.307   3.544  -2.330  0.00  0.00    +0.002 A 
ATOM     34  C   UNL     1     -11.725   4.323  -3.266  0.00  0.00    +0.026 A 
ATOM     35  C   UNL     1     -10.336   4.619  -3.193  0.00  0.00    +0.043 A 
ATOM     36  N   UNL     1      -9.554   5.334  -3.964  0.00  0.00    -0.380 N 
ATOM     37  C   UNL     1      -8.195   5.303  -3.411  0.00  0.00    +0.144 C 
ATOM     38  H   UNL     1      -9.828   5.808  -4.765  0.00  0.00    +0.160 HD
ENDBRANCH  28  29
ENDBRANCH  27  28
ENDBRANCH  25  27
ENDBRANCH  22  23
ENDBRANCH  21  22
ENDBRANCH   3  21
TORSDOF 6
