REMARK  Name = ZINC19078646
REMARK  12 active torsions:
REMARK  status: ('A' for Active; 'I' for Inactive)
REMARK    1  A    between atoms: C_1  and  C_2
REMARK    2  A    between atoms: C_2  and  C_3
REMARK    3  A    between atoms: C_2  and  C_4
REMARK    4  A    between atoms: C_4  and  C_5
REMARK    5  A    between atoms: C_5  and  N_6
REMARK    6  A    between atoms: C_16  and  S_17
REMARK    7  A    between atoms: S_17  and  C_18
REMARK    8  A    between atoms: C_18  and  C_19
REMARK    9  A    between atoms: C_19  and  O_21
REMARK   10  A    between atoms: O_21  and  C_22
REMARK   11  A    between atoms: C_22  and  C_23
REMARK   12  A    between atoms: N_25  and  C_26
REMARK                            x       y       z     vdW  Elec       q    Type
REMARK                         _______ _______ _______ _____ _____    ______ ____
ROOT
ATOM      1  C   UNL     1      -1.717  -2.458   3.374  0.00  0.00    +0.197 C 
ENDROOT
BRANCH   1   2
ATOM      2  C   UNL     1      -2.786  -3.415   2.915  0.00  0.00    +0.318 C 
ATOM      3  O   UNL     1      -3.462  -3.149   1.950  0.00  0.00    -0.250 OA
BRANCH   2   4
ATOM      4  O   UNL     1      -2.988  -4.564   3.579  0.00  0.00    -0.455 OA
BRANCH   4   5
ATOM      5  C   UNL     1      -4.035  -5.438   3.081  0.00  0.00    +0.328 C 
BRANCH   5   6
ATOM      6  C   UNL     1      -4.115  -6.670   3.946  0.00  0.00    +0.255 C 
ATOM      7  O   UNL     1      -3.364  -6.798   4.889  0.00  0.00    -0.272 OA
ATOM      8  N   UNL     1      -5.022  -7.628   3.671  0.00  0.00    -0.281 N 
ATOM      9  H   UNL     1      -5.666  -7.497   2.958  0.00  0.00    +0.155 HD
BRANCH   8  10
ATOM     10  C   UNL     1      -5.034  -8.812   4.413  0.00  0.00    +0.062 A 
ATOM     11  C   UNL     1      -4.722  -8.789   5.738  0.00  0.00    +0.025 A 
ATOM     12  C   UNL     1      -4.725  -9.951   6.505  0.00  0.00    +0.004 A 
ATOM     13  C   UNL     1      -5.037 -11.156   5.969  0.00  0.00    +0.031 A 
ATOM     14  C   UNL     1      -5.374 -11.259   4.594  0.00  0.00    +0.102 A 
ATOM     15  C   UNL     1      -5.378 -10.044   3.785  0.00  0.00    +0.121 A 
ATOM     16  N   UNL     1      -5.715 -10.285   2.521  0.00  0.00    -0.189 NA
ATOM     17  S   UNL     1      -5.982 -11.826   2.425  0.00  0.00    +0.117 S 
ATOM     18  N   UNL     1      -5.707 -12.334   3.882  0.00  0.00    -0.191 NA
ENDBRANCH   8  10
ENDBRANCH   5   6
ENDBRANCH   4   5
ENDBRANCH   2   4
ENDBRANCH   1   2
BRANCH   1  19
ATOM     19  S   UNL     1      -1.691  -1.014   2.283  0.00  0.00    -0.076 S 
BRANCH  19  30
ATOM     20  N   UNL     1      -0.048   1.113   2.480  0.00  0.00    -0.287 N 
ATOM     21  C   UNL     1       0.942   1.859   3.023  0.00  0.00    +0.262 A 
ATOM     22  O   UNL     1       1.256   2.935   2.549  0.00  0.00    -0.267 OA
ATOM     23  C   UNL     1       1.625   1.320   4.207  0.00  0.00    +0.065 A 
ATOM     24  C   UNL     1       2.657   2.011   4.841  0.00  0.00    +0.015 A 
ATOM     25  C   UNL     1       3.258   1.465   5.941  0.00  0.00    +0.001 A 
ATOM     26  C   UNL     1       2.852   0.231   6.432  0.00  0.00    +0.002 A 
ATOM     27  C   UNL     1       1.843  -0.468   5.831  0.00  0.00    +0.028 A 
ATOM     28  C   UNL     1       1.209   0.064   4.704  0.00  0.00    +0.079 A 
ATOM     29  N   UNL     1       0.209  -0.591   4.081  0.00  0.00    -0.223 NA
ATOM     30  C   UNL     1      -0.390  -0.090   3.029  0.00  0.00    +0.173 A 
BRANCH  20  31
ATOM     31  C   UNL     1      -0.762   1.603   1.299  0.00  0.00    +0.127 C 
BRANCH  31  32
ATOM     32  C   UNL     1      -0.050   1.118   0.034  0.00  0.00    +0.025 C 
BRANCH  32  34
ATOM     33  C   UNL     1      -0.714   3.157  -1.249  0.00  0.00    +0.007 C 
ATOM     34  C   UNL     1      -0.796   1.630  -1.200  0.00  0.00    -0.016 C 
ATOM     35  C   UNL     1      -0.158   1.043  -2.461  0.00  0.00    +0.007 C 
ENDBRANCH  32  34
ENDBRANCH  31  32
ENDBRANCH  20  31
ENDBRANCH  19  30
ENDBRANCH   1  19
TORSDOF 10
