REMARK  Name = ZINC01879772
REMARK  8 active torsions:
REMARK  status: ('A' for Active; 'I' for Inactive)
REMARK    1  A    between atoms: C_2  and  C_3
REMARK    2  A    between atoms: C_2  and  N_12
REMARK    3  A    between atoms: C_6  and  N_9
REMARK    4  A    between atoms: N_12  and  N_13
REMARK    5  A    between atoms: C_14  and  C_16
REMARK    6  A    between atoms: C_16  and  S_17
REMARK    7  A    between atoms: S_17  and  C_18
REMARK    8  A    between atoms: N_31  and  C_32
REMARK                            x       y       z     vdW  Elec       q    Type
REMARK                         _______ _______ _______ _____ _____    ______ ____
ROOT
ATOM      1  C   UNL     1       7.928   0.043   0.606  0.00  0.00    +0.178 A 
ATOM      2  N   UNL     1       7.784   1.352   0.638  0.00  0.00    -0.215 NA
ATOM      3  C   UNL     1       8.632   2.145  -0.006  0.00  0.00    +0.117 A 
ATOM      4  C   UNL     1       9.714   1.640  -0.746  0.00  0.00    +0.076 A 
ATOM      5  C   UNL     1      10.562   2.638  -1.401  0.00  0.00    -0.023 A 
ATOM      6  C   UNL     1      10.225   3.933  -1.232  0.00  0.00    -0.004 A 
ATOM      7  S   UNL     1       8.781   3.903  -0.205  0.00  0.00    -0.073 S 
ATOM      8  C   UNL     1      10.925   5.133  -1.793  0.00  0.00    +0.043 C 
ATOM      9  C   UNL     1      12.310   4.697  -2.293  0.00  0.00    +0.005 C 
ATOM     10  C   UNL     1      12.150   3.430  -3.139  0.00  0.00    +0.005 C 
ATOM     11  C   UNL     1      11.775   2.251  -2.242  0.00  0.00    +0.037 C 
ATOM     12  C   UNL     1       9.847   0.216  -0.764  0.00  0.00    +0.268 A 
ATOM     13  O   UNL     1      10.756  -0.312  -1.380  0.00  0.00    -0.267 OA
ATOM     14  N   UNL     1       8.957  -0.533  -0.086  0.00  0.00    -0.255 N 
ENDROOT
BRANCH  14  15
ATOM     15  C   UNL     1       9.084  -1.928  -0.095  0.00  0.00    +0.052 A 
ATOM     16  C   UNL     1       9.838  -2.564   0.882  0.00  0.00    +0.026 A 
ATOM     17  C   UNL     1       9.961  -3.940   0.870  0.00  0.00    +0.002 A 
ATOM     18  C   UNL     1       9.334  -4.684  -0.113  0.00  0.00    +0.000 A 
ATOM     19  C   UNL     1       8.583  -4.053  -1.087  0.00  0.00    +0.002 A 
ATOM     20  C   UNL     1       8.451  -2.678  -1.078  0.00  0.00    +0.026 A 
ENDBRANCH  14  15
BRANCH   1  21
ATOM     21  S   UNL     1       6.784  -0.980   1.472  0.00  0.00    -0.078 S 
BRANCH  21  22
ATOM     22  C   UNL     1       5.624   0.197   2.221  0.00  0.00    +0.174 C 
BRANCH  22  24
ATOM     23  N   UNL     1       3.606   0.116   3.649  0.00  0.00    -0.236 N 
ATOM     24  C   UNL     1       4.578  -0.557   3.002  0.00  0.00    +0.239 C 
ATOM     25  O   UNL     1       4.612  -1.768   3.049  0.00  0.00    -0.273 OA
ATOM     26  H   UNL     1       3.579   1.085   3.612  0.00  0.00    +0.173 HD
BRANCH  23  27
ATOM     27  N   UNL     1       2.634  -0.585   4.375  0.00  0.00    -0.264 N 
ATOM     28  H   UNL     1       2.661  -1.554   4.412  0.00  0.00    +0.170 HD
BRANCH  27  30
ATOM     29  C   UNL     1       1.589   1.443   4.994  0.00  0.00    +0.035 C 
ATOM     30  C   UNL     1       1.627   0.111   5.045  0.00  0.00    +0.044 C 
BRANCH  30  31
ATOM     31  C   UNL     1       0.599  -0.629   5.812  0.00  0.00    -0.003 A 
ATOM     32  C   UNL     1       0.638  -2.022   5.872  0.00  0.00    +0.012 A 
ATOM     33  C   UNL     1      -0.322  -2.706   6.589  0.00  0.00    +0.033 A 
ATOM     34  C   UNL     1      -1.322  -2.014   7.248  0.00  0.00    +0.126 A 
ATOM     35  C   UNL     1      -1.366  -0.632   7.192  0.00  0.00    +0.033 A 
ATOM     36  C   UNL     1      -0.409   0.064   6.482  0.00  0.00    +0.012 A 
BRANCH  34  37
ATOM     37  N   UNL     1      -2.349  -2.754   8.015  0.00  0.00    +0.056 N 
ATOM     38  O   UNL     1      -2.312  -3.961   8.065  0.00  0.00    -0.126 OA
ATOM     39  O   UNL     1      -3.224  -2.151   8.591  0.00  0.00    -0.126 OA
ENDBRANCH  34  37
ENDBRANCH  30  31
ENDBRANCH  27  30
ENDBRANCH  23  27
ENDBRANCH  22  24
ENDBRANCH  21  22
ENDBRANCH   1  21
TORSDOF 8
