REMARK  Name = ZINC39656158
REMARK  7 active torsions:
REMARK  status: ('A' for Active; 'I' for Inactive)
REMARK    1  A    between atoms: C_1  and  C_2
REMARK    2  A    between atoms: C_8  and  C_11
REMARK    3  A    between atoms: C_11  and  C_12
REMARK    4  A    between atoms: C_12  and  N_13
REMARK    5  A    between atoms: C_14  and  C_16
REMARK    6  A    between atoms: C_27  and  C_29
REMARK    7  A    between atoms: C_32  and  C_34
REMARK                            x       y       z     vdW  Elec       q    Type
REMARK                         _______ _______ _______ _____ _____    ______ ____
ROOT
ATOM      1  C   UNL     1       4.623  -0.116  -7.496  0.00  0.00    +0.100 C 
ATOM      2  C   UNL     1       5.647   0.305  -6.418  0.00  0.00    +0.121 C 
ATOM      3  N   UNL     1       6.099  -0.970  -5.812  0.00  0.00    -0.294 N 
ATOM      4  C   UNL     1       6.207  -1.905  -6.958  0.00  0.00    +0.115 C 
ATOM      5  C   UNL     1       4.996  -1.566  -7.850  0.00  0.00    -0.004 C 
ATOM      6  C   UNL     1       5.381  -1.668  -9.323  0.00  0.00    -0.010 C 
ATOM      7  C   UNL     1       5.691  -3.128  -9.665  0.00  0.00    -0.082 C 
ATOM      8  N   UNL     1       4.513  -3.958  -9.387  0.00  0.00    +0.379 N 
ATOM      9  C   UNL     1       4.206  -3.928  -7.952  0.00  0.00    -0.082 C 
ATOM     10  C   UNL     1       3.833  -2.502  -7.538  0.00  0.00    -0.010 C 
ATOM     11  C   UNL     1       6.354  -1.222  -4.513  0.00  0.00    +0.282 C 
ATOM     12  O   UNL     1       6.721  -2.330  -4.169  0.00  0.00    -0.267 OA
ATOM     13  H   UNL     1       3.723  -3.604  -9.906  0.00  0.00    -0.086 HD
ATOM     14  H   UNL     1       4.699  -4.909  -9.671  0.00  0.00    -0.086 HD
ENDROOT
BRANCH  11  15
ATOM     15  C   UNL     1       6.189  -0.162  -3.515  0.00  0.00    +0.190 A 
ATOM     16  C   UNL     1       6.419  -0.282  -2.162  0.00  0.00    +0.055 A 
ATOM     17  C   UNL     1       6.138   0.964  -1.593  0.00  0.00    +0.050 A 
ATOM     18  C   UNL     1       5.751   1.791  -2.608  0.00  0.00    +0.136 A 
ATOM     19  O   UNL     1       5.790   1.104  -3.762  0.00  0.00    -0.450 OA
BRANCH  18  20
ATOM     20  C   UNL     1       5.358   3.207  -2.462  0.00  0.00    +0.017 A 
ATOM     21  C   UNL     1       5.370   3.811  -1.203  0.00  0.00    +0.014 A 
ATOM     22  C   UNL     1       5.003   5.134  -1.073  0.00  0.00    +0.039 A 
ATOM     23  C   UNL     1       4.623   5.864  -2.189  0.00  0.00    +0.123 A 
ATOM     24  C   UNL     1       4.610   5.269  -3.441  0.00  0.00    +0.039 A 
ATOM     25  C   UNL     1       4.980   3.948  -3.584  0.00  0.00    +0.014 A 
ATOM     26  F   UNL     1       4.265   7.159  -2.056  0.00  0.00    -0.205 F 
ENDBRANCH  18  20
ENDBRANCH  11  15
BRANCH   1  28
ATOM     27  N   UNL     1       2.183   0.183  -7.765  0.00  0.00    -0.315 N 
ATOM     28  C   UNL     1       3.223  -0.055  -6.942  0.00  0.00    +0.218 C 
ATOM     29  O   UNL     1       3.033  -0.220  -5.756  0.00  0.00    -0.275 OA
ATOM     30  H   UNL     1       2.335   0.315  -8.714  0.00  0.00    +0.149 HD
BRANCH  27  31
ATOM     31  C   UNL     1       0.821   0.242  -7.226  0.00  0.00    +0.109 C 
BRANCH  31  32
ATOM     32  C   UNL     1      -0.165   0.523  -8.362  0.00  0.00    +0.056 C 
BRANCH  32  40
ATOM     33  C   UNL     1      -2.255   5.368  -6.132  0.00  0.00    +0.044 C 
ATOM     34  C   UNL     1      -2.686   3.946  -6.386  0.00  0.00    -0.050 A 
ATOM     35  C   UNL     1      -3.960   3.536  -6.019  0.00  0.00    +0.005 A 
ATOM     36  C   UNL     1      -4.373   2.241  -6.243  0.00  0.00    +0.026 A 
ATOM     37  C   UNL     1      -3.507   1.333  -6.843  0.00  0.00    +0.047 A 
ATOM     38  N   UNL     1      -3.617   0.006  -7.192  0.00  0.00    -0.360 N 
ATOM     39  C   UNL     1      -2.451  -0.423  -7.765  0.00  0.00    +0.087 A 
ATOM     40  C   UNL     1      -1.565   0.584  -7.808  0.00  0.00    -0.021 A 
ATOM     41  C   UNL     1      -2.216   1.754  -7.214  0.00  0.00    +0.003 A 
ATOM     42  C   UNL     1      -1.820   3.072  -6.982  0.00  0.00    +0.013 A 
ATOM     43  H   UNL     1      -4.404  -0.543  -7.052  0.00  0.00    +0.165 HD
ENDBRANCH  32  40
ENDBRANCH  31  32
ENDBRANCH  27  31
ENDBRANCH   1  28
TORSDOF 6
