REMARK  Name = ZINC14478298
REMARK  5 active torsions:
REMARK  status: ('A' for Active; 'I' for Inactive)
REMARK    1  A    between atoms: C_4  and  C_7
REMARK    2  A    between atoms: C_7  and  O_8
REMARK    3  A    between atoms: O_8  and  C_9
REMARK    4  A    between atoms: C_16  and  C_25
REMARK    5  A    between atoms: C_30  and  N_31
REMARK                            x       y       z     vdW  Elec       q    Type
REMARK                         _______ _______ _______ _____ _____    ______ ____
ROOT
ATOM      1  C   UNL     1      -4.545   2.158  -1.714  0.00  0.00    +0.142 A 
ATOM      2  C   UNL     1      -4.963   0.845  -1.817  0.00  0.00    +0.047 A 
ATOM      3  C   UNL     1      -4.185  -0.174  -1.298  0.00  0.00    +0.004 A 
ATOM      4  C   UNL     1      -2.992   0.128  -0.669  0.00  0.00    +0.006 A 
ATOM      5  C   UNL     1      -2.570   1.437  -0.556  0.00  0.00    -0.016 A 
ATOM      6  C   UNL     1      -3.335   2.476  -1.087  0.00  0.00    +0.074 A 
ATOM      7  N   UNL     1      -2.959   3.820  -1.055  0.00  0.00    -0.334 N 
ATOM      8  C   UNL     1      -1.716   4.158  -0.335  0.00  0.00    +0.107 C 
ATOM      9  C   UNL     1      -0.734   3.038  -0.610  0.00  0.00    +0.029 C 
ATOM     10  C   UNL     1      -1.305   1.789   0.126  0.00  0.00    +0.049 C 
ATOM     11  C   UNL     1      -0.143   0.868   0.180  0.00  0.00    -0.023 C 
ATOM     12  C   UNL     1       0.971   1.593   0.183  0.00  0.00    -0.030 C 
ATOM     13  C   UNL     1       0.625   3.082   0.097  0.00  0.00    +0.033 C 
ATOM     14  H   UNL     1      -3.724   4.403  -0.749  0.00  0.00    +0.147 HD
ENDROOT
BRANCH   8  15
ATOM     15  C   UNL     1      -1.990   4.248   1.145  0.00  0.00    +0.003 A 
ATOM     16  C   UNL     1      -3.093   3.612   1.683  0.00  0.00    +0.008 A 
ATOM     17  C   UNL     1      -3.341   3.691   3.041  0.00  0.00    +0.000 A 
ATOM     18  C   UNL     1      -2.493   4.415   3.858  0.00  0.00    +0.002 A 
ATOM     19  C   UNL     1      -1.393   5.055   3.319  0.00  0.00    +0.033 A 
ATOM     20  C   UNL     1      -1.142   4.972   1.962  0.00  0.00    +0.131 A 
BRANCH  20  21
ATOM     21  N   UNL     1       0.036   5.658   1.384  0.00  0.00    +0.057 N 
ATOM     22  O   UNL     1       1.088   5.683   1.998  0.00  0.00    -0.126 OA
ATOM     23  O   UNL     1      -0.047   6.197   0.295  0.00  0.00    -0.126 OA
ENDBRANCH  20  21
ENDBRANCH   8  15
BRANCH   1  24
ATOM     24  O   UNL     1      -5.319   3.151  -2.228  0.00  0.00    -0.486 OA
BRANCH  24  25
ATOM     25  C   UNL     1      -6.543   2.762  -2.855  0.00  0.00    +0.264 C 
BRANCH  25  29
ATOM     26  C   UNL     1      -8.576   6.236  -4.287  0.00  0.00    +0.000 A 
ATOM     27  C   UNL     1      -7.678   5.574  -5.104  0.00  0.00    +0.000 A 
ATOM     28  C   UNL     1      -7.020   4.451  -4.640  0.00  0.00    +0.007 A 
ATOM     29  C   UNL     1      -7.260   3.988  -3.360  0.00  0.00    -0.010 A 
ATOM     30  C   UNL     1      -8.162   4.646  -2.545  0.00  0.00    +0.007 A 
ATOM     31  C   UNL     1      -8.816   5.773  -3.006  0.00  0.00    +0.000 A 
ENDBRANCH  25  29
ENDBRANCH  24  25
ENDBRANCH   1  24
TORSDOF 5
