REMARK  Name = ZINC16567835
REMARK  9 active torsions:
REMARK  status: ('A' for Active; 'I' for Inactive)
REMARK    1  A    between atoms: C_1  and  C_2
REMARK    2  A    between atoms: C_2  and  C_4
REMARK    3  A    between atoms: C_2  and  N_27
REMARK    4  A    between atoms: C_7  and  S_18
REMARK    5  A    between atoms: N_8  and  C_9
REMARK    6  A    between atoms: C_12  and  N_15
REMARK    7  A    between atoms: S_18  and  C_19
REMARK    8  A    between atoms: C_19  and  C_20
REMARK    9  A    between atoms: N_30  and  C_31
REMARK                            x       y       z     vdW  Elec       q    Type
REMARK                         _______ _______ _______ _____ _____    ______ ____
ROOT
ATOM      1  C   UNL     1       1.549  -6.860  -1.722  0.00  0.00    +0.159 A 
ATOM      2  N   UNL     1       1.441  -6.483  -0.480  0.00  0.00    -0.131 NA
ATOM      3  N   UNL     1       1.504  -5.202  -0.399  0.00  0.00    -0.122 NA
ATOM      4  C   UNL     1       1.646  -4.684  -1.597  0.00  0.00    +0.196 A 
ATOM      5  N   UNL     1       1.683  -5.728  -2.482  0.00  0.00    -0.273 N 
ENDROOT
BRANCH   5   6
ATOM      6  C   UNL     1       1.830  -5.654  -3.874  0.00  0.00    +0.050 A 
ATOM      7  C   UNL     1       0.800  -6.074  -4.705  0.00  0.00    +0.028 A 
ATOM      8  C   UNL     1       0.945  -5.995  -6.077  0.00  0.00    +0.035 A 
ATOM      9  C   UNL     1       2.119  -5.508  -6.622  0.00  0.00    +0.126 A 
ATOM     10  C   UNL     1       3.148  -5.094  -5.797  0.00  0.00    +0.035 A 
ATOM     11  C   UNL     1       3.007  -5.165  -4.425  0.00  0.00    +0.028 A 
BRANCH   9  12
ATOM     12  N   UNL     1       2.273  -5.430  -8.092  0.00  0.00    +0.056 N 
ATOM     13  O   UNL     1       3.307  -5.002  -8.574  0.00  0.00    -0.126 OA
ATOM     14  O   UNL     1       1.367  -5.795  -8.820  0.00  0.00    -0.126 OA
ENDBRANCH   9  12
ENDBRANCH   5   6
BRANCH   1  16
ATOM     15  C   UNL     1       2.865  -8.953  -1.911  0.00  0.00    +0.036 C 
ATOM     16  C   UNL     1       1.529  -8.279  -2.230  0.00  0.00    +0.140 C 
BRANCH  16  17
ATOM     17  N   UNL     1       0.442  -9.015  -1.579  0.00  0.00    -0.290 N 
ATOM     18  C   UNL     1      -0.102 -10.088  -2.186  0.00  0.00    +0.304 C 
ATOM     19  O   UNL     1       0.308 -10.445  -3.273  0.00  0.00    -0.252 OA
ATOM     20  N   UNL     1      -1.102 -10.766  -1.587  0.00  0.00    -0.269 N 
ATOM     21  H   UNL     1       0.115  -8.730  -0.712  0.00  0.00    +0.151 HD
ATOM     22  H   UNL     1      -1.377 -10.529  -0.688  0.00  0.00    +0.156 HD
BRANCH  20  23
ATOM     23  C   UNL     1      -1.743 -11.810  -2.263  0.00  0.00    +0.035 A 
ATOM     24  C   UNL     1      -1.906 -11.750  -3.641  0.00  0.00    +0.023 A 
ATOM     25  C   UNL     1      -2.535 -12.785  -4.306  0.00  0.00    +0.002 A 
ATOM     26  C   UNL     1      -3.010 -13.875  -3.600  0.00  0.00    +0.000 A 
ATOM     27  C   UNL     1      -2.853 -13.935  -2.227  0.00  0.00    +0.002 A 
ATOM     28  C   UNL     1      -2.221 -12.906  -1.557  0.00  0.00    +0.023 A 
ENDBRANCH  20  23
ENDBRANCH  16  17
ENDBRANCH   1  16
BRANCH   4  29
ATOM     29  S   UNL     1       1.773  -2.972  -1.992  0.00  0.00    -0.081 S 
BRANCH  29  30
ATOM     30  C   UNL     1       1.640  -2.257  -0.334  0.00  0.00    +0.112 C 
BRANCH  30  31
ATOM     31  C   UNL     1       1.725  -0.755  -0.426  0.00  0.00    -0.037 A 
ATOM     32  C   UNL     1       0.575  -0.007  -0.589  0.00  0.00    +0.007 A 
ATOM     33  C   UNL     1       0.652   1.370  -0.674  0.00  0.00    +0.038 A 
ATOM     34  C   UNL     1       1.882   2.001  -0.595  0.00  0.00    +0.123 A 
ATOM     35  C   UNL     1       3.034   1.250  -0.432  0.00  0.00    +0.038 A 
ATOM     36  C   UNL     1       2.954  -0.127  -0.347  0.00  0.00    +0.007 A 
ATOM     37  F   UNL     1       1.958   3.347  -0.678  0.00  0.00    -0.205 F 
ENDBRANCH  30  31
ENDBRANCH  29  30
ENDBRANCH   4  29
TORSDOF 8
