REMARK  Name = ZINC36554918
REMARK  15 active torsions:
REMARK  status: ('A' for Active; 'I' for Inactive)
REMARK    1  A    between atoms: C_1  and  C_2
REMARK    2  A    between atoms: C_2  and  C_3
REMARK    3  A    between atoms: N_5  and  C_6
REMARK    4  A    between atoms: N_5  and  C_13
REMARK    5  A    between atoms: C_13  and  C_15
REMARK    6  A    between atoms: C_13  and  C_25
REMARK    7  A    between atoms: C_17  and  N_22
REMARK    8  A    between atoms: N_27  and  C_28
REMARK    9  A    between atoms: C_28  and  C_29
REMARK   10  A    between atoms: C_28  and  C_30
REMARK   11  A    between atoms: C_28  and  C_31
REMARK   12  A    between atoms: C_31  and  C_32
REMARK   13  A    between atoms: C_32  and  C_33
REMARK   14  A    between atoms: C_32  and  C_34
REMARK   15  A    between atoms: C_32  and  C_35
REMARK                            x       y       z     vdW  Elec       q    Type
REMARK                         _______ _______ _______ _____ _____    ______ ____
ROOT
ATOM      1  C   UNL     1       2.107  -1.561  -1.182  0.00  0.00    +0.199 C 
ENDROOT
BRANCH   1   2
ATOM      2  C   UNL     1       3.549  -1.377  -1.578  0.00  0.00    +0.003 A 
ATOM      3  C   UNL     1       4.062  -0.104  -1.748  0.00  0.00    +0.040 A 
ATOM      4  C   UNL     1       5.384   0.066  -2.112  0.00  0.00    +0.127 A 
ATOM      5  C   UNL     1       6.195  -1.037  -2.307  0.00  0.00    +0.034 A 
ATOM      6  C   UNL     1       5.684  -2.310  -2.138  0.00  0.00    +0.022 A 
ATOM      7  C   UNL     1       4.361  -2.480  -1.767  0.00  0.00    +0.047 A 
ATOM      8 CL   UNL     1       3.720  -4.078  -1.547  0.00  0.00    -0.083 Cl
BRANCH   4   9
ATOM      9  N   UNL     1       5.933   1.428  -2.293  0.00  0.00    +0.056 N 
ATOM     10  O   UNL     1       5.224   2.393  -2.123  0.00  0.00    -0.126 OA
ATOM     11  O   UNL     1       7.089   1.577  -2.612  0.00  0.00    -0.126 OA
ENDBRANCH   4   9
ENDBRANCH   1   2
BRANCH   1  12
ATOM     12  C   UNL     1       2.022  -1.808   0.302  0.00  0.00    +0.239 C 
ATOM     13  O   UNL     1       1.371  -1.062   1.004  0.00  0.00    -0.273 OA
ATOM     14  N   UNL     1       2.668  -2.856   0.850  0.00  0.00    -0.308 N 
ATOM     15  H   UNL     1       3.201  -3.442   0.291  0.00  0.00    +0.149 HD
BRANCH  14  16
ATOM     16  C   UNL     1       2.565  -3.110   2.289  0.00  0.00    +0.030 C 
ATOM     17  C   UNL     1       3.281  -1.997   3.056  0.00  0.00    +0.031 C 
ATOM     18  C   UNL     1       1.091  -3.143   2.696  0.00  0.00    +0.031 C 
BRANCH  16  19
ATOM     19  C   UNL     1       3.215  -4.455   2.617  0.00  0.00    +0.031 C 
BRANCH  19  20
ATOM     20  C   UNL     1       2.358  -5.588   2.049  0.00  0.00    -0.036 C 
ATOM     21  C   UNL     1       1.837  -5.190   0.667  0.00  0.00    +0.010 C 
ATOM     22  C   UNL     1       3.204  -6.857   1.929  0.00  0.00    +0.010 C 
ATOM     23  C   UNL     1       1.175  -5.851   2.984  0.00  0.00    +0.010 C 
ENDBRANCH  19  20
ENDBRANCH  16  19
ENDBRANCH  14  16
ENDBRANCH   1  12
BRANCH   1  26
ATOM     24  C   UNL     1       0.459  -0.380  -2.533  0.00  0.00    +0.220 C 
ATOM     25  O   UNL     1      -0.072   0.647  -2.899  0.00  0.00    -0.275 OA
ATOM     26  N   UNL     1       1.349  -0.354  -1.521  0.00  0.00    -0.255 N 
BRANCH  26  27
ATOM     27  C   UNL     1       1.548   0.824  -0.794  0.00  0.00    +0.039 A 
ATOM     28  C   UNL     1       2.573   0.901   0.141  0.00  0.00    +0.023 A 
ATOM     29  C   UNL     1       2.768   2.065   0.856  0.00  0.00    +0.003 A 
ATOM     30  C   UNL     1       1.945   3.156   0.644  0.00  0.00    +0.020 A 
ATOM     31  C   UNL     1       0.923   3.083  -0.286  0.00  0.00    +0.043 A 
ATOM     32  C   UNL     1       0.726   1.922  -1.010  0.00  0.00    +0.043 A 
ATOM     33 CL   UNL     1      -0.109   4.455  -0.549  0.00  0.00    -0.083 Cl
ENDBRANCH  26  27
BRANCH  24  35
ATOM     34  C   UNL     1      -0.993  -1.457  -4.230  0.00  0.00    +0.013 C 
ATOM     35  C   UNL     1       0.124  -1.684  -3.209  0.00  0.00    +0.093 C 
ENDBRANCH  24  35
ENDBRANCH   1  26
TORSDOF 9
