REMARK  Name = ZINC04006554
REMARK  4 active torsions:
REMARK  status: ('A' for Active; 'I' for Inactive)
REMARK    1  A    between atoms: C_6  and  S_7
REMARK    2  A    between atoms: S_7  and  N_10
REMARK    3  A    between atoms: C_13  and  S_18
REMARK    4  A    between atoms: S_18  and  N_21
REMARK                            x       y       z     vdW  Elec       q    Type
REMARK                         _______ _______ _______ _____ _____    ______ ____
ROOT
ATOM      1  C   UNL     1      -3.228   0.076   1.219  0.00  0.00    +0.032 A 
ATOM      2  C   UNL     1      -4.227  -0.874   1.234  0.00  0.00    +0.049 A 
ATOM      3  C   UNL     1      -4.748  -1.356   0.040  0.00  0.00    +0.136 A 
ATOM      4  C   UNL     1      -4.245  -0.866  -1.173  0.00  0.00    +0.030 A 
ATOM      5  C   UNL     1      -3.241   0.096  -1.177  0.00  0.00    +0.040 A 
ATOM      6  C   UNL     1      -2.733   0.560   0.018  0.00  0.00    +0.106 A 
ATOM      7  C   UNL     1      -4.997  -1.569  -2.231  0.00  0.00    +0.030 A 
ATOM      8  C   UNL     1      -4.973  -1.533  -3.620  0.00  0.00    +0.040 A 
ATOM      9  C   UNL     1      -5.829  -2.339  -4.341  0.00  0.00    +0.106 A 
ATOM     10  C   UNL     1      -6.710  -3.182  -3.682  0.00  0.00    +0.032 A 
ATOM     11  C   UNL     1      -6.742  -3.225  -2.304  0.00  0.00    +0.049 A 
ATOM     12  C   UNL     1      -5.887  -2.421  -1.561  0.00  0.00    +0.136 A 
ATOM     13  O   UNL     1      -5.710  -2.267  -0.231  0.00  0.00    -0.455 OA
ENDROOT
BRANCH   6  14
ATOM     14  S   UNL     1      -1.456   1.774   0.019  0.00  0.00    +0.056 S 
ATOM     15  O   UNL     1      -1.536   2.446   1.268  0.00  0.00    -0.153 OA
ATOM     16  O   UNL     1      -1.548   2.460  -1.223  0.00  0.00    -0.153 OA
BRANCH  14  17
ATOM     17  N   UNL     1      -0.011   0.966   0.007  0.00  0.00    -0.204 NA
ATOM     18  H   UNL     1       0.002  -0.004   0.002  0.00  0.00    +0.144 HD
ATOM     19  H   UNL     1       0.822   1.462   0.002  0.00  0.00    +0.144 HD
ENDBRANCH  14  17
ENDBRANCH   6  14
BRANCH   9  20
ATOM     20  S   UNL     1      -5.803  -2.297  -6.102  0.00  0.00    +0.056 S 
ATOM     21  O   UNL     1      -7.079  -2.745  -6.538  0.00  0.00    -0.153 OA
ATOM     22  O   UNL     1      -5.274  -1.031  -6.471  0.00  0.00    -0.153 OA
BRANCH  20  23
ATOM     23  N   UNL     1      -4.707  -3.432  -6.603  0.00  0.00    -0.204 NA
ATOM     24  H   UNL     1      -4.226  -3.964  -5.949  0.00  0.00    +0.144 HD
ATOM     25  H   UNL     1      -4.545  -3.566  -7.550  0.00  0.00    +0.144 HD
ENDBRANCH  20  23
ENDBRANCH   9  20
TORSDOF 4
