REMARK  Name = ZINC30977033
REMARK  13 active torsions:
REMARK  status: ('A' for Active; 'I' for Inactive)
REMARK    1  A    between atoms: C_1  and  C_2
REMARK    2  A    between atoms: C_5  and  S_8
REMARK    3  A    between atoms: S_8  and  C_9
REMARK    4  A    between atoms: C_9  and  C_10
REMARK    5  A    between atoms: C_10  and  N_11
REMARK    6  A    between atoms: C_12  and  C_14
REMARK    7  A    between atoms: N_17  and  C_20
REMARK    8  A    between atoms: C_20  and  C_21
REMARK    9  A    between atoms: C_23  and  C_26
REMARK   10  A    between atoms: C_29  and  C_32
REMARK   11  A    between atoms: C_32  and  C_33
REMARK   12  A    between atoms: C_32  and  C_34
REMARK   13  A    between atoms: C_32  and  C_35
REMARK                            x       y       z     vdW  Elec       q    Type
REMARK                         _______ _______ _______ _____ _____    ______ ____
ROOT
ATOM      1  C   UNL     1       6.277   7.880  -0.016  0.00  0.00    +0.071 C 
ATOM      2  C   UNL     1       6.965   7.311   1.229  0.00  0.00    -0.006 C 
ATOM      3  C   UNL     1       8.430   7.751   1.242  0.00  0.00    -0.077 C 
ATOM      4  N   UNL     1       8.502   9.218   1.249  0.00  0.00    +0.386 N 
ATOM      5  C   UNL     1       7.890   9.785   0.041  0.00  0.00    -0.077 C 
ATOM      6  C   UNL     1       6.408   9.405  -0.009  0.00  0.00    -0.006 C 
ATOM      7  H   UNL     1       7.928   9.577   2.116  0.00  0.00    -0.081 HD
ENDROOT
BRANCH   1   9
ATOM      8  N   UNL     1       4.462   6.200  -0.007  0.00  0.00    -0.314 N 
ATOM      9  C   UNL     1       4.819   7.500  -0.004  0.00  0.00    +0.216 C 
ATOM     10  O   UNL     1       3.967   8.363   0.009  0.00  0.00    -0.276 OA
ATOM     11  H   UNL     1       5.234   5.417  -0.019  0.00  0.00    +0.149 HD
BRANCH   8  12
ATOM     12  C   UNL     1       3.044   5.830   0.004  0.00  0.00    +0.115 C 
BRANCH  12  13
ATOM     13  C   UNL     1       2.915   4.306  -0.003  0.00  0.00    +0.093 C 
BRANCH  13  14
ATOM     14  S   UNL     1       1.159   3.848   0.012  0.00  0.00    -0.124 S 
BRANCH  14  19
ATOM     15  C   UNL     1       1.224  -2.188  -0.022  0.00  0.00    +0.044 C 
ATOM     16  C   UNL     1       1.208  -0.681  -0.014  0.00  0.00    -0.050 A 
ATOM     17  C   UNL     1       0.002  -0.004   0.002  0.00  0.00    +0.004 A 
ATOM     18  C   UNL     1      -0.017   1.377   0.010  0.00  0.00    +0.015 A 
ATOM     19  C   UNL     1       1.178   2.086   0.002  0.00  0.00    +0.008 A 
ATOM     20  C   UNL     1       2.388   1.403  -0.012  0.00  0.00    +0.015 A 
ATOM     21  C   UNL     1       2.399   0.022  -0.021  0.00  0.00    +0.004 A 
ENDBRANCH  14  19
ENDBRANCH  13  14
ENDBRANCH  12  13
ENDBRANCH   8  12
ENDBRANCH   1   9
BRANCH   4  22
ATOM     22  C   UNL     1       9.889   9.677   1.402  0.00  0.00    +0.022 C 
BRANCH  22  23
ATOM     23  C   UNL     1      10.402   9.281   2.762  0.00  0.00    +0.211 A 
ATOM     24  N   UNL     1      11.013   8.163   3.068  0.00  0.00    -0.193 NA
ATOM     25  C   UNL     1      11.286   8.249   4.390  0.00  0.00    +0.202 A 
ATOM     26  N   UNL     1      10.830   9.402   4.804  0.00  0.00    -0.056 NA
ATOM     27  O   UNL     1      10.325  10.007   3.882  0.00  0.00    -0.340 OA
BRANCH  25  28
ATOM     28  C   UNL     1      11.974   7.225   5.216  0.00  0.00    +0.022 A 
ATOM     29  C   UNL     1      12.403   6.033   4.637  0.00  0.00    +0.012 A 
ATOM     30  C   UNL     1      13.047   5.087   5.408  0.00  0.00    +0.005 A 
ATOM     31  C   UNL     1      13.258   5.316   6.756  0.00  0.00    -0.042 A 
ATOM     32  C   UNL     1      12.829   6.496   7.337  0.00  0.00    +0.005 A 
ATOM     33  C   UNL     1      12.189   7.451   6.574  0.00  0.00    +0.012 A 
BRANCH  31  34
ATOM     34  C   UNL     1      13.956   4.276   7.594  0.00  0.00    -0.013 C 
ATOM     35  C   UNL     1      13.025   3.820   8.719  0.00  0.00    +0.015 C 
ATOM     36  C   UNL     1      14.323   3.077   6.718  0.00  0.00    +0.015 C 
ATOM     37  C   UNL     1      15.227   4.877   8.196  0.00  0.00    +0.015 C 
ENDBRANCH  31  34
ENDBRANCH  25  28
ENDBRANCH  22  23
ENDBRANCH   4  22
TORSDOF 9
