REMARK  Name = ZINC43527837
REMARK  11 active torsions:
REMARK  status: ('A' for Active; 'I' for Inactive)
REMARK    1  A    between atoms: C_1  and  C_2
REMARK    2  A    between atoms: C_2  and  C_3
REMARK    3  A    between atoms: C_3  and  C_4
REMARK    4  A    between atoms: C_3  and  C_6
REMARK    5  A    between atoms: C_4  and  C_5
REMARK    6  A    between atoms: C_8  and  C_18
REMARK    7  A    between atoms: C_10  and  C_12
REMARK    8  A    between atoms: C_27  and  C_29
REMARK    9  A    between atoms: C_29  and  N_30
REMARK   10  A    between atoms: C_31  and  C_33
REMARK   11  A    between atoms: C_33  and  C_34
REMARK                            x       y       z     vdW  Elec       q    Type
REMARK                         _______ _______ _______ _____ _____    ______ ____
ROOT
ATOM      1  C   UNL     1       2.062  -5.342  -0.184  0.00  0.00    +0.024 C 
ATOM      2  C   UNL     1       3.488  -4.794  -0.096  0.00  0.00    -0.068 C 
ATOM      3  N   UNL     1       3.895  -4.679   1.307  0.00  0.00    +0.383 N 
ATOM      4  C   UNL     1       3.021  -3.746   2.022  0.00  0.00    -0.078 C 
ATOM      5  C   UNL     1       1.579  -4.260   2.004  0.00  0.00    -0.015 C 
ATOM      6  C   UNL     1       1.535  -5.590   1.235  0.00  0.00    -0.007 C 
ATOM      7  C   UNL     1       2.474  -6.582   1.934  0.00  0.00    -0.010 C 
ATOM      8  C   UNL     1       3.889  -5.992   1.955  0.00  0.00    -0.051 C 
ATOM      9  H   UNL     1       4.834  -4.312   1.338  0.00  0.00    -0.081 HD
ENDROOT
BRANCH   1  12
ATOM     10  C   UNL     1       0.550  -2.094  -1.374  0.00  0.00    +0.048 A 
ATOM     11  C   UNL     1       1.386  -2.981  -0.711  0.00  0.00    +0.047 A 
ATOM     12  C   UNL     1       1.179  -4.341  -0.883  0.00  0.00    +0.047 A 
ATOM     13  N   UNL     1       0.197  -4.749  -1.669  0.00  0.00    -0.232 NA
ATOM     14  C   UNL     1      -0.584  -3.875  -2.288  0.00  0.00    +0.160 A 
ATOM     15  N   UNL     1      -0.416  -2.568  -2.140  0.00  0.00    -0.232 NA
BRANCH  14  16
ATOM     16  C   UNL     1      -1.677  -4.371  -3.161  0.00  0.00    +0.022 A 
ATOM     17  C   UNL     1      -1.893  -5.741  -3.333  0.00  0.00    +0.031 A 
ATOM     18  C   UNL     1      -2.920  -6.159  -4.154  0.00  0.00    +0.111 A 
ATOM     19  N   UNL     1      -3.691  -5.285  -4.772  0.00  0.00    -0.263 NA
ATOM     20  C   UNL     1      -3.521  -3.984  -4.637  0.00  0.00    +0.111 A 
ATOM     21  C   UNL     1      -2.521  -3.481  -3.830  0.00  0.00    +0.031 A 
ENDBRANCH  14  16
BRANCH  10  22
ATOM     22  C   UNL     1       0.739  -0.607  -1.217  0.00  0.00    +0.037 C 
BRANCH  22  24
ATOM     23  C   UNL     1      -1.499  -0.318  -0.142  0.00  0.00    +0.004 C 
ATOM     24  C   UNL     1       0.009  -0.130   0.041  0.00  0.00    +0.006 C 
ENDBRANCH  22  24
BRANCH  22  25
ATOM     25  C   UNL     1       2.230  -0.292  -1.091  0.00  0.00    +0.006 C 
ATOM     26  C   UNL     1       2.432   1.225  -1.078  0.00  0.00    +0.004 C 
ENDBRANCH  22  25
ENDBRANCH  10  22
ENDBRANCH   1  12
BRANCH   8  27
ATOM     27  C   UNL     1       4.356  -5.845   3.404  0.00  0.00    +0.089 C 
BRANCH  27  28
ATOM     28  N   UNL     1       5.664  -5.186   3.431  0.00  0.00    -0.317 N 
ATOM     29  C   UNL     1       6.276  -4.949   4.608  0.00  0.00    +0.218 C 
ATOM     30  O   UNL     1       5.744  -5.283   5.646  0.00  0.00    -0.275 OA
ATOM     31  H   UNL     1       6.090  -4.919   2.601  0.00  0.00    +0.149 HD
BRANCH  29  32
ATOM     32  C   UNL     1       7.622  -4.271   4.636  0.00  0.00    +0.138 C 
BRANCH  32  33
ATOM     33  C   UNL     1       8.082  -4.127   6.063  0.00  0.00    -0.001 A 
ATOM     34  C   UNL     1       8.822  -4.981   6.812  0.00  0.00    +0.011 A 
ATOM     35  C   UNL     1       9.130  -4.636   8.114  0.00  0.00    +0.008 A 
ATOM     36  C   UNL     1       8.682  -3.454   8.605  0.00  0.00    +0.045 A 
ATOM     37  S   UNL     1       7.802  -2.783   7.204  0.00  0.00    -0.101 S 
ENDBRANCH  32  33
ENDBRANCH  29  32
ENDBRANCH  27  28
ENDBRANCH   8  27
TORSDOF 9
