REMARK  Name = ZINC15947408
REMARK  8 active torsions:
REMARK  status: ('A' for Active; 'I' for Inactive)
REMARK    1  A    between atoms: C_1  and  C_2
REMARK    2  A    between atoms: C_2  and  N_3
REMARK    3  A    between atoms: C_11  and  O_28
REMARK    4  A    between atoms: C_13  and  C_16
REMARK    5  A    between atoms: C_17  and  O_27
REMARK    6  A    between atoms: C_18  and  O_24
REMARK    7  A    between atoms: O_24  and  C_25
REMARK    8  A    between atoms: C_25  and  C_26
REMARK                            x       y       z     vdW  Elec       q    Type
REMARK                         _______ _______ _______ _____ _____    ______ ____
ROOT
ATOM      1  N   UNL     1      -1.376  -0.512   0.012  0.00  0.00    +0.383 N 
ATOM      2  C   UNL     1      -1.356  -1.976   0.128  0.00  0.00    -0.074 C 
ATOM      3  C   UNL     1      -2.759  -2.500   0.454  0.00  0.00    +0.018 C 
ATOM      4  C   UNL     1      -3.726  -1.917  -0.567  0.00  0.00    -0.027 A 
ATOM      5  C   UNL     1      -3.361  -0.845  -1.310  0.00  0.00    -0.021 A 
ATOM      6  S   UNL     1      -4.760  -0.516  -2.343  0.00  0.00    -0.080 S 
ATOM      7  C   UNL     1      -5.774  -1.720  -1.823  0.00  0.00    +0.080 A 
ATOM      8  C   UNL     1      -5.058  -2.417  -0.841  0.00  0.00    +0.067 A 
ATOM      9  C   UNL     1      -5.727  -3.578  -0.200  0.00  0.00    +0.220 C 
ATOM     10  N   UNL     1      -7.008  -3.726  -0.401  0.00  0.00    -0.223 NA
ATOM     11  C   UNL     1      -7.839  -2.798  -1.157  0.00  0.00    +0.229 C 
ATOM     12  N   UNL     1      -7.057  -2.075  -2.176  0.00  0.00    -0.313 N 
ATOM     13  C   UNL     1      -2.052  -0.124  -1.239  0.00  0.00    -0.035 C 
ATOM     14  H   UNL     1      -7.425  -1.861  -3.048  0.00  0.00    +0.149 HD
ATOM     15  H   UNL     1      -1.873  -0.120   0.798  0.00  0.00    -0.081 HD
ENDROOT
BRANCH  11  16
ATOM     16  C   UNL     1      -8.449  -1.799  -0.208  0.00  0.00    +0.059 A 
ATOM     17  C   UNL     1      -8.716  -2.162   1.102  0.00  0.00    +0.167 A 
ATOM     18  C   UNL     1      -9.279  -1.237   1.977  0.00  0.00    +0.164 A 
ATOM     19  C   UNL     1      -9.571   0.043   1.535  0.00  0.00    +0.071 A 
ATOM     20  C   UNL     1      -9.303   0.400   0.226  0.00  0.00    +0.063 A 
ATOM     21  C   UNL     1      -8.738  -0.518  -0.643  0.00  0.00    +0.070 A 
ATOM     22 CL   UNL     1      -8.396  -0.062  -2.283  0.00  0.00    -0.082 Cl
ATOM     23 CL   UNL     1      -9.669   2.005  -0.327  0.00  0.00    -0.082 Cl
BRANCH  17  24
ATOM     24  O   UNL     1      -8.429  -3.419   1.533  0.00  0.00    -0.503 OA
ATOM     25  H   UNL     1      -7.538  -3.517   1.896  0.00  0.00    +0.292 HD
ENDBRANCH  17  24
BRANCH  18  26
ATOM     26  O   UNL     1      -9.543  -1.590   3.264  0.00  0.00    -0.489 OA
BRANCH  26  27
ATOM     27  C   UNL     1     -10.121  -0.590   4.105  0.00  0.00    +0.226 C 
ATOM     28  C   UNL     1     -10.345  -1.168   5.504  0.00  0.00    +0.048 C 
ENDBRANCH  26  27
ENDBRANCH  18  26
ENDBRANCH  11  16
BRANCH   1  30
ATOM     29  C   UNL     1      -0.019   1.526   0.010  0.00  0.00    -0.017 C 
ATOM     30  C   UNL     1       0.002  -0.004   0.002  0.00  0.00    -0.082 C 
ENDBRANCH   1  30
BRANCH   9  31
ATOM     31  O   UNL     1      -5.033  -4.452   0.565  0.00  0.00    -0.492 OA
ATOM     32  H   UNL     1      -5.570  -5.168   0.931  0.00  0.00    +0.294 HD
ENDBRANCH   9  31
TORSDOF 6
