REMARK  Name = ZINC13500690
REMARK  10 active torsions:
REMARK  status: ('A' for Active; 'I' for Inactive)
REMARK    1  A    between atoms: C_1  and  C_2
REMARK    2  A    between atoms: C_2  and  C_3
REMARK    3  A    between atoms: C_2  and  C_4
REMARK    4  A    between atoms: C_4  and  C_6
REMARK    5  A    between atoms: C_4  and  N_66
REMARK    6  A    between atoms: N_10  and  C_11
REMARK    7  A    between atoms: C_11  and  C_12
REMARK    8  A    between atoms: C_17  and  C_18
REMARK    9  A    between atoms: C_17  and  N_66
REMARK   10  A    between atoms: C_33  and  N_66
REMARK                            x       y       z     vdW  Elec       q    Type
REMARK                         _______ _______ _______ _____ _____    ______ ____
ROOT
ATOM      1  N   UNL     1       0.155   1.081   2.552  0.00  0.00    +0.391 N 
ATOM      2  H   UNL     1       0.368   1.952   3.052  0.00  0.00    -0.080 HD
ENDROOT
BRANCH   1   3
ATOM      3  C   UNL     1       1.330   0.692   1.743  0.00  0.00    -0.067 C 
ATOM      4  C   UNL     1       1.336   1.454   0.395  0.00  0.00    -0.015 C 
ATOM      5  C   UNL     1       2.835   1.444   0.004  0.00  0.00    -0.002 C 
ATOM      6  C   UNL     1       3.577   1.637   1.342  0.00  0.00    -0.002 C 
ATOM      7  C   UNL     1       2.620   1.159   2.448  0.00  0.00    -0.015 C 
ENDBRANCH   1   3
BRANCH   1   8
ATOM      8  C   UNL     1      -1.011   1.305   1.673  0.00  0.00    +0.006 C 
BRANCH   8   9
ATOM      9  C   UNL     1      -1.283   0.083   0.834  0.00  0.00    +0.139 A 
ATOM     10  N   UNL     1      -1.023  -1.161   1.155  0.00  0.00    -0.115 NA
ATOM     11  N   UNL     1      -1.401  -1.912   0.179  0.00  0.00    -0.023 NA
ATOM     12  N   UNL     1      -1.896  -1.180  -0.757  0.00  0.00    -0.044 NA
ATOM     13  N   UNL     1      -1.846   0.056  -0.389  0.00  0.00    -0.223 N 
BRANCH  13  14
ATOM     14  C   UNL     1      -2.310   1.213  -1.158  0.00  0.00    +0.221 C 
BRANCH  14  15
ATOM     15  C   UNL     1      -1.237   1.635  -2.128  0.00  0.00    +0.126 A 
ATOM     16  C   UNL     1      -1.025   1.107  -3.347  0.00  0.00    +0.046 A 
ATOM     17  C   UNL     1       0.073   1.799  -3.908  0.00  0.00    +0.041 A 
ATOM     18  C   UNL     1       0.472   2.703  -2.995  0.00  0.00    +0.195 A 
ATOM     19  O   UNL     1      -0.325   2.599  -1.919  0.00  0.00    -0.466 OA
ENDBRANCH  14  15
ENDBRANCH  13  14
ENDBRANCH   8   9
BRANCH   8  21
ATOM     20  C   UNL     1      -1.913   2.770   3.484  0.00  0.00    +0.006 C 
ATOM     21  C   UNL     1      -2.236   1.613   2.537  0.00  0.00    -0.024 C 
ATOM     22  C   UNL     1      -3.410   2.002   1.638  0.00  0.00    +0.006 C 
ENDBRANCH   8  21
ENDBRANCH   1   8
BRANCH   1  23
ATOM     23  C   UNL     1      -0.151   0.024   3.538  0.00  0.00    -0.036 C 
BRANCH  23  24
ATOM     24  C   UNL     1       0.964  -0.035   4.551  0.00  0.00    +0.001 A 
ATOM     25  C   UNL     1       0.884   0.701   5.688  0.00  0.00    +0.017 A 
ATOM     26  C   UNL     1       1.979   0.619   6.653  0.00  0.00    +0.002 A 
ATOM     27  C   UNL     1       1.948   1.353   7.846  0.00  0.00    +0.059 A 
ATOM     28  C   UNL     1       2.996   1.257   8.734  0.00  0.00    +0.167 A 
ATOM     29  C   UNL     1       4.090   0.429   8.449  0.00  0.00    +0.168 A 
ATOM     30  C   UNL     1       4.129  -0.298   7.273  0.00  0.00    +0.075 A 
ATOM     31  C   UNL     1       3.080  -0.212   6.367  0.00  0.00    +0.053 A 
ATOM     32  N   UNL     1       3.103  -0.930   5.188  0.00  0.00    -0.322 N 
ATOM     33  H   UNL     1       3.862  -1.501   4.991  0.00  0.00    +0.169 HD
ATOM     34  C   UNL     1       2.088  -0.850   4.310  0.00  0.00    +0.251 A 
ATOM     35  O   UNL     1       2.143  -1.498   3.279  0.00  0.00    -0.268 OA
ATOM     36  O   UNL     1       4.977   0.514   9.482  0.00  0.00    -0.453 OA
ATOM     37  C   UNL     1       4.237   1.074  10.582  0.00  0.00    +0.466 C 
ATOM     38  O   UNL     1       3.208   1.854   9.944  0.00  0.00    -0.453 OA
ENDBRANCH  23  24
ENDBRANCH   1  23
TORSDOF 8
