REMARK  Name = ZINC15486018
REMARK  17 active torsions:
REMARK  status: ('A' for Active; 'I' for Inactive)
REMARK    1  A    between atoms: C_1  and  C_2
REMARK    2  A    between atoms: C_2  and  C_3
REMARK    3  A    between atoms: C_3  and  C_4
REMARK    4  A    between atoms: C_4  and  N_5
REMARK    5  A    between atoms: N_5  and  C_6
REMARK    6  A    between atoms: C_7  and  N_19
REMARK    7  A    between atoms: N_8  and  C_15
REMARK    8  A    between atoms: C_15  and  C_16
REMARK    9  A    between atoms: C_16  and  C_17
REMARK   10  A    between atoms: C_16  and  C_18
REMARK   11  A    between atoms: C_20  and  C_22
REMARK   12  A    between atoms: C_22  and  N_71
REMARK   13  A    between atoms: C_23  and  C_24
REMARK   14  A    between atoms: C_23  and  N_71
REMARK   15  A    between atoms: C_27  and  O_30
REMARK   16  A    between atoms: O_30  and  C_31
REMARK   17  A    between atoms: C_32  and  N_71
REMARK                            x       y       z     vdW  Elec       q    Type
REMARK                         _______ _______ _______ _____ _____    ______ ____
ROOT
ATOM      1  N   UNL     1       0.215   1.489   0.223  0.00  0.00    -0.266 N 
ATOM      2  C   UNL     1       1.174   2.118  -0.487  0.00  0.00    +0.203 C 
ATOM      3  O   UNL     1       1.028   3.278  -0.810  0.00  0.00    -0.277 OA
ENDROOT
BRANCH   1   4
ATOM      4  C   UNL     1      -1.007   2.141   0.491  0.00  0.00    +0.140 A 
ATOM      5  C   UNL     1      -1.039   3.281   1.268  0.00  0.00    +0.127 A 
ATOM      6  N   UNL     1      -2.245   3.895   1.511  0.00  0.00    -0.280 N 
ATOM      7  C   UNL     1      -3.382   3.390   0.997  0.00  0.00    +0.331 A 
ATOM      8  O   UNL     1      -4.439   3.947   1.224  0.00  0.00    -0.246 OA
ATOM      9  N   UNL     1      -3.370   2.280   0.238  0.00  0.00    -0.273 N 
ATOM     10  H   UNL     1      -4.229   1.922  -0.128  0.00  0.00    +0.173 HD
ATOM     11  C   UNL     1      -2.214   1.643  -0.035  0.00  0.00    +0.277 A 
ATOM     12  O   UNL     1      -2.215   0.641  -0.729  0.00  0.00    -0.266 OA
BRANCH   5  13
ATOM     13  N   UNL     1       0.122   3.797   1.792  0.00  0.00    -0.343 N 
ATOM     14  H   UNL     1       0.971   3.366   1.609  0.00  0.00    +0.144 HD
ATOM     15  H   UNL     1       0.092   4.593   2.346  0.00  0.00    +0.144 HD
ENDBRANCH   5  13
BRANCH   6  16
ATOM     16  C   UNL     1      -2.294   5.106   2.334  0.00  0.00    +0.131 C 
BRANCH  16  17
ATOM     17  C   UNL     1      -2.137   6.337   1.439  0.00  0.00    +0.003 C 
ATOM     18  C   UNL     1      -3.338   6.439   0.497  0.00  0.00    +0.009 C 
ATOM     19  C   UNL     1      -2.062   7.593   2.309  0.00  0.00    +0.009 C 
ENDBRANCH  16  17
ENDBRANCH   6  16
ENDBRANCH   1   4
BRANCH   1  20
ATOM     20  C   UNL     1       0.440   0.126   0.712  0.00  0.00    +0.114 C 
BRANCH  20  21
ATOM     21  C   UNL     1       1.096   0.181   2.093  0.00  0.00    +0.019 C 
BRANCH  21  23
ATOM     22  C   UNL     1       1.988  -1.187   3.984  0.00  0.00    +0.004 C 
ATOM     23  C   UNL     1       1.331  -1.242   2.603  0.00  0.00    -0.002 C 
ENDBRANCH  21  23
ENDBRANCH  20  21
ENDBRANCH   1  20
BRANCH   2  24
ATOM     24  C   UNL     1       2.428   1.379  -0.880  0.00  0.00    +0.020 C 
BRANCH  24  25
ATOM     25  N   UNL     1       3.345   2.326  -1.549  0.00  0.00    +0.390 N 
ATOM     26  H   UNL     1       2.805   2.916  -2.192  0.00  0.00    -0.080 HD
BRANCH  25  27
ATOM     27  C   UNL     1       4.364   1.582  -2.320  0.00  0.00    -0.068 C 
ATOM     28  C   UNL     1       4.696   2.124  -3.712  0.00  0.00    -0.017 C 
ATOM     29  C   UNL     1       3.880   0.837  -3.565  0.00  0.00    -0.017 C 
ENDBRANCH  25  27
BRANCH  25  30
ATOM     30  C   UNL     1       4.002   3.188  -0.543  0.00  0.00    -0.042 C 
BRANCH  30  31
ATOM     31  C   UNL     1       4.756   4.279  -1.258  0.00  0.00    -0.064 A 
ATOM     32  C   UNL     1       6.082   4.091  -1.601  0.00  0.00    +0.005 A 
ATOM     33  C   UNL     1       6.774   5.088  -2.261  0.00  0.00    +0.046 A 
ATOM     34  C   UNL     1       6.141   6.284  -2.569  0.00  0.00    +0.120 A 
ATOM     35  C   UNL     1       4.812   6.473  -2.217  0.00  0.00    +0.046 A 
ATOM     36  C   UNL     1       4.123   5.470  -1.563  0.00  0.00    +0.005 A 
BRANCH  34  37
ATOM     37  O   UNL     1       6.821   7.268  -3.213  0.00  0.00    -0.495 OA
ATOM     38  C   UNL     1       8.186   7.005  -3.544  0.00  0.00    +0.277 C 
ENDBRANCH  34  37
ENDBRANCH  30  31
ENDBRANCH  25  30
ENDBRANCH  24  25
ENDBRANCH   2  24
TORSDOF 13
