REMARK  Name = ZINC13500094
REMARK  13 active torsions:
REMARK  status: ('A' for Active; 'I' for Inactive)
REMARK    1  A    between atoms: C_1  and  C_2
REMARK    2  A    between atoms: C_2  and  C_3
REMARK    3  A    between atoms: C_3  and  C_4
REMARK    4  A    between atoms: C_4  and  C_6
REMARK    5  A    between atoms: C_4  and  N_68
REMARK    6  A    between atoms: N_10  and  C_11
REMARK    7  A    between atoms: C_11  and  C_12
REMARK    8  A    between atoms: C_11  and  C_13
REMARK    9  A    between atoms: C_11  and  C_14
REMARK   10  A    between atoms: C_15  and  C_16
REMARK   11  A    between atoms: C_15  and  N_68
REMARK   12  A    between atoms: C_22  and  C_28
REMARK   13  A    between atoms: C_29  and  N_68
REMARK                            x       y       z     vdW  Elec       q    Type
REMARK                         _______ _______ _______ _____ _____    ______ ____
ROOT
ATOM      1  N   UNL     1      -1.021  -2.268  -0.745  0.00  0.00    +0.391 N 
ATOM      2  H   UNL     1      -0.160  -2.700  -0.389  0.00  0.00    -0.080 HD
ENDROOT
BRANCH   1   3
ATOM      3  C   UNL     1      -0.946  -2.191  -2.219  0.00  0.00    -0.067 C 
ATOM      4  C   UNL     1      -0.904  -3.615  -2.810  0.00  0.00    -0.015 C 
ATOM      5  C   UNL     1       0.086  -3.505  -3.997  0.00  0.00    -0.002 C 
ATOM      6  C   UNL     1       1.166  -2.538  -3.454  0.00  0.00    -0.002 C 
ATOM      7  C   UNL     1       0.370  -1.506  -2.628  0.00  0.00    -0.015 C 
ENDBRANCH   1   3
BRANCH   1   8
ATOM      8  C   UNL     1      -1.148  -0.911  -0.174  0.00  0.00    +0.003 C 
BRANCH   8   9
ATOM      9  C   UNL     1      -0.441  -0.882   1.156  0.00  0.00    +0.139 A 
ATOM     10  N   UNL     1      -0.430  -1.834   2.058  0.00  0.00    -0.115 NA
ATOM     11  N   UNL     1       0.283  -1.432   3.052  0.00  0.00    -0.023 NA
ATOM     12  N   UNL     1       0.729  -0.248   2.808  0.00  0.00    -0.043 NA
ATOM     13  N   UNL     1       0.304   0.125   1.649  0.00  0.00    -0.226 N 
BRANCH  13  14
ATOM     14  C   UNL     1       0.584   1.403   0.990  0.00  0.00    +0.059 C 
ATOM     15  C   UNL     1      -0.734   2.072   0.594  0.00  0.00    +0.036 C 
ATOM     16  C   UNL     1       1.351   2.315   1.950  0.00  0.00    +0.036 C 
ATOM     17  C   UNL     1       1.428   1.157  -0.263  0.00  0.00    +0.036 C 
ENDBRANCH  13  14
ENDBRANCH   8   9
BRANCH   8  18
ATOM     18  C   UNL     1      -2.623  -0.553   0.025  0.00  0.00    -0.008 C 
BRANCH  18  20
ATOM     19  C   UNL     1      -4.769  -0.036  -1.145  0.00  0.00    +0.004 C 
ATOM     20  C   UNL     1      -3.319  -0.486  -1.336  0.00  0.00    -0.005 C 
ENDBRANCH  18  20
ENDBRANCH   8  18
ENDBRANCH   1   8
BRANCH   1  21
ATOM     21  C   UNL     1      -2.176  -3.097  -0.341  0.00  0.00    -0.036 C 
BRANCH  21  22
ATOM     22  C   UNL     1      -1.981  -3.533   1.089  0.00  0.00    +0.001 A 
ATOM     23  C   UNL     1      -2.742  -2.989   2.070  0.00  0.00    +0.017 A 
ATOM     24  C   UNL     1      -2.527  -3.434   3.449  0.00  0.00    -0.001 A 
ATOM     25  C   UNL     1      -3.282  -2.910   4.504  0.00  0.00    +0.010 A 
ATOM     26  C   UNL     1      -3.057  -3.346   5.779  0.00  0.00    +0.001 A 
ATOM     27  C   UNL     1      -2.087  -4.306   6.037  0.00  0.00    +0.005 A 
ATOM     28  C   UNL     1      -1.333  -4.836   5.013  0.00  0.00    -0.026 A 
ATOM     29  C   UNL     1      -1.543  -4.407   3.706  0.00  0.00    +0.052 A 
ATOM     30  N   UNL     1      -0.803  -4.921   2.663  0.00  0.00    -0.322 N 
ATOM     31  H   UNL     1      -0.126  -5.591   2.842  0.00  0.00    +0.169 HD
ATOM     32  C   UNL     1      -1.011  -4.510   1.399  0.00  0.00    +0.251 A 
ATOM     33  O   UNL     1      -0.341  -4.989   0.501  0.00  0.00    -0.268 OA
ATOM     34  C   UNL     1      -0.283  -5.876   5.307  0.00  0.00    +0.046 C 
ENDBRANCH  21  22
ENDBRANCH   1  21
TORSDOF 8
