REMARK  Name = ZINC21229372
REMARK  8 active torsions:
REMARK  status: ('A' for Active; 'I' for Inactive)
REMARK    1  A    between atoms: C_1  and  O_2
REMARK    2  A    between atoms: O_2  and  C_3
REMARK    3  A    between atoms: C_6  and  C_9
REMARK    4  A    between atoms: C_14  and  C_24
REMARK    5  A    between atoms: C_26  and  N_33
REMARK    6  A    between atoms: C_27  and  O_32
REMARK    7  A    between atoms: C_28  and  O_30
REMARK    8  A    between atoms: O_30  and  C_31
REMARK                            x       y       z     vdW  Elec       q    Type
REMARK                         _______ _______ _______ _____ _____    ______ ____
ROOT
ATOM      1  C   UNL     1       3.860   7.381  -0.696  0.00  0.00    +0.032 C 
ATOM      2  C   UNL     1       5.084   6.963  -1.507  0.00  0.00    +0.059 C 
ATOM      3  C   UNL     1       5.295   5.462  -1.397  0.00  0.00    +0.017 C 
ATOM      4  C   UNL     1       4.949   4.806  -0.277  0.00  0.00    +0.036 C 
ATOM      5  C   UNL     1       5.107   3.324  -0.034  0.00  0.00    +0.136 C 
ATOM      6  N   UNL     1       5.918   2.639  -1.017  0.00  0.00    -0.331 N 
ATOM      7  C   UNL     1       5.510   2.552  -2.345  0.00  0.00    +0.049 A 
ATOM      8  C   UNL     1       5.184   1.334  -2.921  0.00  0.00    +0.025 A 
ATOM      9  C   UNL     1       4.735   1.298  -4.230  0.00  0.00    +0.002 A 
ATOM     10  C   UNL     1       4.607   2.466  -4.960  0.00  0.00    +0.002 A 
ATOM     11  C   UNL     1       4.950   3.682  -4.394  0.00  0.00    +0.025 A 
ATOM     12  C   UNL     1       5.422   3.716  -3.094  0.00  0.00    +0.052 A 
ATOM     13  N   UNL     1       5.862   4.889  -2.490  0.00  0.00    -0.316 N 
ATOM     14  C   UNL     1       4.377   5.506   0.811  0.00  0.00    +0.163 C 
ATOM     15  O   UNL     1       4.093   4.891   1.821  0.00  0.00    -0.292 OA
ATOM     16  C   UNL     1       4.110   6.981   0.763  0.00  0.00    +0.088 C 
ATOM     17  H   UNL     1       6.872   2.178  -0.719  0.00  0.00    +0.147 HD
ATOM     18  H   UNL     1       6.737   5.357  -2.965  0.00  0.00    +0.152 HD
ENDROOT
BRANCH   1  22
ATOM     19  C   UNL     1       3.318  11.611  -0.965  0.00  0.00    +0.120 A 
ATOM     20  C   UNL     1       2.307  10.754  -1.374  0.00  0.00    +0.046 A 
ATOM     21  C   UNL     1       2.484   9.387  -1.286  0.00  0.00    +0.007 A 
ATOM     22  C   UNL     1       3.669   8.873  -0.791  0.00  0.00    -0.043 A 
ATOM     23  C   UNL     1       4.676   9.725  -0.378  0.00  0.00    +0.007 A 
ATOM     24  C   UNL     1       4.506  11.093  -0.470  0.00  0.00    +0.046 A 
BRANCH  19  26
ATOM     25  C   UNL     1       4.230  13.778  -0.613  0.00  0.00    +0.277 C 
ATOM     26  O   UNL     1       3.146  12.957  -1.052  0.00  0.00    -0.495 OA
ENDBRANCH  19  26
ENDBRANCH   1  22
BRANCH   5  27
ATOM     27  C   UNL     1       3.738   2.693  -0.020  0.00  0.00    -0.017 A 
ATOM     28  C   UNL     1       2.971   2.686  -1.170  0.00  0.00    +0.042 A 
ATOM     29  C   UNL     1       1.715   2.108  -1.163  0.00  0.00    +0.171 A 
ATOM     30  C   UNL     1       1.223   1.534  -0.002  0.00  0.00    +0.189 A 
ATOM     31  C   UNL     1       1.993   1.547   1.157  0.00  0.00    +0.164 A 
ATOM     32  C   UNL     1       3.253   2.122   1.142  0.00  0.00    +0.055 A 
BRANCH  29  33
ATOM     33  N   UNL     1       0.896   2.102  -2.396  0.00  0.00    +0.060 N 
ATOM     34  O   UNL     1       1.329   2.606  -3.417  0.00  0.00    -0.126 OA
ATOM     35  O   UNL     1      -0.210   1.592  -2.390  0.00  0.00    -0.126 OA
ENDBRANCH  29  33
BRANCH  31  36
ATOM     36  O   UNL     1       1.512   0.990   2.301  0.00  0.00    -0.491 OA
ATOM     37  C   UNL     1       2.358   1.039   3.452  0.00  0.00    +0.277 C 
ENDBRANCH  31  36
BRANCH  30  38
ATOM     38  O   UNL     1      -0.012   0.965   0.007  0.00  0.00    -0.502 OA
ATOM     39  H   UNL     1      -0.402   0.510   0.930  0.00  0.00    +0.292 HD
ENDBRANCH  30  38
ENDBRANCH   5  27
TORSDOF 6
