REMARK  Name = ZINC38903169
REMARK  15 active torsions:
REMARK  status: ('A' for Active; 'I' for Inactive)
REMARK    1  A    between atoms: C_1  and  C_2
REMARK    2  A    between atoms: C_2  and  O_3
REMARK    3  A    between atoms: O_3  and  C_4
REMARK    4  A    between atoms: C_9  and  C_10
REMARK    5  A    between atoms: C_10  and  C_11
REMARK    6  A    between atoms: C_11  and  C_12
REMARK    7  A    between atoms: C_12  and  N_13
REMARK    8  A    between atoms: C_14  and  C_16
REMARK    9  A    between atoms: N_21  and  C_23
REMARK   10  A    between atoms: C_23  and  C_24
REMARK   11  A    between atoms: C_26  and  C_29
REMARK   12  A    between atoms: C_32  and  C_35
REMARK   13  A    between atoms: C_35  and  C_36
REMARK   14  A    between atoms: C_35  and  C_37
REMARK   15  A    between atoms: C_35  and  C_38
REMARK                            x       y       z     vdW  Elec       q    Type
REMARK                         _______ _______ _______ _____ _____    ______ ____
ROOT
ATOM      1  C   UNL     1       7.429   1.638  -4.077  0.00  0.00    +0.058 C 
ATOM      2  C   UNL     1       8.323   0.400  -3.952  0.00  0.00    +0.009 C 
ATOM      3  C   UNL     1       9.747   0.844  -3.605  0.00  0.00    -0.018 C 
ATOM      4  C   UNL     1      10.248   1.815  -4.676  0.00  0.00    -0.078 C 
ATOM      5  N   UNL     1       9.368   2.988  -4.729  0.00  0.00    +0.386 N 
ATOM      6  C   UNL     1       8.016   2.580  -5.130  0.00  0.00    -0.065 C 
ATOM      7  H   UNL     1       9.330   3.420  -3.817  0.00  0.00    -0.081 HD
ENDROOT
BRANCH   1   9
ATOM      8  N   UNL     1       5.330   0.382  -3.715  0.00  0.00    -0.315 N 
ATOM      9  C   UNL     1       6.043   1.218  -4.494  0.00  0.00    +0.214 C 
ATOM     10  O   UNL     1       5.570   1.633  -5.531  0.00  0.00    -0.276 OA
ATOM     11  H   UNL     1       5.708   0.050  -2.886  0.00  0.00    +0.149 HD
BRANCH   8  12
ATOM     12  C   UNL     1       3.982  -0.027  -4.120  0.00  0.00    +0.104 C 
BRANCH  12  13
ATOM     13  C   UNL     1       3.397  -0.971  -3.068  0.00  0.00    +0.023 C 
BRANCH  13  14
ATOM     14  C   UNL     1       1.990  -1.397  -3.491  0.00  0.00    +0.040 C 
BRANCH  14  20
ATOM     15  C   UNL     1       0.777  -1.810  -1.336  0.00  0.00    +0.124 A 
ATOM     16  C   UNL     1       0.243  -2.669  -0.386  0.00  0.00    +0.046 A 
ATOM     17  C   UNL     1       0.351  -4.036  -0.554  0.00  0.00    +0.004 A 
ATOM     18  C   UNL     1       0.991  -4.548  -1.667  0.00  0.00    +0.000 A 
ATOM     19  C   UNL     1       1.525  -3.695  -2.615  0.00  0.00    +0.007 A 
ATOM     20  C   UNL     1       1.414  -2.327  -2.455  0.00  0.00    -0.006 A 
BRANCH  15  21
ATOM     21  O   UNL     1       0.671  -0.465  -1.174  0.00  0.00    -0.492 OA
BRANCH  21  23
ATOM     22  C   UNL     1      -0.019   1.526   0.010  0.00  0.00    +0.048 C 
ATOM     23  C   UNL     1       0.002  -0.004   0.002  0.00  0.00    +0.225 C 
ENDBRANCH  21  23
ENDBRANCH  15  21
ENDBRANCH  14  20
ENDBRANCH  13  14
ENDBRANCH  12  13
ENDBRANCH   8  12
ENDBRANCH   1   9
BRANCH   5  24
ATOM     24  C   UNL     1       9.897   3.952  -5.703  0.00  0.00    +0.022 C 
BRANCH  24  25
ATOM     25  C   UNL     1      11.227   4.472  -5.223  0.00  0.00    +0.211 A 
ATOM     26  N   UNL     1      12.390   3.953  -5.495  0.00  0.00    -0.193 NA
ATOM     27  C   UNL     1      13.364   4.670  -4.906  0.00  0.00    +0.202 A 
ATOM     28  N   UNL     1      12.815   5.661  -4.248  0.00  0.00    -0.056 NA
ATOM     29  O   UNL     1      11.414   5.550  -4.450  0.00  0.00    -0.340 OA
BRANCH  27  30
ATOM     30  C   UNL     1      14.819   4.385  -4.987  0.00  0.00    +0.022 A 
ATOM     31  C   UNL     1      15.278   3.298  -5.727  0.00  0.00    +0.012 A 
ATOM     32  C   UNL     1      16.632   3.038  -5.799  0.00  0.00    +0.005 A 
ATOM     33  C   UNL     1      17.531   3.854  -5.138  0.00  0.00    -0.042 A 
ATOM     34  C   UNL     1      17.081   4.935  -4.402  0.00  0.00    +0.005 A 
ATOM     35  C   UNL     1      15.730   5.208  -4.328  0.00  0.00    +0.012 A 
BRANCH  33  36
ATOM     36  C   UNL     1      19.008   3.564  -5.219  0.00  0.00    -0.013 C 
ATOM     37  C   UNL     1      19.459   3.621  -6.680  0.00  0.00    +0.015 C 
ATOM     38  C   UNL     1      19.778   4.607  -4.406  0.00  0.00    +0.015 C 
ATOM     39  C   UNL     1      19.286   2.170  -4.653  0.00  0.00    +0.015 C 
ENDBRANCH  33  36
ENDBRANCH  27  30
ENDBRANCH  24  25
ENDBRANCH   5  24
TORSDOF 11
