REMARK  Name = ZINC11115972
REMARK  8 active torsions:
REMARK  status: ('A' for Active; 'I' for Inactive)
REMARK    1  A    between atoms: C_1  and  C_2
REMARK    2  A    between atoms: C_5  and  C_31
REMARK    3  A    between atoms: C_6  and  N_8
REMARK    4  A    between atoms: C_9  and  C_11
REMARK    5  A    between atoms: C_13  and  C_23
REMARK    6  A    between atoms: C_17  and  C_22
REMARK    7  A    between atoms: C_26  and  O_29
REMARK    8  A    between atoms: O_29  and  C_30
REMARK                            x       y       z     vdW  Elec       q    Type
REMARK                         _______ _______ _______ _____ _____    ______ ____
ROOT
ATOM      1  C   UNL     1      -0.228  -0.491  -1.429  0.00  0.00    +0.165 C 
ATOM      2  C   UNL     1       0.001   0.014   0.004  0.00  0.00    +0.140 C 
ATOM      3  N   UNL     1      -1.044  -0.474   0.901  0.00  0.00    -0.275 N 
ATOM      4  N   UNL     1      -1.098  -1.829   1.035  0.00  0.00    -0.263 N 
ATOM      5  C   UNL     1      -1.603  -2.522   2.106  0.00  0.00    +0.037 A 
ATOM      6  C   UNL     1      -1.504  -3.841   1.851  0.00  0.00    +0.025 A 
ATOM      7  C   UNL     1      -0.908  -3.987   0.579  0.00  0.00    +0.036 A 
ATOM      8  C   UNL     1      -0.664  -2.748   0.113  0.00  0.00    +0.095 A 
ATOM      9  S   UNL     1       0.098  -2.289  -1.417  0.00  0.00    -0.091 S 
ATOM     10  C   UNL     1      -2.173  -1.909   3.359  0.00  0.00    +0.065 C 
ATOM     11  H   UNL     1      -1.945  -0.100   0.644  0.00  0.00    +0.167 HD
ENDROOT
BRANCH   2  12
ATOM     12  C   UNL     1      -0.010   1.521   0.006  0.00  0.00    -0.024 A 
ATOM     13  C   UNL     1      -1.212   2.203   0.013  0.00  0.00    +0.009 A 
ATOM     14  C   UNL     1      -1.225   3.584   0.020  0.00  0.00    +0.046 A 
ATOM     15  C   UNL     1      -0.029   4.287   0.009  0.00  0.00    +0.120 A 
ATOM     16  C   UNL     1       1.177   3.601  -0.004  0.00  0.00    +0.046 A 
ATOM     17  C   UNL     1       1.183   2.219  -0.005  0.00  0.00    +0.009 A 
BRANCH  15  18
ATOM     18  O   UNL     1      -0.038   5.646   0.011  0.00  0.00    -0.495 OA
ATOM     19  C   UNL     1      -1.316   6.286   0.025  0.00  0.00    +0.277 C 
ENDBRANCH  15  18
ENDBRANCH   2  12
BRANCH   1  21
ATOM     20  N   UNL     1       0.326   0.497  -3.628  0.00  0.00    -0.284 N 
ATOM     21  C   UNL     1       0.722   0.197  -2.375  0.00  0.00    +0.233 C 
ATOM     22  O   UNL     1       1.843   0.482  -2.009  0.00  0.00    -0.274 OA
ATOM     23  H   UNL     1      -0.540   0.199  -3.947  0.00  0.00    +0.155 HD
BRANCH  20  29
ATOM     24  C   UNL     1       3.983   3.738  -4.169  0.00  0.00    +0.044 C 
ATOM     25  C   UNL     1       2.946   2.817  -4.757  0.00  0.00    -0.049 A 
ATOM     26  C   UNL     1       2.822   2.703  -6.130  0.00  0.00    +0.004 A 
ATOM     27  C   UNL     1       1.872   1.858  -6.674  0.00  0.00    +0.005 A 
ATOM     28  C   UNL     1       1.047   1.121  -5.847  0.00  0.00    -0.029 A 
ATOM     29  C   UNL     1       1.164   1.238  -4.468  0.00  0.00    +0.037 A 
ATOM     30  C   UNL     1       2.120   2.087  -3.925  0.00  0.00    +0.027 A 
ATOM     31  C   UNL     1       0.016   0.196  -6.440  0.00  0.00    +0.045 C 
ENDBRANCH  20  29
ENDBRANCH   1  21
TORSDOF 4
