REMARK  Name = ZINC33857902
REMARK  10 active torsions:
REMARK  status: ('A' for Active; 'I' for Inactive)
REMARK    1  A    between atoms: C_1  and  C_2
REMARK    2  A    between atoms: C_2  and  C_4
REMARK    3  A    between atoms: C_2  and  N_7
REMARK    4  A    between atoms: C_4  and  C_5
REMARK    5  A    between atoms: C_4  and  C_6
REMARK    6  A    between atoms: C_8  and  C_10
REMARK    7  A    between atoms: C_14  and  C_16
REMARK    8  A    between atoms: C_16  and  S_17
REMARK    9  A    between atoms: S_17  and  C_18
REMARK   10  A    between atoms: N_28  and  C_31
REMARK                            x       y       z     vdW  Elec       q    Type
REMARK                         _______ _______ _______ _____ _____    ______ ____
ROOT
ATOM      1  C   UNL     1      -7.758  -0.674  -5.607  0.00  0.00    +0.192 A 
ATOM      2  N   UNL     1      -8.510   0.269  -6.157  0.00  0.00    -0.207 NA
ATOM      3  C   UNL     1      -9.307  -0.013  -7.182  0.00  0.00    +0.127 A 
ATOM      4  C   UNL     1      -9.342  -1.319  -7.675  0.00  0.00    +0.083 A 
ATOM      5  C   UNL     1      -8.542  -2.273  -7.073  0.00  0.00    +0.135 A 
ATOM      6  N   UNL     1      -7.767  -1.921  -6.057  0.00  0.00    -0.210 NA
ATOM      7 CL   UNL     1      -8.548  -3.911  -7.647  0.00  0.00    -0.062 Cl
ATOM      8  N   UNL     1     -10.092   0.975  -7.754  0.00  0.00    -0.312 N 
ATOM      9  C   UNL     1     -10.229   2.288  -7.108  0.00  0.00    +0.125 C 
ATOM     10  C   UNL     1      -9.829   3.374  -8.116  0.00  0.00    +0.124 C 
ATOM     11  N   UNL     1     -10.539   3.127  -9.378  0.00  0.00    -0.325 N 
ATOM     12  C   UNL     1     -10.402   1.814 -10.024  0.00  0.00    +0.124 C 
ATOM     13  C   UNL     1     -10.798   0.731  -9.020  0.00  0.00    +0.125 C 
ENDROOT
BRANCH  11  14
ATOM     14  C   UNL     1     -11.332   4.125  -9.955  0.00  0.00    +0.065 A 
ATOM     15  C   UNL     1     -10.776   5.019 -10.860  0.00  0.00    +0.026 A 
ATOM     16  C   UNL     1     -11.562   6.003 -11.429  0.00  0.00    +0.002 A 
ATOM     17  C   UNL     1     -12.900   6.099 -11.098  0.00  0.00    +0.003 A 
ATOM     18  C   UNL     1     -13.459   5.211 -10.197  0.00  0.00    +0.040 A 
ATOM     19  C   UNL     1     -12.680   4.220  -9.628  0.00  0.00    +0.144 A 
ATOM     20  F   UNL     1     -13.227   3.349  -8.752  0.00  0.00    -0.204 F 
ENDBRANCH  11  14
BRANCH   1  21
ATOM     21  S   UNL     1      -6.714  -0.258  -4.250  0.00  0.00    -0.081 S 
BRANCH  21  22
ATOM     22  C   UNL     1      -5.886  -1.818  -3.838  0.00  0.00    +0.112 C 
BRANCH  22  27
ATOM     23  C   UNL     1      -2.777  -1.032  -1.829  0.00  0.00    +0.037 A 
ATOM     24  C   UNL     1      -3.245  -1.203  -0.525  0.00  0.00    +0.013 A 
ATOM     25  C   UNL     1      -4.557  -1.570  -0.309  0.00  0.00    +0.001 A 
ATOM     26  C   UNL     1      -5.409  -1.769  -1.382  0.00  0.00    +0.004 A 
ATOM     27  C   UNL     1      -4.952  -1.600  -2.676  0.00  0.00    -0.036 A 
ATOM     28  C   UNL     1      -3.643  -1.228  -2.906  0.00  0.00    +0.017 A 
BRANCH  23  30
ATOM     29  N   UNL     1      -0.539  -0.450  -1.026  0.00  0.00    -0.309 N 
ATOM     30  C   UNL     1      -1.372  -0.638  -2.068  0.00  0.00    +0.244 C 
ATOM     31  O   UNL     1      -0.969  -0.484  -3.205  0.00  0.00    -0.270 OA
ATOM     32  H   UNL     1      -0.860  -0.572  -0.119  0.00  0.00    +0.149 HD
BRANCH  29  34
ATOM     33  C   UNL     1       0.938   1.461  -1.417  0.00  0.00    +0.028 C 
ATOM     34  C   UNL     1       0.854  -0.059  -1.263  0.00  0.00    +0.073 C 
BRANCH  34  35
ATOM     35  C   UNL     1       1.716  -0.501  -0.079  0.00  0.00    +0.003 C 
ATOM     36  C   UNL     1       3.169  -0.094  -0.326  0.00  0.00    +0.009 C 
ATOM     37  C   UNL     1       1.208   0.170   1.199  0.00  0.00    +0.009 C 
ENDBRANCH  34  35
ENDBRANCH  29  34
ENDBRANCH  23  30
ENDBRANCH  22  27
ENDBRANCH  21  22
ENDBRANCH   1  21
TORSDOF 7
