REMARK  Name = ZINC17077524
REMARK  9 active torsions:
REMARK  status: ('A' for Active; 'I' for Inactive)
REMARK    1  A    between atoms: C_1  and  C_2
REMARK    2  A    between atoms: C_2  and  C_3
REMARK    3  A    between atoms: C_2  and  C_4
REMARK    4  A    between atoms: C_2  and  C_5
REMARK    5  A    between atoms: C_8  and  O_22
REMARK    6  A    between atoms: C_9  and  N_11
REMARK    7  A    between atoms: N_11  and  C_12
REMARK    8  A    between atoms: C_12  and  N_14
REMARK    9  A    between atoms: N_14  and  C_15
REMARK                            x       y       z     vdW  Elec       q    Type
REMARK                         _______ _______ _______ _____ _____    ______ ____
ROOT
ATOM      1  N   UNL     1       0.323   0.196  -2.320  0.00  0.00    -0.294 N 
ATOM      2  H   UNL     1      -0.386   0.851  -2.414  0.00  0.00    +0.154 HD
ENDROOT
BRANCH   1   7
ATOM      3  C   UNL     1       1.140  -2.091   0.444  0.00  0.00    -0.040 A 
ATOM      4  C   UNL     1       1.384  -1.194   1.467  0.00  0.00    +0.008 A 
ATOM      5  C   UNL     1       1.281   0.166   1.239  0.00  0.00    +0.047 A 
ATOM      6  C   UNL     1       0.932   0.633  -0.018  0.00  0.00    +0.138 A 
ATOM      7  C   UNL     1       0.681  -0.271  -1.048  0.00  0.00    +0.075 A 
ATOM      8  C   UNL     1       0.791  -1.633  -0.812  0.00  0.00    +0.031 A 
BRANCH   3  10
ATOM      9  C   UNL     1       1.648  -3.808   2.159  0.00  0.00    +0.015 C 
ATOM     10  C   UNL     1       1.253  -3.572   0.700  0.00  0.00    -0.013 C 
ATOM     11  C   UNL     1      -0.093  -4.242   0.421  0.00  0.00    +0.015 C 
ATOM     12  C   UNL     1       2.320  -4.168  -0.220  0.00  0.00    +0.015 C 
ENDBRANCH   3  10
BRANCH   6  13
ATOM     13  O   UNL     1       0.830   1.970  -0.244  0.00  0.00    -0.505 OA
ATOM     14  H   UNL     1       1.654   2.384  -0.536  0.00  0.00    +0.292 HD
ENDBRANCH   6  13
ENDBRANCH   1   7
BRANCH   1  15
ATOM     15  C   UNL     1       0.964  -0.266  -3.412  0.00  0.00    +0.139 C 
ATOM     16  S   UNL     1       2.126  -1.514  -3.259  0.00  0.00    -0.018 S 
BRANCH  15  17
ATOM     17  N   UNL     1       0.690   0.255  -4.625  0.00  0.00    -0.297 N 
ATOM     18  H   UNL     1       0.078   1.003  -4.704  0.00  0.00    +0.154 HD
BRANCH  17  19
ATOM     19  C   UNL     1       1.288  -0.284  -5.769  0.00  0.00    +0.033 A 
ATOM     20  C   UNL     1       2.648  -0.567  -5.775  0.00  0.00    +0.024 A 
ATOM     21  C   UNL     1       3.235  -1.103  -6.905  0.00  0.00    +0.017 A 
ATOM     22  C   UNL     1       2.471  -1.349  -8.032  0.00  0.00    +0.018 A 
ATOM     23  C   UNL     1       1.118  -1.063  -8.030  0.00  0.00    +0.017 A 
ATOM     24  C   UNL     1       0.524  -0.532  -6.902  0.00  0.00    +0.024 A 
ATOM     25 BR   UNL     1       3.280  -2.078  -9.579  0.00  0.00    -0.050 Br
ENDBRANCH  17  19
ENDBRANCH  15  17
ENDBRANCH   1  15
TORSDOF 6
