REMARK  Name = ZINC13500754
REMARK  15 active torsions:
REMARK  status: ('A' for Active; 'I' for Inactive)
REMARK    1  A    between atoms: C_1  and  C_2
REMARK    2  A    between atoms: C_2  and  C_3
REMARK    3  A    between atoms: C_3  and  C_4
REMARK    4  A    between atoms: C_4  and  C_6
REMARK    5  A    between atoms: C_4  and  N_71
REMARK    6  A    between atoms: N_10  and  C_11
REMARK    7  A    between atoms: C_11  and  C_12
REMARK    8  A    between atoms: C_11  and  C_13
REMARK    9  A    between atoms: C_11  and  C_14
REMARK   10  A    between atoms: C_15  and  C_16
REMARK   11  A    between atoms: C_15  and  N_71
REMARK   12  A    between atoms: C_16  and  C_17
REMARK   13  A    between atoms: C_23  and  C_24
REMARK   14  A    between atoms: C_23  and  N_71
REMARK   15  A    between atoms: C_28  and  C_36
REMARK                            x       y       z     vdW  Elec       q    Type
REMARK                         _______ _______ _______ _____ _____    ______ ____
ROOT
ATOM      1  N   UNL     1      -1.727   3.537  -0.727  0.00  0.00    +0.389 N 
ATOM      2  H   UNL     1      -2.510   2.898  -0.905  0.00  0.00    -0.080 HD
ENDROOT
BRANCH   1   3
ATOM      3  C   UNL     1      -1.536   3.668   0.733  0.00  0.00    +0.003 C 
BRANCH   3   4
ATOM      4  C   UNL     1      -1.848   2.343   1.379  0.00  0.00    +0.139 A 
ATOM      5  N   UNL     1      -1.573   1.155   0.900  0.00  0.00    -0.115 NA
ATOM      6  N   UNL     1      -1.997   0.278   1.743  0.00  0.00    -0.023 NA
ATOM      7  N   UNL     1      -2.536   0.876   2.748  0.00  0.00    -0.043 NA
ATOM      8  N   UNL     1      -2.459   2.151   2.563  0.00  0.00    -0.226 N 
BRANCH   8   9
ATOM      9  C   UNL     1      -2.947   3.192   3.470  0.00  0.00    +0.059 C 
ATOM     10  C   UNL     1      -4.108   3.940   2.810  0.00  0.00    +0.036 C 
ATOM     11  C   UNL     1      -3.429   2.550   4.772  0.00  0.00    +0.036 C 
ATOM     12  C   UNL     1      -1.815   4.176   3.774  0.00  0.00    +0.036 C 
ENDBRANCH   8   9
ENDBRANCH   3   4
BRANCH   3  13
ATOM     13  C   UNL     1      -0.091   4.062   1.049  0.00  0.00    -0.008 C 
BRANCH  13  15
ATOM     14  C   UNL     1       1.662   5.809   0.712  0.00  0.00    +0.004 C 
ATOM     15  C   UNL     1       0.260   5.352   0.306  0.00  0.00    -0.005 C 
ENDBRANCH  13  15
ENDBRANCH   3  13
ENDBRANCH   1   3
BRANCH   1  16
ATOM     16  C   UNL     1      -2.041   4.856  -1.315  0.00  0.00    -0.073 C 
BRANCH  16  17
ATOM     17  C   UNL     1      -3.487   5.217  -0.969  0.00  0.00    +0.016 C 
BRANCH  17  18
ATOM     18  C   UNL     1      -3.884   6.468  -1.710  0.00  0.00    -0.049 A 
ATOM     19  C   UNL     1      -3.594   7.709  -1.175  0.00  0.00    +0.003 A 
ATOM     20  C   UNL     1      -3.953   8.857  -1.857  0.00  0.00    +0.000 A 
ATOM     21  C   UNL     1      -4.612   8.763  -3.068  0.00  0.00    +0.000 A 
ATOM     22  C   UNL     1      -4.908   7.522  -3.600  0.00  0.00    +0.000 A 
ATOM     23  C   UNL     1      -4.543   6.374  -2.921  0.00  0.00    +0.003 A 
ENDBRANCH  17  18
ENDBRANCH  16  17
ENDBRANCH   1  16
BRANCH   1  24
ATOM     24  C   UNL     1      -0.505   2.985  -1.349  0.00  0.00    -0.037 C 
BRANCH  24  25
ATOM     25  C   UNL     1      -0.551   1.482  -1.246  0.00  0.00    +0.001 A 
ATOM     26  C   UNL     1      -1.451   0.782  -1.980  0.00  0.00    +0.017 A 
ATOM     27  C   UNL     1      -1.467  -0.677  -1.861  0.00  0.00    -0.001 A 
ATOM     28  C   UNL     1      -2.370  -1.454  -2.595  0.00  0.00    +0.013 A 
ATOM     29  C   UNL     1      -2.363  -2.812  -2.457  0.00  0.00    -0.050 A 
ATOM     30  C   UNL     1      -1.468  -3.430  -1.594  0.00  0.00    +0.005 A 
ATOM     31  C   UNL     1      -0.570  -2.686  -0.861  0.00  0.00    +0.026 A 
ATOM     32  C   UNL     1      -0.558  -1.300  -0.985  0.00  0.00    +0.049 A 
ATOM     33  N   UNL     1       0.329  -0.530  -0.263  0.00  0.00    -0.322 N 
ATOM     34  H   UNL     1       0.955  -0.961   0.340  0.00  0.00    +0.169 HD
ATOM     35  C   UNL     1       0.339   0.809  -0.383  0.00  0.00    +0.251 A 
ATOM     36  O   UNL     1       1.137   1.458   0.271  0.00  0.00    -0.268 OA
ATOM     37  C   UNL     1      -3.336  -3.648  -3.248  0.00  0.00    +0.044 C 
ENDBRANCH  24  25
ENDBRANCH   1  24
TORSDOF 10
