REMARK  Name = ZINC20573754
REMARK  7 active torsions:
REMARK  status: ('A' for Active; 'I' for Inactive)
REMARK    1  A    between atoms: C_1  and  S_2
REMARK    2  A    between atoms: S_2  and  C_3
REMARK    3  A    between atoms: C_3  and  C_4
REMARK    4  A    between atoms: C_4  and  C_5
REMARK    5  A    between atoms: C_5  and  C_7
REMARK    6  A    between atoms: C_5  and  N_24
REMARK    7  A    between atoms: C_25  and  C_27
REMARK                            x       y       z     vdW  Elec       q    Type
REMARK                         _______ _______ _______ _____ _____    ______ ____
ROOT
ATOM      1  C   UNL     1       1.623  -3.815   3.115  0.00  0.00    +0.236 C 
ATOM      2  O   UNL     1       2.616  -4.503   3.232  0.00  0.00    -0.274 OA
ATOM      3  N   UNL     1       0.401  -4.382   3.167  0.00  0.00    -0.300 N 
ATOM      4  C   UNL     1      -0.805  -3.583   2.909  0.00  0.00    +0.110 C 
ATOM      5  C   UNL     1      -1.769  -3.753   4.088  0.00  0.00    +0.047 C 
ATOM      6  C   UNL     1      -2.034  -5.242   4.315  0.00  0.00    +0.064 C 
ATOM      7  C   UNL     1      -0.725  -5.955   4.654  0.00  0.00    +0.047 C 
ATOM      8  C   UNL     1       0.251  -5.810   3.476  0.00  0.00    +0.110 C 
ATOM      9  C   UNL     1      -3.016  -5.416   5.443  0.00  0.00    +0.057 A 
ATOM     10  C   UNL     1      -4.321  -5.723   5.260  0.00  0.00    +0.039 A 
ATOM     11  N   UNL     1      -4.898  -5.804   6.459  0.00  0.00    -0.349 N 
ATOM     12  C   UNL     1      -4.004  -5.559   7.382  0.00  0.00    +0.171 A 
ATOM     13  N   UNL     1      -2.815  -5.311   6.783  0.00  0.00    -0.348 N 
ATOM     14  H   UNL     1      -1.979  -5.099   7.226  0.00  0.00    +0.166 HD
ATOM     15  C   UNL     1      -4.936  -5.919   3.896  0.00  0.00    +0.070 C 
ATOM     16  C   UNL     1      -3.975  -5.329   2.855  0.00  0.00    +0.088 C 
ATOM     17  N   UNL     1      -2.615  -5.829   3.097  0.00  0.00    -0.305 NA
ATOM     18  H   UNL     1      -2.021  -5.663   2.298  0.00  0.00    +0.123 HD
ATOM     19  H   UNL     1      -5.832  -6.011   6.621  0.00  0.00    +0.166 HD
ENDROOT
BRANCH   1  20
ATOM     20  C   UNL     1       1.757  -2.328   2.912  0.00  0.00    +0.160 C 
BRANCH  20  21
ATOM     21  N   UNL     1       3.051  -1.879   3.431  0.00  0.00    -0.297 N 
ATOM     22  C   UNL     1       3.211  -0.600   3.828  0.00  0.00    +0.280 C 
ATOM     23  O   UNL     1       2.280   0.180   3.755  0.00  0.00    -0.267 OA
ATOM     24  H   UNL     1       3.793  -2.501   3.489  0.00  0.00    +0.150 HD
BRANCH  22  25
ATOM     25  C   UNL     1       4.506  -0.150   4.347  0.00  0.00    +0.189 A 
ATOM     26  C   UNL     1       4.801   1.109   4.786  0.00  0.00    +0.054 A 
ATOM     27  C   UNL     1       6.145   1.090   5.191  0.00  0.00    +0.042 A 
ATOM     28  C   UNL     1       6.606  -0.163   4.984  0.00  0.00    +0.196 A 
ATOM     29  O   UNL     1       5.614  -0.909   4.480  0.00  0.00    -0.458 OA
ENDBRANCH  22  25
ENDBRANCH  20  21
BRANCH  20  30
ATOM     30  C   UNL     1       1.666  -2.007   1.419  0.00  0.00    +0.042 C 
BRANCH  30  31
ATOM     31  C   UNL     1       1.660  -0.490   1.223  0.00  0.00    +0.071 C 
BRANCH  31  33
ATOM     32  C   UNL     1       1.555   1.704  -0.608  0.00  0.00    +0.084 C 
ATOM     33  S   UNL     1       1.552  -0.110  -0.548  0.00  0.00    -0.164 S 
ENDBRANCH  31  33
ENDBRANCH  30  31
ENDBRANCH  20  30
ENDBRANCH   1  20
TORSDOF 6
