REMARK  Name = ZINC03683373
REMARK  10 active torsions:
REMARK  status: ('A' for Active; 'I' for Inactive)
REMARK    1  A    between atoms: C_1  and  C_2
REMARK    2  A    between atoms: C_2  and  C_3
REMARK    3  A    between atoms: C_2  and  C_4
REMARK    4  A    between atoms: C_2  and  C_5
REMARK    5  A    between atoms: C_5  and  C_7
REMARK    6  A    between atoms: C_5  and  N_17
REMARK    7  A    between atoms: C_8  and  C_9
REMARK    8  A    between atoms: C_18  and  C_22
REMARK    9  A    between atoms: C_22  and  C_24
REMARK   10  A    between atoms: C_22  and  N_62
REMARK                            x       y       z     vdW  Elec       q    Type
REMARK                         _______ _______ _______ _____ _____    ______ ____
ROOT
ATOM      1  N   UNL     1       5.461  -0.363   2.163  0.00  0.00    -0.223 N 
ATOM      2  C   UNL     1       4.247   0.202   2.026  0.00  0.00    +0.143 A 
ATOM      3  N   UNL     1       4.444   1.408   1.553  0.00  0.00    -0.115 NA
ATOM      4  N   UNL     1       5.714   1.579   1.415  0.00  0.00    -0.023 NA
ATOM      5  N   UNL     1       6.331   0.509   1.779  0.00  0.00    -0.043 NA
ENDROOT
BRANCH   1   6
ATOM      6  C   UNL     1       5.741  -1.714   2.655  0.00  0.00    +0.139 C 
BRANCH   6   8
ATOM      7  C   UNL     1       7.787  -1.810   1.224  0.00  0.00    +0.013 C 
ATOM      8  C   UNL     1       6.472  -2.510   1.571  0.00  0.00    -0.012 C 
ATOM      9  C   UNL     1       6.765  -3.921   2.086  0.00  0.00    +0.013 C 
ATOM     10  C   UNL     1       5.594  -2.595   0.321  0.00  0.00    +0.013 C 
ENDBRANCH   6   8
BRANCH   6  11
ATOM     11  C   UNL     1       6.606  -1.631   3.886  0.00  0.00    +0.001 C 
ATOM     12  C   UNL     1       6.172  -2.128   5.036  0.00  0.00    +0.007 C 
BRANCH  12  13
ATOM     13  C   UNL     1       7.020  -2.046   6.244  0.00  0.00    -0.007 A 
ATOM     14  C   UNL     1       8.281  -1.451   6.175  0.00  0.00    +0.011 A 
ATOM     15  C   UNL     1       9.065  -1.372   7.307  0.00  0.00    +0.020 A 
ATOM     16  C   UNL     1       8.610  -1.893   8.507  0.00  0.00    +0.042 A 
ATOM     17  C   UNL     1       7.364  -2.490   8.580  0.00  0.00    +0.040 A 
ATOM     18  C   UNL     1       6.566  -2.570   7.456  0.00  0.00    +0.049 A 
ATOM     19 CL   UNL     1       5.003  -3.319   7.549  0.00  0.00    -0.083 Cl
ATOM     20 CL   UNL     1       9.607  -1.795   9.925  0.00  0.00    -0.083 Cl
ENDBRANCH  12  13
ENDBRANCH   6  11
ENDBRANCH   1   6
BRANCH   2  21
ATOM     21  C   UNL     1       2.918  -0.432   2.348  0.00  0.00    +0.034 C 
BRANCH  21  27
ATOM     22  C   UNL     1       2.514  -0.608  -0.034  0.00  0.00    -0.049 C 
ATOM     23  C   UNL     1       1.523  -0.255  -1.146  0.00  0.00    +0.141 C 
ATOM     24  O   UNL     1       0.256  -0.854  -0.857  0.00  0.00    -0.383 OA
ATOM     25  C   UNL     1      -0.302  -0.442   0.394  0.00  0.00    +0.141 C 
ATOM     26  C   UNL     1       0.670  -0.796   1.522  0.00  0.00    -0.049 C 
ATOM     27  N   UNL     1       1.966  -0.137   1.255  0.00  0.00    +0.392 N 
ATOM     28  H   UNL     1       1.820   0.879   1.205  0.00  0.00    -0.080 HD
ENDBRANCH  21  27
BRANCH  21  29
ATOM     29  C   UNL     1       2.383   0.147   3.632  0.00  0.00    -0.054 A 
ATOM     30  C   UNL     1       1.886   1.437   3.655  0.00  0.00    +0.002 A 
ATOM     31  C   UNL     1       1.392   1.966   4.832  0.00  0.00    +0.000 A 
ATOM     32  C   UNL     1       1.403   1.210   5.989  0.00  0.00    +0.000 A 
ATOM     33  C   UNL     1       1.905  -0.078   5.968  0.00  0.00    +0.000 A 
ATOM     34  C   UNL     1       2.395  -0.610   4.789  0.00  0.00    +0.002 A 
ENDBRANCH  21  29
ENDBRANCH   2  21
TORSDOF 7
