REMARK  Name = ZINC12503473
REMARK  9 active torsions:
REMARK  status: ('A' for Active; 'I' for Inactive)
REMARK    1  A    between atoms: C_1  and  C_2
REMARK    2  A    between atoms: C_2  and  C_3
REMARK    3  A    between atoms: N_5  and  C_6
REMARK    4  A    between atoms: C_9  and  C_12
REMARK    5  A    between atoms: N_14  and  N_15
REMARK    6  A    between atoms: N_15  and  C_16
REMARK    7  A    between atoms: C_16  and  N_18
REMARK    8  A    between atoms: C_19  and  C_21
REMARK    9  A    between atoms: C_22  and  C_23
REMARK                            x       y       z     vdW  Elec       q    Type
REMARK                         _______ _______ _______ _____ _____    ______ ____
ROOT
ATOM      1  N   UNL     1      -6.390   5.449  -0.326  0.00  0.00    -0.245 N 
ATOM      2  H   UNL     1      -7.199   4.918  -0.271  0.00  0.00    +0.172 HD
ENDROOT
BRANCH   1   5
ATOM      3  C   UNL     1      -5.056   3.484  -0.165  0.00  0.00    +0.260 C 
ATOM      4  O   UNL     1      -6.071   2.818  -0.095  0.00  0.00    -0.269 OA
ATOM      5  N   UNL     1      -5.137   4.824  -0.283  0.00  0.00    -0.231 N 
ATOM      6  H   UNL     1      -4.328   5.356  -0.339  0.00  0.00    +0.173 HD
BRANCH   3  10
ATOM      7  C   UNL     1      -1.258   1.588  -0.035  0.00  0.00    +0.033 A 
ATOM      8  C   UNL     1      -1.339   2.972  -0.152  0.00  0.00    +0.024 A 
ATOM      9  C   UNL     1      -2.569   3.589  -0.199  0.00  0.00    +0.015 A 
ATOM     10  C   UNL     1      -3.736   2.825  -0.119  0.00  0.00    +0.038 A 
ATOM     11  C   UNL     1      -3.651   1.436   0.004  0.00  0.00    +0.015 A 
ATOM     12  C   UNL     1      -2.418   0.824   0.045  0.00  0.00    +0.024 A 
BRANCH   7  15
ATOM     13  C   UNL     1       1.025   1.575   0.617  0.00  0.00    +0.217 C 
ATOM     14  O   UNL     1       0.895   2.696   1.060  0.00  0.00    -0.275 OA
ATOM     15  N   UNL     1      -0.011   0.966   0.007  0.00  0.00    -0.286 N 
ATOM     16  H   UNL     1       0.111   0.097  -0.405  0.00  0.00    +0.155 HD
BRANCH  13  18
ATOM     17  C   UNL     1       3.345   1.767   1.473  0.00  0.00    +0.013 C 
ATOM     18  C   UNL     1       2.347   0.862   0.748  0.00  0.00    +0.093 C 
ENDBRANCH  13  18
ENDBRANCH   7  15
ENDBRANCH   3  10
ENDBRANCH   1   5
BRANCH   1  19
ATOM     19  C   UNL     1      -6.471   6.789  -0.445  0.00  0.00    +0.153 C 
ATOM     20  S   UNL     1      -8.002   7.553  -0.497  0.00  0.00    -0.017 S 
BRANCH  19  21
ATOM     21  N   UNL     1      -5.346   7.528  -0.522  0.00  0.00    -0.263 N 
ATOM     22  C   UNL     1      -5.427   8.868  -0.640  0.00  0.00    +0.242 C 
ATOM     23  O   UNL     1      -6.515   9.411  -0.678  0.00  0.00    -0.270 OA
ATOM     24  H   UNL     1      -4.478   7.095  -0.492  0.00  0.00    +0.157 HD
BRANCH  22  25
ATOM     25  C   UNL     1      -4.207   9.669  -0.724  0.00  0.00    +0.068 C 
ATOM     26  C   UNL     1      -4.288  11.013  -0.843  0.00  0.00    +0.013 C 
BRANCH  26  27
ATOM     27  C   UNL     1      -3.064  11.817  -0.927  0.00  0.00    -0.017 A 
ATOM     28  C   UNL     1      -1.811  11.212  -0.879  0.00  0.00    +0.008 A 
ATOM     29  C   UNL     1      -0.656  11.975  -0.965  0.00  0.00    +0.001 A 
ATOM     30  C   UNL     1      -0.697  13.331  -1.085  0.00  0.00    +0.008 A 
ATOM     31  C   UNL     1      -1.926  14.010  -1.133  0.00  0.00    -0.017 A 
ATOM     32  C   UNL     1      -3.133  13.273  -1.056  0.00  0.00    -0.011 A 
ATOM     33  C   UNL     1      -4.359  13.945  -1.104  0.00  0.00    +0.009 A 
ATOM     34  C   UNL     1      -4.379  15.303  -1.224  0.00  0.00    +0.001 A 
ATOM     35  C   UNL     1      -3.194  16.032  -1.301  0.00  0.00    +0.001 A 
ATOM     36  C   UNL     1      -1.984  15.409  -1.257  0.00  0.00    +0.008 A 
ENDBRANCH  26  27
ENDBRANCH  22  25
ENDBRANCH  19  21
ENDBRANCH   1  19
TORSDOF 8
