REMARK  Name = ZINC13408317
REMARK  3 active torsions:
REMARK  status: ('A' for Active; 'I' for Inactive)
REMARK    1  A    between atoms: C_1  and  C_2
REMARK    2  A    between atoms: C_13  and  O_15
REMARK    3  A    between atoms: C_20  and  C_28
REMARK                            x       y       z     vdW  Elec       q    Type
REMARK                         _______ _______ _______ _____ _____    ______ ____
ROOT
ATOM      1  C   UNL     1      -0.019   1.526   0.010  0.00  0.00    +0.014 C 
ATOM      2  C   UNL     1       0.002  -0.004   0.002  0.00  0.00    -0.003 C 
ATOM      3  C   UNL     1      -1.416  -0.536   0.068  0.00  0.00    +0.010 C 
ATOM      4  C   UNL     1      -2.082   0.091   1.304  0.00  0.00    +0.005 C 
ATOM      5  C   UNL     1      -1.301  -0.221   2.576  0.00  0.00    -0.001 C 
ATOM      6  C   UNL     1       0.164   0.221   2.465  0.00  0.00    -0.004 C 
ATOM      7  C   UNL     1       0.752  -0.526   1.258  0.00  0.00    +0.001 C 
ATOM      8  C   UNL     1       2.206  -0.187   0.913  0.00  0.00    +0.007 C 
ATOM      9  C   UNL     1       2.306  -0.570  -0.589  0.00  0.00    +0.032 C 
ATOM     10  C   UNL     1       0.865  -0.502  -1.153  0.00  0.00    +0.121 C 
ATOM     11  C   UNL     1       0.892  -0.185   3.749  0.00  0.00    +0.004 C 
ATOM     12  C   UNL     1       0.251   0.543   4.929  0.00  0.00    +0.005 C 
ATOM     13  C   UNL     1      -1.225   0.153   5.058  0.00  0.00    +0.003 C 
ATOM     14  C   UNL     1      -1.954   0.485   3.769  0.00  0.00    -0.022 C 
ATOM     15  C   UNL     1      -3.394  -0.031   3.880  0.00  0.00    +0.049 C 
ATOM     16  C   UNL     1      -4.024   0.417   5.163  0.00  0.00    +0.035 C 
ATOM     17  C   UNL     1      -5.370   0.393   5.269  0.00  0.00    +0.257 C 
ATOM     18  O   UNL     1      -5.963   0.789   6.411  0.00  0.00    -0.296 OA
ATOM     19  C   UNL     1      -3.274   0.859   6.254  0.00  0.00    +0.163 C 
ATOM     20  O   UNL     1      -3.854   1.160   7.278  0.00  0.00    -0.292 OA
ATOM     21  C   UNL     1      -1.823   0.982   6.202  0.00  0.00    +0.083 C 
ATOM     22  C   UNL     1      -1.946   1.999   3.547  0.00  0.00    +0.012 C 
ENDROOT
BRANCH  10  23
ATOM     23  O   UNL     1       0.804   0.415  -2.247  0.00  0.00    -0.391 OA
ATOM     24  H   UNL     1       1.333   0.150  -3.012  0.00  0.00    +0.210 HD
ENDBRANCH  10  23
TORSDOF 1
