REMARK  Name = ZINC34858358
REMARK  3 active torsions:
REMARK  status: ('A' for Active; 'I' for Inactive)
REMARK    1  A    between atoms: C_4  and  C_7
REMARK    2  A    between atoms: C_14  and  C_17
REMARK    3  A    between atoms: C_22  and  N_23
REMARK                            x       y       z     vdW  Elec       q    Type
REMARK                         _______ _______ _______ _____ _____    ______ ____
ROOT
ATOM      1  C   UNL     1       3.693  -0.753  -0.034  0.00  0.00    +0.103 C 
ATOM      2  C   UNL     1       4.043  -1.295   1.378  0.00  0.00    +0.079 C 
ATOM      3  C   UNL     1       4.956  -2.487   1.023  0.00  0.00    +0.190 C 
ATOM      4  C   UNL     1       4.917  -3.517   2.117  0.00  0.00    +0.259 C 
ATOM      5  O   UNL     1       4.053  -4.368   2.130  0.00  0.00    -0.271 OA
ATOM      6  N   UNL     1       5.856  -3.482   3.086  0.00  0.00    -0.266 N 
ATOM      7  C   UNL     1       6.905  -2.566   3.031  0.00  0.00    +0.152 C 
ATOM      8  N   UNL     1       7.140  -1.858   1.966  0.00  0.00    -0.169 NA
ATOM      9  N   UNL     1       6.331  -2.030   0.826  0.00  0.00    -0.237 N 
ATOM     10  N   UNL     1       4.395  -3.025  -0.227  0.00  0.00    -0.224 NA
ATOM     11  N   UNL     1       3.617  -1.970  -0.874  0.00  0.00    -0.247 NA
ATOM     12  H   UNL     1       5.800  -4.101   3.830  0.00  0.00    +0.156 HD
ATOM     13  H   UNL     1       6.675  -1.851  -0.063  0.00  0.00    +0.171 HD
ATOM     14  H   UNL     1       3.826  -3.839  -0.047  0.00  0.00    +0.143 HD
ATOM     15  H   UNL     1       2.659  -2.258  -1.007  0.00  0.00    +0.141 HD
ENDROOT
BRANCH   1  19
ATOM     16  C   UNL     1      -0.071   1.267   0.023  0.00  0.00    +0.000 A 
ATOM     17  C   UNL     1       1.105   1.995   0.022  0.00  0.00    +0.000 A 
ATOM     18  C   UNL     1       2.322   1.341   0.004  0.00  0.00    +0.005 A 
ATOM     19  C   UNL     1       2.365  -0.041  -0.013  0.00  0.00    -0.029 A 
ATOM     20  C   UNL     1       1.190  -0.768  -0.011  0.00  0.00    +0.005 A 
ATOM     21  C   UNL     1      -0.028  -0.115   0.005  0.00  0.00    +0.000 A 
ENDBRANCH   1  19
BRANCH   7  22
ATOM     22  C   UNL     1       7.772  -2.393   4.214  0.00  0.00    +0.037 A 
ATOM     23  C   UNL     1       7.469  -3.049   5.408  0.00  0.00    +0.013 A 
ATOM     24  C   UNL     1       8.283  -2.885   6.509  0.00  0.00    +0.001 A 
ATOM     25  C   UNL     1       9.401  -2.072   6.437  0.00  0.00    +0.002 A 
ATOM     26  C   UNL     1       9.714  -1.417   5.261  0.00  0.00    +0.023 A 
ATOM     27  C   UNL     1       8.909  -1.575   4.142  0.00  0.00    +0.035 A 
BRANCH  27  28
ATOM     28  N   UNL     1       9.225  -0.919   2.953  0.00  0.00    -0.357 N 
ATOM     29  H   UNL     1       8.619  -0.965   2.198  0.00  0.00    +0.142 HD
ATOM     30  H   UNL     1      10.052  -0.417   2.882  0.00  0.00    +0.142 HD
ENDBRANCH  27  28
ENDBRANCH   7  22
TORSDOF 3
