REMARK  Name = ZINC20395358
REMARK  16 active torsions:
REMARK  status: ('A' for Active; 'I' for Inactive)
REMARK    1  A    between atoms: C_1  and  C_2
REMARK    2  A    between atoms: C_2  and  O_3
REMARK    3  A    between atoms: O_3  and  C_4
REMARK    4  A    between atoms: C_6  and  C_14
REMARK    5  A    between atoms: C_9  and  O_10
REMARK    6  A    between atoms: O_10  and  C_11
REMARK    7  A    between atoms: C_11  and  C_12
REMARK    8  A    between atoms: C_16  and  C_28
REMARK    9  A    between atoms: N_20  and  C_21
REMARK   10  A    between atoms: C_21  and  C_22
REMARK   11  A    between atoms: C_22  and  C_23
REMARK   12  A    between atoms: C_23  and  N_24
REMARK   13  A    between atoms: N_24  and  C_25
REMARK   14  A    between atoms: N_24  and  C_26
REMARK   15  A    between atoms: C_28  and  C_30
REMARK   16  A    between atoms: C_37  and  C_40
REMARK                            x       y       z     vdW  Elec       q    Type
REMARK                         _______ _______ _______ _____ _____    ______ ____
ROOT
ATOM      1  C   UNL     1      -1.440  -1.408  -0.036  0.00  0.00    +0.145 C 
ATOM      2  C   UNL     1      -2.756  -0.678   0.089  0.00  0.00    +0.076 C 
ATOM      3  C   UNL     1      -3.732  -1.604  -0.058  0.00  0.00    +0.249 C 
ATOM      4  C   UNL     1      -3.115  -2.927  -0.287  0.00  0.00    +0.288 C 
ATOM      5  O   UNL     1      -3.728  -3.962  -0.459  0.00  0.00    -0.266 OA
ATOM      6  N   UNL     1      -1.774  -2.818  -0.272  0.00  0.00    -0.284 N 
ATOM      7  O   UNL     1      -5.061  -1.357  -0.006  0.00  0.00    -0.282 OA
ENDROOT
BRANCH   1  10
ATOM      8  C   UNL     1       1.221  -0.352   2.429  0.00  0.00    +0.162 A 
ATOM      9  C   UNL     1       0.490  -0.481   1.259  0.00  0.00    +0.055 A 
ATOM     10  C   UNL     1      -0.646  -1.268   1.237  0.00  0.00    -0.019 A 
ATOM     11  C   UNL     1      -1.059  -1.923   2.382  0.00  0.00    +0.009 A 
ATOM     12  C   UNL     1      -0.331  -1.803   3.552  0.00  0.00    +0.050 A 
ATOM     13  C   UNL     1       0.808  -1.015   3.581  0.00  0.00    +0.162 A 
BRANCH   8  14
ATOM     14  O   UNL     1       2.339   0.422   2.452  0.00  0.00    -0.489 OA
BRANCH  14  16
ATOM     15  C   UNL     1       4.095   1.714   1.409  0.00  0.00    +0.048 C 
ATOM     16  C   UNL     1       2.767   0.981   1.209  0.00  0.00    +0.226 C 
ENDBRANCH  14  16
ENDBRANCH   8  14
BRANCH  13  17
ATOM     17  O   UNL     1       1.522  -0.891   4.732  0.00  0.00    -0.484 OA
BRANCH  17  18
ATOM     18  C   UNL     1       1.039  -1.601   5.874  0.00  0.00    +0.256 C 
BRANCH  18  19
ATOM     19  C   UNL     1       1.951  -1.345   7.046  0.00  0.00    +0.006 C 
ATOM     20  C   UNL     1       1.444  -1.070   8.223  0.00  0.00    +0.007 C 
ENDBRANCH  18  19
ENDBRANCH  17  18
ENDBRANCH  13  17
ENDBRANCH   1  10
BRANCH   2  21
ATOM     21  C   UNL     1      -2.941   0.757   0.330  0.00  0.00    +0.195 C 
ATOM     22  O   UNL     1      -3.438   1.140   1.373  0.00  0.00    -0.287 OA
BRANCH  21  23
ATOM     23  C   UNL     1      -2.524   1.737  -0.692  0.00  0.00    +0.023 A 
ATOM     24  C   UNL     1      -1.896   1.307  -1.866  0.00  0.00    +0.015 A 
ATOM     25  C   UNL     1      -1.517   2.220  -2.821  0.00  0.00    +0.046 A 
ATOM     26  C   UNL     1      -1.747   3.583  -2.627  0.00  0.00    +0.124 A 
ATOM     27  C   UNL     1      -2.362   4.006  -1.452  0.00  0.00    -0.002 A 
ATOM     28  C   UNL     1      -2.748   3.103  -0.493  0.00  0.00    +0.019 A 
ATOM     29  C   UNL     1      -2.461   5.518  -1.522  0.00  0.00    +0.083 C 
ATOM     30  C   UNL     1      -1.475   5.849  -2.667  0.00  0.00    +0.175 C 
ATOM     31  O   UNL     1      -1.463   4.636  -3.439  0.00  0.00    -0.488 OA
ATOM     32  C   UNL     1      -1.991   7.020  -3.506  0.00  0.00    +0.052 C 
ENDBRANCH  21  23
ENDBRANCH   2  21
BRANCH   6  33
ATOM     33  C   UNL     1      -0.818  -3.912  -0.457  0.00  0.00    +0.107 C 
BRANCH  33  34
ATOM     34  C   UNL     1      -0.482  -4.531   0.901  0.00  0.00    +0.000 C 
BRANCH  34  35
ATOM     35  C   UNL     1       0.517  -5.673   0.708  0.00  0.00    -0.078 C 
BRANCH  35  36
ATOM     36  N   UNL     1       0.839  -6.268   2.012  0.00  0.00    +0.376 N 
ATOM     37  C   UNL     1       1.605  -7.511   1.849  0.00  0.00    -0.097 C 
ATOM     38  C   UNL     1       1.562  -5.312   2.862  0.00  0.00    -0.097 C 
ATOM     39  H   UNL     1      -0.108  -6.517   2.513  0.00  0.00    -0.083 HD
ENDBRANCH  35  36
ENDBRANCH  34  35
ENDBRANCH  33  34
ENDBRANCH   6  33
TORSDOF 12
