REMARK  Name = ZINC02209579
REMARK  7 active torsions:
REMARK  status: ('A' for Active; 'I' for Inactive)
REMARK    1  A    between atoms: C_1  and  C_2
REMARK    2  A    between atoms: C_7  and  C_8
REMARK    3  A    between atoms: C_19  and  C_21
REMARK    4  A    between atoms: C_25  and  O_29
REMARK    5  A    between atoms: C_26  and  O_27
REMARK    6  A    between atoms: O_27  and  C_28
REMARK    7  A    between atoms: O_29  and  C_30
REMARK                            x       y       z     vdW  Elec       q    Type
REMARK                         _______ _______ _______ _____ _____    ______ ____
ROOT
ATOM      1  C   UNL     1      -0.011   0.207   2.200  0.00  0.00    +0.159 C 
ATOM      2  C   UNL     1       1.387   0.754   2.382  0.00  0.00    +0.027 C 
ATOM      3  C   UNL     1       2.085   0.361   3.467  0.00  0.00    +0.083 C 
ATOM      4  C   UNL     1       3.453   0.914   3.638  0.00  0.00    +0.042 A 
ATOM      5  C   UNL     1       4.360   0.344   4.522  0.00  0.00    +0.013 A 
ATOM      6  C   UNL     1       5.624   0.889   4.648  0.00  0.00    +0.001 A 
ATOM      7  C   UNL     1       5.983   1.996   3.898  0.00  0.00    +0.004 A 
ATOM      8  C   UNL     1       5.085   2.569   3.016  0.00  0.00    +0.046 A 
ATOM      9  C   UNL     1       3.816   2.034   2.880  0.00  0.00    +0.131 A 
ATOM     10  O   UNL     1       2.913   2.581   2.027  0.00  0.00    -0.479 OA
ATOM     11  C   UNL     1       1.991   1.698   1.385  0.00  0.00    +0.238 C 
ATOM     12  N   UNL     1       1.564  -0.503   4.372  0.00  0.00    -0.213 NA
ATOM     13  C   UNL     1       0.362  -1.024   4.290  0.00  0.00    +0.237 C 
ATOM     14  N   UNL     1      -0.476  -0.719   3.240  0.00  0.00    -0.208 N 
ATOM     15  N   UNL     1      -1.658  -1.431   3.455  0.00  0.00    -0.251 N 
ATOM     16  C   UNL     1      -1.482  -2.131   4.610  0.00  0.00    +0.203 C 
ATOM     17  N   UNL     1      -0.305  -1.886   5.090  0.00  0.00    -0.205 NA
ATOM     18  H   UNL     1      -2.448  -1.428   2.893  0.00  0.00    +0.171 HD
ENDROOT
BRANCH   1  25
ATOM     19  C   UNL     1      -1.224   1.494  -0.085  0.00  0.00    +0.044 C 
ATOM     20  C   UNL     1      -0.648   0.108  -0.218  0.00  0.00    -0.045 A 
ATOM     21  C   UNL     1      -0.695  -0.546  -1.436  0.00  0.00    +0.004 A 
ATOM     22  C   UNL     1      -0.167  -1.817  -1.558  0.00  0.00    +0.000 A 
ATOM     23  C   UNL     1       0.409  -2.435  -0.464  0.00  0.00    +0.000 A 
ATOM     24  C   UNL     1       0.457  -1.782   0.753  0.00  0.00    +0.006 A 
ATOM     25  C   UNL     1      -0.068  -0.508   0.875  0.00  0.00    -0.018 A 
ENDBRANCH   1  25
BRANCH  11  26
ATOM     26  C   UNL     1       2.715   0.907   0.325  0.00  0.00    +0.042 A 
ATOM     27  C   UNL     1       3.781   0.098   0.674  0.00  0.00    +0.011 A 
ATOM     28  C   UNL     1       4.447  -0.629  -0.295  0.00  0.00    +0.004 A 
ATOM     29  C   UNL     1       4.051  -0.548  -1.618  0.00  0.00    +0.049 A 
ATOM     30  C   UNL     1       2.984   0.261  -1.974  0.00  0.00    +0.162 A 
ATOM     31  C   UNL     1       2.310   0.988  -0.997  0.00  0.00    +0.168 A 
BRANCH  31  32
ATOM     32  O   UNL     1       1.259   1.779  -1.341  0.00  0.00    -0.491 OA
ATOM     33  C   UNL     1       1.541   3.155  -1.604  0.00  0.00    +0.277 C 
ENDBRANCH  31  32
BRANCH  30  34
ATOM     34  O   UNL     1       2.594   0.341  -3.274  0.00  0.00    -0.491 OA
ATOM     35  C   UNL     1       3.329  -0.437  -4.221  0.00  0.00    +0.277 C 
ENDBRANCH  30  34
ENDBRANCH  11  26
TORSDOF 4
