REMARK  Name = ZINC03196013
REMARK  5 active torsions:
REMARK  status: ('A' for Active; 'I' for Inactive)
REMARK    1  A    between atoms: C_4  and  C_7
REMARK    2  A    between atoms: C_7  and  C_9
REMARK    3  A    between atoms: C_14  and  N_15
REMARK    4  A    between atoms: C_16  and  C_18
REMARK    5  A    between atoms: C_21  and  N_23
REMARK                            x       y       z     vdW  Elec       q    Type
REMARK                         _______ _______ _______ _____ _____    ______ ____
ROOT
ATOM      1  C   UNL     1      -2.352   0.646  -0.042  0.00  0.00    +0.045 A 
ATOM      2  C   UNL     1      -3.632   1.183  -0.204  0.00  0.00    +0.033 A 
ATOM      3  C   UNL     1      -3.791   2.539  -0.391  0.00  0.00    +0.042 A 
ATOM      4  C   UNL     1      -2.685   3.377  -0.414  0.00  0.00    +0.022 A 
ATOM      5  C   UNL     1      -1.415   2.862  -0.250  0.00  0.00    +0.025 A 
ATOM      6  C   UNL     1      -1.236   1.498  -0.060  0.00  0.00    +0.045 A 
ATOM      7 CL   UNL     1      -5.381   3.203  -0.599  0.00  0.00    -0.084 Cl
ENDROOT
BRANCH   6   8
ATOM      8  N   UNL     1       0.044   0.978   0.104  0.00  0.00    -0.280 N 
ATOM      9  C   UNL     1       0.986   1.696   0.748  0.00  0.00    +0.255 C 
ATOM     10  O   UNL     1       0.742   2.831   1.113  0.00  0.00    -0.269 OA
ATOM     11  H   UNL     1       0.260   0.100  -0.248  0.00  0.00    +0.155 HD
BRANCH   9  12
ATOM     12  C   UNL     1       2.303   1.109   1.009  0.00  0.00    +0.076 A 
ATOM     13  C   UNL     1       3.399   1.670   1.647  0.00  0.00    +0.023 A 
ATOM     14  C   UNL     1       4.524   0.891   1.759  0.00  0.00    +0.041 A 
ATOM     15  C   UNL     1       4.512  -0.368   1.248  0.00  0.00    +0.164 A 
ATOM     16  S   UNL     1       2.913  -0.515   0.594  0.00  0.00    -0.060 S 
BRANCH  15  17
ATOM     17  N   UNL     1       5.599  -1.373   1.254  0.00  0.00    +0.063 N 
ATOM     18  O   UNL     1       6.671  -1.107   1.766  0.00  0.00    -0.126 OA
ATOM     19  O   UNL     1       5.421  -2.466   0.748  0.00  0.00    -0.126 OA
ENDBRANCH  15  17
ENDBRANCH   9  12
ENDBRANCH   6   8
BRANCH   1  20
ATOM     20  C   UNL     1      -2.174  -0.804   0.153  0.00  0.00    +0.195 C 
ATOM     21  O   UNL     1      -2.283  -1.562  -0.792  0.00  0.00    -0.287 OA
BRANCH  20  25
ATOM     22  C   UNL     1      -1.286  -2.336   4.013  0.00  0.00    +0.000 A 
ATOM     23  C   UNL     1      -1.507  -3.207   2.961  0.00  0.00    +0.001 A 
ATOM     24  C   UNL     1      -1.797  -2.716   1.705  0.00  0.00    +0.012 A 
ATOM     25  C   UNL     1      -1.865  -1.337   1.496  0.00  0.00    +0.022 A 
ATOM     26  C   UNL     1      -1.634  -0.464   2.561  0.00  0.00    +0.012 A 
ATOM     27  C   UNL     1      -1.352  -0.968   3.814  0.00  0.00    +0.001 A 
ENDBRANCH  20  25
ENDBRANCH   1  20
TORSDOF 5
