REMARK  Name = ZINC33005739
REMARK  13 active torsions:
REMARK  status: ('A' for Active; 'I' for Inactive)
REMARK    1  A    between atoms: C_1  and  C_2
REMARK    2  A    between atoms: C_6  and  N_8
REMARK    3  A    between atoms: N_11  and  C_16
REMARK    4  A    between atoms: C_13  and  C_15
REMARK    5  A    between atoms: C_16  and  C_17
REMARK    6  A    between atoms: C_17  and  C_18
REMARK    7  A    between atoms: C_18  and  N_19
REMARK    8  A    between atoms: C_20  and  C_22
REMARK    9  A    between atoms: C_22  and  C_23
REMARK   10  A    between atoms: C_23  and  N_24
REMARK   11  A    between atoms: C_27  and  C_37
REMARK   12  A    between atoms: C_28  and  C_36
REMARK   13  A    between atoms: C_32  and  C_35
REMARK                            x       y       z     vdW  Elec       q    Type
REMARK                         _______ _______ _______ _____ _____    ______ ____
ROOT
ATOM      1  N   UNL     1       7.234   8.601   3.005  0.00  0.00    -0.315 N 
ATOM      2  C   UNL     1       8.290   9.421   3.179  0.00  0.00    +0.215 C 
ATOM      3  O   UNL     1       9.323   9.214   2.578  0.00  0.00    -0.276 OA
ATOM      4  H   UNL     1       6.297   8.789   3.549  0.00  0.00    +0.149 HD
ENDROOT
BRANCH   1   5
ATOM      5  C   UNL     1       7.334   7.461   2.090  0.00  0.00    +0.102 C 
BRANCH   5   6
ATOM      6  C   UNL     1       6.007   6.700   2.077  0.00  0.00    +0.000 C 
BRANCH   6   7
ATOM      7  C   UNL     1       6.112   5.510   1.122  0.00  0.00    -0.077 C 
BRANCH   7  11
ATOM      8  N   UNL     1       2.372   3.909  -0.019  0.00  0.00    -0.331 N 
ATOM      9  C   UNL     1       2.393   4.912   1.056  0.00  0.00    +0.087 C 
ATOM     10  C   UNL     1       3.701   5.703   0.985  0.00  0.00    -0.060 C 
ATOM     11  N   UNL     1       4.837   4.779   1.109  0.00  0.00    +0.382 N 
ATOM     12  C   UNL     1       4.816   3.776   0.035  0.00  0.00    -0.056 C 
ATOM     13  C   UNL     1       3.508   2.985   0.105  0.00  0.00    +0.054 C 
ATOM     14  C   UNL     1       3.465   1.967  -1.037  0.00  0.00    +0.026 C 
ATOM     15  H   UNL     1       4.742   4.250   2.069  0.00  0.00    -0.082 HD
BRANCH   8  21
ATOM     16  C   UNL     1      -0.662   0.660   2.077  0.00  0.00    +0.044 C 
ATOM     17  C   UNL     1      -0.337   1.632   0.972  0.00  0.00    -0.049 A 
ATOM     18  C   UNL     1      -1.242   1.841  -0.053  0.00  0.00    +0.003 A 
ATOM     19  C   UNL     1      -0.945   2.728  -1.071  0.00  0.00    +0.002 A 
ATOM     20  C   UNL     1       0.252   3.417  -1.062  0.00  0.00    +0.023 A 
ATOM     21  C   UNL     1       1.161   3.214  -0.031  0.00  0.00    +0.030 A 
ATOM     22  C   UNL     1       0.862   2.318   0.988  0.00  0.00    +0.026 A 
ENDBRANCH   8  21
ENDBRANCH   7  11
ENDBRANCH   6   7
ENDBRANCH   5   6
ENDBRANCH   1   5
BRANCH   2  23
ATOM     23  C   UNL     1       8.187  10.594   4.119  0.00  0.00    +0.117 C 
BRANCH  23  24
ATOM     24  C   UNL     1       9.514  11.355   4.133  0.00  0.00    +0.135 C 
BRANCH  24  25
ATOM     25  N   UNL     1       9.414  12.495   5.047  0.00  0.00    -0.305 N 
ATOM     26  C   UNL     1       9.749  12.357   6.379  0.00  0.00    +0.071 A 
ATOM     27  C   UNL     1      10.187  11.130   6.871  0.00  0.00    +0.031 A 
ATOM     28  C   UNL     1      10.519  11.005   8.201  0.00  0.00    -0.045 A 
ATOM     29  C   UNL     1      10.421  12.093   9.059  0.00  0.00    -0.045 A 
ATOM     30  C   UNL     1       9.994  13.304   8.599  0.00  0.00    +0.033 A 
ATOM     31  C   UNL     1       9.649  13.460   7.247  0.00  0.00    +0.088 A 
ATOM     32  N   UNL     1       9.228  14.655   6.791  0.00  0.00    -0.245 NA
ATOM     33  C   UNL     1       8.904  14.820   5.541  0.00  0.00    +0.103 A 
ATOM     34  C   UNL     1       8.998  13.699   4.599  0.00  0.00    +0.273 A 
ATOM     35  O   UNL     1       8.700  13.852   3.428  0.00  0.00    -0.266 OA
ATOM     36  C   UNL     1       8.436  16.169   5.059  0.00  0.00    +0.071 C 
ATOM     37  C   UNL     1      10.788  11.934  10.512  0.00  0.00    +0.044 C 
ATOM     38  C   UNL     1      10.993   9.676   8.732  0.00  0.00    +0.044 C 
ENDBRANCH  24  25
ENDBRANCH  23  24
ENDBRANCH   2  23
TORSDOF 8
