REMARK  Name = ZINC04164751
REMARK  9 active torsions:
REMARK  status: ('A' for Active; 'I' for Inactive)
REMARK    1  A    between atoms: C_1  and  O_2
REMARK    2  A    between atoms: O_2  and  C_3
REMARK    3  A    between atoms: C_5  and  C_12
REMARK    4  A    between atoms: C_8  and  O_9
REMARK    5  A    between atoms: O_9  and  C_10
REMARK    6  A    between atoms: C_12  and  C_14
REMARK    7  A    between atoms: C_12  and  N_25
REMARK    8  A    between atoms: C_23  and  O_24
REMARK    9  A    between atoms: N_25  and  C_26
REMARK                            x       y       z     vdW  Elec       q    Type
REMARK                         _______ _______ _______ _____ _____    ______ ____
ROOT
ATOM      1  C   UNL     1       4.808  -0.143   0.047  0.00  0.00    +0.136 C 
ENDROOT
BRANCH   1   2
ATOM      2  C   UNL     1       4.956   0.813  -1.109  0.00  0.00    +0.021 A 
ATOM      3  C   UNL     1       3.825   1.428  -1.639  0.00  0.00    +0.010 A 
ATOM      4  C   UNL     1       3.925   2.297  -2.683  0.00  0.00    +0.010 A 
ATOM      5  C   UNL     1       5.185   2.580  -3.235  0.00  0.00    +0.004 A 
ATOM      6  C   UNL     1       5.328   3.472  -4.315  0.00  0.00    +0.011 A 
ATOM      7  C   UNL     1       6.584   3.700  -4.801  0.00  0.00    +0.020 A 
ATOM      8  C   UNL     1       7.678   3.054  -4.228  0.00  0.00    +0.111 A 
ATOM      9  N   UNL     1       7.540   2.224  -3.223  0.00  0.00    -0.251 NA
ATOM     10  C   UNL     1       6.340   1.958  -2.701  0.00  0.00    +0.113 A 
ATOM     11  C   UNL     1       6.198   1.067  -1.616  0.00  0.00    +0.148 A 
BRANCH  11  12
ATOM     12  O   UNL     1       7.291   0.463  -1.082  0.00  0.00    -0.504 OA
ATOM     13  H   UNL     1       7.513  -0.384  -1.494  0.00  0.00    +0.292 HD
ENDBRANCH  11  12
ENDBRANCH   1   2
BRANCH   1  16
ATOM     14  C   UNL     1       6.381   1.099   3.250  0.00  0.00    +0.163 A 
ATOM     15  C   UNL     1       6.186   0.418   2.058  0.00  0.00    +0.055 A 
ATOM     16  C   UNL     1       5.018   0.598   1.342  0.00  0.00    -0.018 A 
ATOM     17  C   UNL     1       4.043   1.461   1.808  0.00  0.00    +0.025 A 
ATOM     18  C   UNL     1       4.229   2.139   2.999  0.00  0.00    +0.063 A 
ATOM     19  C   UNL     1       5.399   1.963   3.722  0.00  0.00    +0.175 A 
ATOM     20 BR   UNL     1       2.891   3.313   3.638  0.00  0.00    -0.046 Br
BRANCH  14  22
ATOM     21  C   UNL     1       8.495   0.020   3.409  0.00  0.00    +0.277 C 
ATOM     22  O   UNL     1       7.530   0.923   3.955  0.00  0.00    -0.491 OA
ENDBRANCH  14  22
BRANCH  19  23
ATOM     23  O   UNL     1       5.585   2.633   4.891  0.00  0.00    -0.490 OA
ATOM     24  C   UNL     1       6.213   3.914   4.812  0.00  0.00    +0.277 C 
ENDBRANCH  19  23
ENDBRANCH   1  16
BRANCH   1  25
ATOM     25  N   UNL     1       3.464  -0.726   0.030  0.00  0.00    -0.320 N 
ATOM     26  H   UNL     1       2.752  -0.318   0.547  0.00  0.00    +0.148 HD
BRANCH  25  27
ATOM     27  C   UNL     1       3.209  -1.863  -0.728  0.00  0.00    +0.097 A 
ATOM     28  C   UNL     1       4.197  -2.369  -1.566  0.00  0.00    +0.041 A 
ATOM     29  C   UNL     1       3.930  -3.501  -2.313  0.00  0.00    +0.005 A 
ATOM     30  C   UNL     1       2.679  -4.092  -2.198  0.00  0.00    +0.018 A 
ATOM     31  C   UNL     1       1.745  -3.536  -1.347  0.00  0.00    +0.084 A 
ATOM     32  N   UNL     1       1.972  -2.424  -0.598  0.00  0.00    -0.350 N 
ATOM     33  H   UNL     1       1.258  -2.032   0.028  0.00  0.00    +0.166 HD
ENDBRANCH  25  27
ENDBRANCH   1  25
TORSDOF 7
