REMARK  Name = ZINC39061772
REMARK  3 active torsions:
REMARK  status: ('A' for Active; 'I' for Inactive)
REMARK    1  A    between atoms: C_2  and  C_3
REMARK    2  A    between atoms: C_3  and  C_4
REMARK    3  A    between atoms: C_4  and  C_10
REMARK                            x       y       z     vdW  Elec       q    Type
REMARK                         _______ _______ _______ _____ _____    ______ ____
ROOT
ATOM      1  C   UNL     1       1.417   1.997  -0.001  0.00  0.00    +0.055 C 
ATOM      2  C   UNL     1       1.394   3.527  -0.010  0.00  0.00    +0.019 C 
ATOM      3  C   UNL     1       2.819   4.036   0.241  0.00  0.00    +0.005 C 
ATOM      4  C   UNL     1       3.216   3.675   1.674  0.00  0.00    +0.027 C 
ATOM      5  C   UNL     1       2.927   2.228   1.942  0.00  0.00    -0.030 C 
ATOM      6  C   UNL     1       2.141   1.499   1.216  0.00  0.00    -0.016 C 
ENDROOT
BRANCH   1   7
ATOM      7  C   UNL     1       2.123   1.504  -1.238  0.00  0.00    +0.235 C 
ATOM      8  O   UNL     1       1.537   0.803  -2.028  0.00  0.00    -0.300 OA
ENDBRANCH   1   7
BRANCH   1   9
ATOM      9  C   UNL     1      -0.018   1.468   0.010  0.00  0.00    +0.106 C 
BRANCH   9  11
ATOM     10  C   UNL     1       0.018  -1.178  -0.004  0.00  0.00    +0.004 C 
ATOM     11  C   UNL     1       0.002  -0.004   0.002  0.00  0.00    -0.104 C 
ENDBRANCH   9  11
ENDBRANCH   1   9
TORSDOF 3
