REMARK  Name = ZINC13645421
REMARK  7 active torsions:
REMARK  status: ('A' for Active; 'I' for Inactive)
REMARK    1  A    between atoms: C_1  and  C_2
REMARK    2  A    between atoms: C_6  and  C_7
REMARK    3  A    between atoms: C_18  and  S_23
REMARK    4  A    between atoms: S_23  and  N_26
REMARK    5  A    between atoms: N_26  and  C_27
REMARK    6  A    between atoms: C_27  and  C_28
REMARK    7  A    between atoms: C_28  and  C_29
REMARK                            x       y       z     vdW  Elec       q    Type
REMARK                         _______ _______ _______ _____ _____    ______ ____
ROOT
ATOM      1  C   UNL     1       2.008  -4.955  -3.625  0.00  0.00    +0.112 C 
ATOM      2  C   UNL     1       2.550  -4.559  -2.263  0.00  0.00    +0.029 C 
ATOM      3  C   UNL     1       3.860  -5.218  -1.812  0.00  0.00    +0.033 C 
ATOM      4  C   UNL     1       4.453  -4.136  -0.907  0.00  0.00    -0.030 C 
ATOM      5  C   UNL     1       3.994  -2.943  -1.266  0.00  0.00    -0.023 C 
ATOM      6  C   UNL     1       3.099  -3.112  -2.439  0.00  0.00    +0.049 C 
ATOM      7  C   UNL     1       1.946  -2.216  -2.679  0.00  0.00    -0.018 A 
ATOM      8  C   UNL     1       1.911  -0.917  -2.220  0.00  0.00    +0.034 A 
ATOM      9  C   UNL     1       0.817  -0.114  -2.483  0.00  0.00    +0.106 A 
ATOM     10  C   UNL     1      -0.245  -0.611  -3.217  0.00  0.00    +0.030 A 
ATOM     11  C   UNL     1      -0.220  -1.911  -3.679  0.00  0.00    +0.025 A 
ATOM     12  C   UNL     1       0.872  -2.728  -3.415  0.00  0.00    +0.031 A 
ATOM     13  N   UNL     1       0.866  -4.050  -3.878  0.00  0.00    -0.336 N 
ATOM     14  H   UNL     1       0.099  -4.378  -4.373  0.00  0.00    +0.147 HD
ENDROOT
BRANCH   1  20
ATOM     15  C   UNL     1       3.945  -7.092  -4.683  0.00  0.00    +0.044 C 
ATOM     16  C   UNL     1       3.943  -5.670  -5.182  0.00  0.00    -0.038 A 
ATOM     17  C   UNL     1       4.835  -5.269  -6.159  0.00  0.00    +0.011 A 
ATOM     18  C   UNL     1       4.807  -3.983  -6.586  0.00  0.00    +0.046 A 
ATOM     19  S   UNL     1       3.486  -3.295  -5.601  0.00  0.00    -0.099 S 
ATOM     20  C   UNL     1       3.066  -4.766  -4.681  0.00  0.00    +0.013 A 
ENDBRANCH   1  20
BRANCH   9  21
ATOM     21  S   UNL     1       0.778   1.545  -1.890  0.00  0.00    +0.058 S 
ATOM     22  O   UNL     1      -0.109   2.260  -2.739  0.00  0.00    -0.153 OA
ATOM     23  O   UNL     1       2.130   1.938  -1.696  0.00  0.00    -0.153 OA
BRANCH  21  24
ATOM     24  N   UNL     1       0.076   1.512  -0.391  0.00  0.00    -0.190 NA
ATOM     25  H   UNL     1      -0.776   1.953  -0.244  0.00  0.00    +0.148 HD
BRANCH  24  26
ATOM     26  C   UNL     1       0.741   0.818   0.715  0.00  0.00    +0.110 C 
BRANCH  26  27
ATOM     27  C   UNL     1       0.103   1.242   2.040  0.00  0.00    +0.052 C 
BRANCH  27  28
ATOM     28  C   UNL     1       0.787   0.527   3.177  0.00  0.00    -0.046 A 
ATOM     29  C   UNL     1       0.311  -0.696   3.611  0.00  0.00    +0.003 A 
ATOM     30  C   UNL     1       0.941  -1.353   4.652  0.00  0.00    +0.000 A 
ATOM     31  C   UNL     1       2.041  -0.782   5.264  0.00  0.00    +0.000 A 
ATOM     32  C   UNL     1       2.514   0.443   4.833  0.00  0.00    +0.000 A 
ATOM     33  C   UNL     1       1.887   1.098   3.790  0.00  0.00    +0.003 A 
ENDBRANCH  27  28
ENDBRANCH  26  27
ENDBRANCH  24  26
ENDBRANCH  21  24
ENDBRANCH   9  21
TORSDOF 6
