REMARK  Name = ZINC03051801
REMARK  10 active torsions:
REMARK  status: ('A' for Active; 'I' for Inactive)
REMARK    1  A    between atoms: C_1  and  O_2
REMARK    2  A    between atoms: O_2  and  C_3
REMARK    3  A    between atoms: C_6  and  N_29
REMARK    4  A    between atoms: C_8  and  N_9
REMARK    5  A    between atoms: N_9  and  C_10
REMARK    6  A    between atoms: C_10  and  N_12
REMARK    7  A    between atoms: N_12  and  C_13
REMARK    8  A    between atoms: C_13  and  C_15
REMARK    9  A    between atoms: C_13  and  N_19
REMARK   10  A    between atoms: C_20  and  C_22
REMARK                            x       y       z     vdW  Elec       q    Type
REMARK                         _______ _______ _______ _____ _____    ______ ____
ROOT
ATOM      1  N   UNL     1       3.239   1.242  -1.298  0.00  0.00    -0.305 N 
ATOM      2  H   UNL     1       3.475   2.107  -1.667  0.00  0.00    +0.150 HD
ENDROOT
BRANCH   1   3
ATOM      3  C   UNL     1       3.217   0.153  -2.093  0.00  0.00    +0.136 C 
ATOM      4  S   UNL     1       2.800  -1.374  -1.441  0.00  0.00    -0.019 S 
BRANCH   3   5
ATOM      5  N   UNL     1       3.524   0.267  -3.400  0.00  0.00    -0.294 N 
ATOM      6  H   UNL     1       3.699   1.141  -3.783  0.00  0.00    +0.154 HD
BRANCH   5  12
ATOM      7  C   UNL     1       4.671  -1.066  -5.063  0.00  0.00    +0.141 A 
ATOM      8  C   UNL     1       4.734  -2.201  -5.855  0.00  0.00    +0.050 A 
ATOM      9  C   UNL     1       3.718  -3.138  -5.801  0.00  0.00    +0.036 A 
ATOM     10  C   UNL     1       2.642  -2.949  -4.955  0.00  0.00    +0.128 A 
ATOM     11  C   UNL     1       2.575  -1.821  -4.158  0.00  0.00    +0.059 A 
ATOM     12  C   UNL     1       3.590  -0.877  -4.206  0.00  0.00    +0.077 A 
BRANCH  10  13
ATOM     13  N   UNL     1       1.558  -3.956  -4.902  0.00  0.00    +0.056 N 
ATOM     14  O   UNL     1       0.609  -3.790  -4.157  0.00  0.00    -0.126 OA
ATOM     15  O   UNL     1       1.615  -4.950  -5.603  0.00  0.00    -0.126 OA
ENDBRANCH  10  13
BRANCH   7  17
ATOM     16  C   UNL     1       6.745  -0.401  -6.020  0.00  0.00    +0.277 C 
ATOM     17  O   UNL     1       5.667  -0.141  -5.119  0.00  0.00    -0.493 OA
ENDBRANCH   7  17
ENDBRANCH   5  12
ENDBRANCH   3   5
ENDBRANCH   1   3
BRANCH   1  18
ATOM     18  C   UNL     1       2.905   1.118   0.123  0.00  0.00    +0.211 C 
BRANCH  18  19
ATOM     19  C   UNL     1       3.923   1.900   0.956  0.00  0.00    +0.225 C 
ATOM     20 CL   UNL     1       3.513   1.747   2.705  0.00  0.00    -0.080 Cl
ATOM     21 CL   UNL     1       5.574   1.235   0.665  0.00  0.00    -0.080 Cl
ATOM     22 CL   UNL     1       3.883   3.638   0.478  0.00  0.00    -0.080 Cl
ENDBRANCH  18  19
BRANCH  18  23
ATOM     23  N   UNL     1       1.564   1.658   0.359  0.00  0.00    -0.289 N 
ATOM     24  C   UNL     1       0.528   0.822   0.568  0.00  0.00    +0.247 C 
ATOM     25  O   UNL     1       0.706  -0.381   0.561  0.00  0.00    -0.270 OA
ATOM     26  H   UNL     1       1.421   2.618   0.364  0.00  0.00    +0.151 HD
BRANCH  24  27
ATOM     27  C   UNL     1      -0.826   1.366   0.800  0.00  0.00    +0.055 A 
ATOM     28  C   UNL     1      -1.034   2.747   0.814  0.00  0.00    +0.014 A 
ATOM     29  C   UNL     1      -2.301   3.249   1.025  0.00  0.00    +0.001 A 
ATOM     30  C   UNL     1      -3.364   2.388   1.234  0.00  0.00    +0.001 A 
ATOM     31  C   UNL     1      -3.166   1.019   1.228  0.00  0.00    +0.021 A 
ATOM     32  C   UNL     1      -1.903   0.502   1.012  0.00  0.00    +0.053 A 
ATOM     33 CL   UNL     1      -1.655  -1.216   1.004  0.00  0.00    -0.083 Cl
ENDBRANCH  24  27
ENDBRANCH  18  23
ENDBRANCH   1  18
TORSDOF 9
