REMARK  Name = ZINC39763777
REMARK  6 active torsions:
REMARK  status: ('A' for Active; 'I' for Inactive)
REMARK    1  A    between atoms: C_1  and  C_2
REMARK    2  A    between atoms: C_12  and  C_14
REMARK    3  A    between atoms: C_14  and  S_15
REMARK    4  A    between atoms: S_15  and  C_16
REMARK    5  A    between atoms: C_19  and  C_22
REMARK    6  A    between atoms: N_20  and  C_21
REMARK                            x       y       z     vdW  Elec       q    Type
REMARK                         _______ _______ _______ _____ _____    ______ ____
ROOT
ATOM      1  S   UNL     1       0.112  -2.619   8.338  0.00  0.00    -0.077 S 
ENDROOT
BRANCH   1   2
ATOM      2  C   UNL     1       0.118  -1.986   9.982  0.00  0.00    +0.192 A 
ATOM      3  N   UNL     1       0.099  -0.718  10.329  0.00  0.00    -0.122 NA
ATOM      4  N   UNL     1       0.111  -0.610  11.610  0.00  0.00    -0.125 NA
ATOM      5  C   UNL     1       0.138  -1.804  12.161  0.00  0.00    +0.200 A 
ATOM      6  N   UNL     1       0.139  -2.722  11.133  0.00  0.00    -0.303 N 
ATOM      7  C   UNL     1       0.159  -4.182  11.250  0.00  0.00    +0.153 C 
BRANCH   5   8
ATOM      8  C   UNL     1       0.160  -2.103  13.601  0.00  0.00    +0.173 A 
ATOM      9  C   UNL     1      -0.138  -1.218  14.587  0.00  0.00    +0.061 A 
ATOM     10  C   UNL     1       0.015  -1.947  15.846  0.00  0.00    +0.021 A 
ATOM     11  C   UNL     1      -0.141  -1.610  17.192  0.00  0.00    +0.011 A 
ATOM     12  C   UNL     1       0.086  -2.550  18.158  0.00  0.00    +0.001 A 
ATOM     13  C   UNL     1       0.471  -3.837  17.808  0.00  0.00    +0.004 A 
ATOM     14  C   UNL     1       0.630  -4.189  16.485  0.00  0.00    +0.047 A 
ATOM     15  C   UNL     1       0.405  -3.250  15.487  0.00  0.00    +0.136 A 
ATOM     16  O   UNL     1       0.473  -3.298  14.140  0.00  0.00    -0.452 OA
ENDBRANCH   5   8
ENDBRANCH   1   2
BRANCH   1  17
ATOM     17  C   UNL     1       0.083  -1.135   7.296  0.00  0.00    +0.173 C 
BRANCH  17  29
ATOM     18  C   UNL     1      -0.018   1.503   0.010  0.00  0.00    +0.046 C 
ATOM     19  C   UNL     1       0.002  -0.004   0.002  0.00  0.00    -0.024 A 
ATOM     20  C   UNL     1       0.005  -0.675  -1.193  0.00  0.00    +0.005 A 
ATOM     21  C   UNL     1       0.024  -2.061  -1.246  0.00  0.00    +0.001 A 
ATOM     22  C   UNL     1       0.040  -2.784  -0.067  0.00  0.00    +0.017 A 
ATOM     23  C   UNL     1       0.036  -2.121   1.134  0.00  0.00    +0.041 A 
ATOM     24  C   UNL     1       0.023  -0.710   1.227  0.00  0.00    +0.083 A 
ATOM     25  N   UNL     1       0.027  -0.206   2.480  0.00  0.00    -0.224 NA
ATOM     26  C   UNL     1       0.047  -0.969   3.547  0.00  0.00    +0.165 A 
ATOM     27  S   UNL     1       0.051  -2.611   2.842  0.00  0.00    -0.052 S 
ATOM     28  N   UNL     1       0.054  -0.597   4.882  0.00  0.00    -0.264 N 
ATOM     29  C   UNL     1       0.075  -1.540   5.845  0.00  0.00    +0.229 C 
ATOM     30  O   UNL     1       0.088  -2.714   5.543  0.00  0.00    -0.275 OA
ATOM     31  H   UNL     1       0.044   0.343   5.123  0.00  0.00    +0.157 HD
ENDBRANCH  17  29
ENDBRANCH   1  17
TORSDOF 4
