REMARK  Name = ZINC16865904
REMARK  6 active torsions:
REMARK  status: ('A' for Active; 'I' for Inactive)
REMARK    1  A    between atoms: C_5  and  C_6
REMARK    2  A    between atoms: C_6  and  O_8
REMARK    3  A    between atoms: O_8  and  C_9
REMARK    4  A    between atoms: C_9  and  C_10
REMARK    5  A    between atoms: N_15  and  C_16
REMARK    6  A    between atoms: C_16  and  C_17
REMARK                            x       y       z     vdW  Elec       q    Type
REMARK                         _______ _______ _______ _____ _____    ______ ____
ROOT
ATOM      1  C   UNL     1       0.002  -0.004   0.002  0.00  0.00    +0.258 C 
ATOM      2  O   UNL     1      -0.506  -0.622   0.913  0.00  0.00    -0.272 OA
ATOM      3  N   UNL     1       0.585  -0.664  -1.018  0.00  0.00    -0.237 N 
ATOM      4  C   UNL     1       0.603  -2.012  -1.025  0.00  0.00    +0.306 C 
ATOM      5  O   UNL     1       0.094  -2.632  -0.112  0.00  0.00    -0.252 OA
ATOM      6  N   UNL     1       1.186  -2.673  -2.045  0.00  0.00    -0.290 N 
ATOM      7  H   UNL     1       0.992  -0.170  -1.747  0.00  0.00    +0.159 HD
ATOM      8  H   UNL     1       1.593  -2.178  -2.774  0.00  0.00    +0.151 HD
ENDROOT
BRANCH   1   9
ATOM      9  C   UNL     1      -0.018   1.503   0.010  0.00  0.00    +0.328 C 
BRANCH   9  10
ATOM     10  O   UNL     1      -0.687   1.964   1.186  0.00  0.00    -0.451 OA
BRANCH  10  11
ATOM     11  C   UNL     1      -0.792   3.299   1.347  0.00  0.00    +0.346 C 
ATOM     12  O   UNL     1      -0.328   4.051   0.511  0.00  0.00    -0.244 OA
BRANCH  11  17
ATOM     13  C   UNL     1      -1.677   5.168   2.880  0.00  0.00    +0.039 A 
ATOM     14  C   UNL     1      -2.345   5.402   4.055  0.00  0.00    +0.040 A 
ATOM     15  C   UNL     1      -2.758   4.345   4.806  0.00  0.00    +0.070 A 
ATOM     16  S   UNL     1      -2.231   2.974   3.884  0.00  0.00    -0.074 S 
ATOM     17  C   UNL     1      -1.464   3.843   2.527  0.00  0.00    +0.098 A 
ATOM     18 BR   UNL     1      -3.690   4.365   6.452  0.00  0.00    -0.041 Br
ATOM     19 BR   UNL     1      -2.686   7.173   4.625  0.00  0.00    -0.049 Br
ENDBRANCH  11  17
ENDBRANCH  10  11
ENDBRANCH   9  10
ENDBRANCH   1   9
BRANCH   6  20
ATOM     20  C   UNL     1       1.206  -4.137  -2.053  0.00  0.00    +0.219 C 
BRANCH  20  21
ATOM     21  C   UNL     1       1.922  -4.631  -3.312  0.00  0.00    +0.405 C 
ATOM     22  F   UNL     1       3.235  -4.147  -3.322  0.00  0.00    -0.169 F 
ATOM     23  F   UNL     1       1.941  -6.030  -3.320  0.00  0.00    -0.169 F 
ATOM     24  F   UNL     1       1.246  -4.167  -4.446  0.00  0.00    -0.169 F 
ENDBRANCH  20  21
ENDBRANCH   6  20
TORSDOF 6
