REMARK  Name = ZINC62766906
REMARK  5 active torsions:
REMARK  status: ('A' for Active; 'I' for Inactive)
REMARK    1  A    between atoms: C_1  and  C_2
REMARK    2  A    between atoms: C_6  and  C_21
REMARK    3  A    between atoms: C_8  and  S_11
REMARK    4  A    between atoms: S_11  and  C_12
REMARK    5  A    between atoms: C_18  and  N_20
REMARK                            x       y       z     vdW  Elec       q    Type
REMARK                         _______ _______ _______ _____ _____    ______ ____
ROOT
ATOM      1  S   UNL     1       1.640  -2.642   2.703  0.00  0.00    -0.084 S 
ENDROOT
BRANCH   1   2
ATOM      2  C   UNL     1       3.294  -2.079   2.472  0.00  0.00    +0.171 A 
ATOM      3  N   UNL     1       4.235  -2.370   3.412  0.00  0.00    -0.302 N 
ATOM      4  H   UNL     1       3.992  -2.883   4.198  0.00  0.00    +0.171 HD
ATOM      5  C   UNL     1       5.507  -1.947   3.252  0.00  0.00    +0.254 A 
ATOM      6  O   UNL     1       6.357  -2.205   4.089  0.00  0.00    -0.268 OA
ATOM      7  C   UNL     1       5.834  -1.210   2.110  0.00  0.00    +0.113 A 
ATOM      8  C   UNL     1       4.838  -0.939   1.182  0.00  0.00    +0.124 A 
ATOM      9  N   UNL     1       3.596  -1.389   1.391  0.00  0.00    -0.209 NA
BRANCH   8  10
ATOM     10  N   UNL     1       5.130  -0.214   0.044  0.00  0.00    -0.343 N 
ATOM     11  H   UNL     1       6.032   0.108  -0.108  0.00  0.00    +0.144 HD
ATOM     12  H   UNL     1       4.432  -0.026  -0.603  0.00  0.00    +0.144 HD
ENDBRANCH   8  10
ENDBRANCH   1   2
BRANCH   1  18
ATOM     13  C   UNL     1      -0.019   1.526   0.010  0.00  0.00    +0.007 C 
ATOM     14  C   UNL     1       0.002  -0.004   0.002  0.00  0.00    -0.013 C 
ATOM     15  C   UNL     1      -1.433  -0.534   0.013  0.00  0.00    +0.004 C 
ATOM     16  C   UNL     1      -1.413  -2.063   0.004  0.00  0.00    +0.016 C 
ATOM     17  C   UNL     1      -0.673  -2.570   1.244  0.00  0.00    +0.115 C 
ATOM     18  C   UNL     1       0.763  -2.041   1.233  0.00  0.00    +0.068 C 
ATOM     19  C   UNL     1       0.742  -0.511   1.242  0.00  0.00    +0.018 C 
BRANCH  17  20
ATOM     20  C   UNL     1      -1.378  -2.084   2.484  0.00  0.00    +0.360 C 
ATOM     21  O   UNL     1      -2.539  -2.396   2.686  0.00  0.00    -0.246 OA
ATOM     22  O   UNL     1      -0.787  -1.380   3.285  0.00  0.00    -0.246 OA
ENDBRANCH  17  20
ENDBRANCH   1  18
TORSDOF 4
