REMARK  Name = ZINC63589466
REMARK  6 active torsions:
REMARK  status: ('A' for Active; 'I' for Inactive)
REMARK    1  A    between atoms: C_7  and  C_10
REMARK    2  A    between atoms: C_10  and  C_11
REMARK    3  A    between atoms: C_11  and  N_12
REMARK    4  A    between atoms: N_14  and  C_15
REMARK    5  A    between atoms: N_25  and  C_26
REMARK    6  A    between atoms: C_26  and  C_28
REMARK                            x       y       z     vdW  Elec       q    Type
REMARK                         _______ _______ _______ _____ _____    ______ ____
ROOT
ATOM      1  N   UNL     1      -0.373  -4.692  -1.534  0.00  0.00    -0.357 N 
ATOM      2  C   UNL     1      -0.727  -5.422  -2.631  0.00  0.00    +0.194 C 
ATOM      3  N   UNL     1      -1.613  -6.453  -2.507  0.00  0.00    -0.328 N 
ATOM      4  N   UNL     1      -0.211  -5.131  -3.815  0.00  0.00    -0.143 NA
ATOM      5  H   UNL     1       0.192  -3.910  -1.634  0.00  0.00    +0.162 HD
ATOM      6  H   UNL     1      -2.050  -6.618  -1.657  0.00  0.00    +0.169 HD
ENDROOT
BRANCH   3   7
ATOM      7  C   UNL     1      -1.890  -7.274  -3.607  0.00  0.00    +0.045 A 
ATOM      8  C   UNL     1      -0.887  -7.576  -4.519  0.00  0.00    +0.029 A 
ATOM      9  C   UNL     1      -1.161  -8.385  -5.605  0.00  0.00    +0.051 A 
ATOM     10  C   UNL     1      -2.436  -8.898  -5.788  0.00  0.00    +0.162 A 
ATOM     11  C   UNL     1      -3.442  -8.599  -4.876  0.00  0.00    +0.164 A 
ATOM     12  C   UNL     1      -3.166  -7.790  -3.785  0.00  0.00    +0.075 A 
ATOM     13  O   UNL     1      -4.698  -9.100  -5.035  0.00  0.00    -0.485 OA
ATOM     14  C   UNL     1      -5.030  -9.603  -6.334  0.00  0.00    +0.270 C 
ATOM     15  C   UNL     1      -3.874 -10.490  -6.816  0.00  0.00    +0.270 C 
ATOM     16  O   UNL     1      -2.688  -9.690  -6.867  0.00  0.00    -0.485 OA
ENDBRANCH   3   7
BRANCH   4  17
ATOM     17  C   UNL     1       0.573  -4.054  -3.958  0.00  0.00    +0.270 C 
ATOM     18  O   UNL     1       0.898  -3.404  -2.980  0.00  0.00    -0.268 OA
BRANCH  17  19
ATOM     19  C   UNL     1       1.044  -3.654  -5.302  0.00  0.00    +0.039 A 
ATOM     20  C   UNL     1       0.669  -4.394  -6.424  0.00  0.00    +0.016 A 
ATOM     21  C   UNL     1       1.110  -4.018  -7.675  0.00  0.00    +0.039 A 
ATOM     22  C   UNL     1       1.926  -2.907  -7.819  0.00  0.00    +0.123 A 
ATOM     23  C   UNL     1       2.303  -2.169  -6.708  0.00  0.00    +0.039 A 
ATOM     24  C   UNL     1       1.861  -2.533  -5.453  0.00  0.00    +0.016 A 
ATOM     25  F   UNL     1       2.357  -2.542  -9.047  0.00  0.00    -0.205 F 
ENDBRANCH  17  19
ENDBRANCH   4  17
BRANCH   1  26
ATOM     26  C   UNL     1      -0.846  -5.089  -0.205  0.00  0.00    +0.120 C 
BRANCH  26  27
ATOM     27  C   UNL     1      -0.210  -4.186   0.853  0.00  0.00    +0.054 C 
BRANCH  27  34
ATOM     28  C   UNL     1       1.536  -6.961   4.064  0.00  0.00    +0.001 A 
ATOM     29  C   UNL     1       0.740  -7.062   5.213  0.00  0.00    +0.002 A 
ATOM     30  C   UNL     1      -0.428  -6.401   5.351  0.00  0.00    +0.026 A 
ATOM     31  C   UNL     1      -0.904  -5.557   4.309  0.00  0.00    +0.043 A 
ATOM     32  N   UNL     1      -1.986  -4.824   4.205  0.00  0.00    -0.380 N 
ATOM     33  C   UNL     1      -1.972  -4.151   2.901  0.00  0.00    +0.144 C 
ATOM     34  C   UNL     1      -0.697  -4.595   2.220  0.00  0.00    -0.040 C 
ATOM     35  C   UNL     1      -0.081  -5.433   3.085  0.00  0.00    -0.001 A 
ATOM     36  C   UNL     1       1.177  -6.186   3.015  0.00  0.00    +0.010 A 
ATOM     37  H   UNL     1      -2.680  -4.741   4.877  0.00  0.00    +0.160 HD
ENDBRANCH  27  34
ENDBRANCH  26  27
ENDBRANCH   1  26
TORSDOF 6
