REMARK  Name = ZINC41969504
REMARK  9 active torsions:
REMARK  status: ('A' for Active; 'I' for Inactive)
REMARK    1  A    between atoms: C_1  and  C_2
REMARK    2  A    between atoms: C_3  and  C_9
REMARK    3  A    between atoms: C_4  and  C_8
REMARK    4  A    between atoms: N_5  and  C_7
REMARK    5  A    between atoms: C_10  and  C_11
REMARK    6  A    between atoms: N_13  and  C_14
REMARK    7  A    between atoms: C_14  and  C_15
REMARK    8  A    between atoms: C_20  and  O_21
REMARK    9  A    between atoms: O_21  and  C_22
REMARK                            x       y       z     vdW  Elec       q    Type
REMARK                         _______ _______ _______ _____ _____    ______ ____
ROOT
ATOM      1  C   UNL     1      -0.928   0.969  -4.302  0.00  0.00    +0.237 C 
ATOM      2  O   UNL     1      -0.118   0.522  -5.094  0.00  0.00    -0.271 OA
ATOM      3  N   UNL     1      -1.837   1.877  -4.709  0.00  0.00    -0.308 N 
ATOM      4  H   UNL     1      -2.482   2.233  -4.078  0.00  0.00    +0.149 HD
ENDROOT
BRANCH   1   6
ATOM      5  C   UNL     1      -0.005  -0.377  -2.546  0.00  0.00    +0.016 C 
ATOM      6  C   UNL     1      -0.916   0.533  -2.953  0.00  0.00    +0.068 C 
BRANCH   5   9
ATOM      7  C   UNL     1      -0.018   1.503   0.010  0.00  0.00    +0.068 C 
ATOM      8  C   UNL     1       0.002  -0.004   0.002  0.00  0.00    +0.067 A 
ATOM      9  C   UNL     1       0.008  -0.829  -1.147  0.00  0.00    +0.018 A 
ATOM     10  C   UNL     1       0.028  -2.140  -0.707  0.00  0.00    +0.043 A 
ATOM     11  N   UNL     1       0.034  -2.112   0.636  0.00  0.00    -0.271 N 
ATOM     12  N   UNL     1       0.023  -0.776   1.053  0.00  0.00    -0.176 NA
ATOM     13  C   UNL     1       0.053  -3.283   1.517  0.00  0.00    +0.172 C 
ATOM     14  C   UNL     1       0.040  -3.372  -1.574  0.00  0.00    +0.066 C 
ENDBRANCH   5   9
ENDBRANCH   1   6
BRANCH   3  15
ATOM     15  C   UNL     1      -1.850   2.327  -6.103  0.00  0.00    +0.145 C 
BRANCH  15  16
ATOM     16  C   UNL     1      -2.953   3.336  -6.295  0.00  0.00    +0.031 A 
ATOM     17  C   UNL     1      -4.162   2.955  -6.851  0.00  0.00    +0.012 A 
ATOM     18  C   UNL     1      -5.150   3.917  -7.010  0.00  0.00    +0.020 A 
ATOM     19  C   UNL     1      -4.899   5.215  -6.610  0.00  0.00    +0.114 A 
ATOM     20  N   UNL     1      -3.736   5.548  -6.083  0.00  0.00    -0.221 NA
ATOM     21  C   UNL     1      -2.773   4.658  -5.910  0.00  0.00    +0.220 A 
BRANCH  21  22
ATOM     22  O   UNL     1      -1.595   5.042  -5.358  0.00  0.00    -0.473 OA
BRANCH  22  23
ATOM     23  C   UNL     1      -1.471   6.416  -4.983  0.00  0.00    +0.175 C 
ATOM     24  C   UNL     1      -0.844   7.224  -6.138  0.00  0.00    +0.044 C 
ATOM     25  C   UNL     1       0.070   8.254  -5.428  0.00  0.00    +0.004 C 
ATOM     26  C   UNL     1       0.656   7.437  -4.250  0.00  0.00    +0.004 C 
ATOM     27  C   UNL     1      -0.518   6.551  -3.783  0.00  0.00    +0.044 C 
ENDBRANCH  22  23
ENDBRANCH  21  22
ENDBRANCH  15  16
ENDBRANCH   3  15
TORSDOF 6
