REMARK  Name = ZINC24619040
REMARK  8 active torsions:
REMARK  status: ('A' for Active; 'I' for Inactive)
REMARK    1  A    between atoms: C_1  and  C_2
REMARK    2  A    between atoms: C_5  and  N_19
REMARK    3  A    between atoms: C_7  and  S_8
REMARK    4  A    between atoms: S_8  and  N_11
REMARK    5  A    between atoms: N_11  and  C_12
REMARK    6  A    between atoms: C_20  and  C_22
REMARK    7  A    between atoms: C_22  and  C_23
REMARK    8  A    between atoms: C_26  and  C_28
REMARK                            x       y       z     vdW  Elec       q    Type
REMARK                         _______ _______ _______ _____ _____    ______ ____
ROOT
ATOM      1  C   UNL     1      -0.408   3.845   1.272  0.00  0.00    +0.046 C 
ATOM      2  C   UNL     1       0.795   3.424   2.075  0.00  0.00    -0.024 A 
ATOM      3  C   UNL     1       1.023   3.981   3.321  0.00  0.00    +0.007 A 
ATOM      4  C   UNL     1       2.124   3.597   4.059  0.00  0.00    +0.023 A 
ATOM      5  C   UNL     1       3.004   2.650   3.551  0.00  0.00    +0.035 A 
ATOM      6  C   UNL     1       2.770   2.089   2.302  0.00  0.00    +0.052 A 
ATOM      7  C   UNL     1       1.669   2.481   1.566  0.00  0.00    +0.113 A 
ENDROOT
BRANCH   5   8
ATOM      8  N   UNL     1       4.121   2.259   4.297  0.00  0.00    -0.285 N 
ATOM      9  C   UNL     1       4.045   2.194   5.641  0.00  0.00    +0.223 C 
ATOM     10  O   UNL     1       2.984   2.382   6.198  0.00  0.00    -0.275 OA
ATOM     11  H   UNL     1       5.062   2.004   3.787  0.00  0.00    +0.155 HD
BRANCH   9  12
ATOM     12  C   UNL     1       5.277   1.887   6.452  0.00  0.00    +0.152 C 
BRANCH  12  13
ATOM     13  C   UNL     1       4.924   1.873   7.917  0.00  0.00    +0.058 A 
ATOM     14  C   UNL     1       5.209   0.781   8.675  0.00  0.00    +0.071 A 
ATOM     15  S   UNL     1       4.590   1.312  10.267  0.00  0.00    -0.072 S 
ATOM     16  C   UNL     1       4.020   2.926   9.751  0.00  0.00    +0.144 A 
ATOM     17  N   UNL     1       4.346   2.916   8.464  0.00  0.00    -0.240 NA
BRANCH  16  18
ATOM     18  C   UNL     1       3.371   3.983  10.542  0.00  0.00    +0.160 A 
ATOM     19  C   UNL     1       3.068   3.918  11.869  0.00  0.00    +0.052 A 
ATOM     20  C   UNL     1       2.463   5.144  12.207  0.00  0.00    +0.042 A 
ATOM     21  C   UNL     1       2.418   5.886  11.082  0.00  0.00    +0.196 A 
ATOM     22  O   UNL     1       2.967   5.183  10.079  0.00  0.00    -0.461 OA
ENDBRANCH  16  18
ENDBRANCH  12  13
ENDBRANCH   9  12
ENDBRANCH   5   8
BRANCH   7  23
ATOM     23  S   UNL     1       1.374   1.774  -0.021  0.00  0.00    +0.073 S 
ATOM     24  O   UNL     1       0.012   1.371  -0.038  0.00  0.00    -0.150 OA
ATOM     25  O   UNL     1       2.441   0.868  -0.266  0.00  0.00    -0.150 OA
BRANCH  23  26
ATOM     26  N   UNL     1       1.522   2.991  -1.134  0.00  0.00    -0.215 N 
ATOM     27  H   UNL     1       0.668   3.257  -1.774  0.00  0.00    +0.174 HD
BRANCH  26  28
ATOM     28  C   UNL     1       2.732   3.680  -1.260  0.00  0.00    +0.066 A 
ATOM     29  C   UNL     1       3.936   3.009  -1.090  0.00  0.00    +0.026 A 
ATOM     30  C   UNL     1       5.129   3.691  -1.220  0.00  0.00    +0.002 A 
ATOM     31  C   UNL     1       5.127   5.043  -1.509  0.00  0.00    +0.002 A 
ATOM     32  C   UNL     1       3.930   5.716  -1.675  0.00  0.00    +0.022 A 
ATOM     33  C   UNL     1       2.732   5.039  -1.551  0.00  0.00    +0.063 A 
ATOM     34 CL   UNL     1       1.230   5.884  -1.757  0.00  0.00    -0.082 Cl
ENDBRANCH  26  28
ENDBRANCH  23  26
ENDBRANCH   7  23
TORSDOF 7
