REMARK  Name = ZINC40985894
REMARK  8 active torsions:
REMARK  status: ('A' for Active; 'I' for Inactive)
REMARK    1  A    between atoms: C_5  and  C_7
REMARK    2  A    between atoms: C_7  and  C_9
REMARK    3  A    between atoms: C_7  and  N_29
REMARK    4  A    between atoms: C_9  and  N_10
REMARK    5  A    between atoms: C_11  and  C_13
REMARK    6  A    between atoms: C_16  and  S_20
REMARK    7  A    between atoms: S_20  and  C_21
REMARK    8  A    between atoms: C_21  and  C_22
REMARK                            x       y       z     vdW  Elec       q    Type
REMARK                         _______ _______ _______ _____ _____    ______ ____
ROOT
ATOM      1  N   UNL     1       1.746  -3.902  -1.684  0.00  0.00    -0.312 N 
ATOM      2  C   UNL     1       2.155  -4.374  -2.878  0.00  0.00    +0.248 C 
ATOM      3  O   UNL     1       2.382  -3.603  -3.791  0.00  0.00    -0.270 OA
ATOM      4  H   UNL     1       1.565  -4.517  -0.956  0.00  0.00    +0.149 HD
ENDROOT
BRANCH   2   5
ATOM      5  C   UNL     1       2.327  -5.824  -3.078  0.00  0.00    +0.092 A 
ATOM      6  C   UNL     1       2.065  -6.729  -2.041  0.00  0.00    +0.129 A 
ATOM      7  N   UNL     1       2.231  -8.020  -2.260  0.00  0.00    -0.229 NA
ATOM      8  C   UNL     1       2.640  -8.464  -3.442  0.00  0.00    +0.190 A 
ATOM      9  N   UNL     1       2.898  -7.641  -4.450  0.00  0.00    -0.209 NA
ATOM     10  C   UNL     1       2.752  -6.335  -4.314  0.00  0.00    +0.146 A 
ATOM     11 CL   UNL     1       3.086  -5.268  -5.641  0.00  0.00    -0.061 Cl
BRANCH   8  12
ATOM     12  S   UNL     1       2.845 -10.198  -3.679  0.00  0.00    -0.081 S 
BRANCH  12  13
ATOM     13  C   UNL     1       3.402 -10.343  -5.400  0.00  0.00    +0.112 C 
BRANCH  13  14
ATOM     14  C   UNL     1       3.618 -11.796  -5.737  0.00  0.00    -0.037 A 
ATOM     15  C   UNL     1       4.854 -12.377  -5.525  0.00  0.00    +0.007 A 
ATOM     16  C   UNL     1       5.053 -13.710  -5.834  0.00  0.00    +0.038 A 
ATOM     17  C   UNL     1       4.014 -14.462  -6.356  0.00  0.00    +0.123 A 
ATOM     18  C   UNL     1       2.777 -13.878  -6.568  0.00  0.00    +0.038 A 
ATOM     19  C   UNL     1       2.578 -12.547  -6.253  0.00  0.00    +0.007 A 
ATOM     20  F   UNL     1       4.208 -15.764  -6.658  0.00  0.00    -0.205 F 
ENDBRANCH  13  14
ENDBRANCH  12  13
ENDBRANCH   8  12
ENDBRANCH   2   5
BRANCH   1  21
ATOM     21  C   UNL     1       1.575  -2.461  -1.485  0.00  0.00    +0.094 C 
BRANCH  21  22
ATOM     22  C   UNL     1       1.231  -2.185  -0.020  0.00  0.00    -0.019 C 
BRANCH  22  27
ATOM     23  C   UNL     1      -1.387  -4.581   1.267  0.00  0.00    +0.000 A 
ATOM     24  C   UNL     1      -2.554  -3.934   0.909  0.00  0.00    +0.001 A 
ATOM     25  C   UNL     1      -2.498  -2.721   0.249  0.00  0.00    +0.020 A 
ATOM     26  C   UNL     1      -1.272  -2.154  -0.052  0.00  0.00    +0.043 A 
ATOM     27  C   UNL     1      -0.104  -2.801   0.308  0.00  0.00    -0.041 A 
ATOM     28  C   UNL     1      -0.162  -4.015   0.967  0.00  0.00    +0.003 A 
ATOM     29 CL   UNL     1      -1.200  -0.630  -0.880  0.00  0.00    -0.083 Cl
ENDBRANCH  22  27
BRANCH  22  30
ATOM     30  N   UNL     1       2.266  -2.769   0.844  0.00  0.00    +0.385 N 
ATOM     31  C   UNL     1       3.596  -2.200   0.507  0.00  0.00    -0.078 C 
ATOM     32  C   UNL     1       4.423  -2.447   1.794  0.00  0.00    -0.020 C 
ATOM     33  C   UNL     1       3.392  -2.207   2.920  0.00  0.00    -0.020 C 
ATOM     34  C   UNL     1       2.017  -2.406   2.256  0.00  0.00    -0.078 C 
ATOM     35  H   UNL     1       2.280  -3.773   0.740  0.00  0.00    -0.081 HD
ENDBRANCH  22  30
ENDBRANCH  21  22
ENDBRANCH   1  21
TORSDOF 8
