REMARK  Name = ZINC32124334
REMARK  9 active torsions:
REMARK  status: ('A' for Active; 'I' for Inactive)
REMARK    1  A    between atoms: C_1  and  O_2
REMARK    2  A    between atoms: O_2  and  C_3
REMARK    3  A    between atoms: C_8  and  C_9
REMARK    4  A    between atoms: N_22  and  C_23
REMARK    5  A    between atoms: C_23  and  C_25
REMARK    6  A    between atoms: C_23  and  C_32
REMARK    7  A    between atoms: C_25  and  C_26
REMARK    8  A    between atoms: C_32  and  O_34
REMARK    9  A    between atoms: O_34  and  C_35
REMARK                            x       y       z     vdW  Elec       q    Type
REMARK                         _______ _______ _______ _____ _____    ______ ____
ROOT
ATOM      1  C   UNL     1       0.051  -2.828  -0.034  0.00  0.00    +0.160 C 
ATOM      2  C   UNL     1       1.051  -3.021   1.079  0.00  0.00    +0.064 A 
ATOM      3  C   UNL     1       1.678  -4.188   1.341  0.00  0.00    +0.066 A 
ATOM      4  N   UNL     1       2.490  -3.990   2.385  0.00  0.00    -0.240 NA
ATOM      5  C   UNL     1       2.387  -2.748   2.781  0.00  0.00    +0.197 A 
ATOM      6  N   UNL     1       1.494  -2.111   1.988  0.00  0.00    -0.346 N 
ATOM      7  H   UNL     1       1.223  -1.183   2.054  0.00  0.00    +0.167 HD
ATOM      8  C   UNL     1       1.462  -5.464   0.567  0.00  0.00    +0.076 C 
ATOM      9  C   UNL     1       0.809  -5.122  -0.778  0.00  0.00    +0.116 C 
ATOM     10  N   UNL     1      -0.287  -4.165  -0.556  0.00  0.00    -0.273 N 
ATOM     11  C   UNL     1      -1.565  -4.501  -0.821  0.00  0.00    +0.304 C 
ATOM     12  O   UNL     1      -2.446  -3.669  -0.718  0.00  0.00    -0.253 OA
ATOM     13  N   UNL     1      -1.867  -5.759  -1.199  0.00  0.00    -0.286 N 
ATOM     14  H   UNL     1      -1.177  -6.441  -1.209  0.00  0.00    +0.151 HD
ENDROOT
BRANCH   1  20
ATOM     15  C   UNL     1      -0.154  -1.425  -2.102  0.00  0.00    +0.125 A 
ATOM     16  C   UNL     1       0.407  -0.648  -3.105  0.00  0.00    +0.046 A 
ATOM     17  C   UNL     1       1.772  -0.441  -3.135  0.00  0.00    +0.004 A 
ATOM     18  C   UNL     1       2.580  -1.008  -2.167  0.00  0.00    +0.001 A 
ATOM     19  C   UNL     1       2.023  -1.784  -1.166  0.00  0.00    +0.009 A 
ATOM     20  C   UNL     1       0.658  -1.988  -1.128  0.00  0.00    +0.021 A 
BRANCH  15  22
ATOM     21  C   UNL     1      -2.272  -1.019  -3.104  0.00  0.00    +0.277 C 
ATOM     22  O   UNL     1      -1.497  -1.629  -2.069  0.00  0.00    -0.495 OA
ENDBRANCH  15  22
ENDBRANCH   1  20
BRANCH  13  23
ATOM     23  C   UNL     1      -3.236  -6.096  -1.595  0.00  0.00    +0.187 C 
BRANCH  23  24
ATOM     24  C   UNL     1      -4.048  -6.425  -0.368  0.00  0.00    +0.328 C 
ATOM     25  O   UNL     1      -3.534  -6.382   0.725  0.00  0.00    -0.249 OA
BRANCH  24  26
ATOM     26  O   UNL     1      -5.340  -6.765  -0.490  0.00  0.00    -0.467 OA
ATOM     27  C   UNL     1      -6.048  -7.064   0.715  0.00  0.00    +0.280 C 
ENDBRANCH  24  26
ENDBRANCH  23  24
BRANCH  23  28
ATOM     28  C   UNL     1      -3.213  -7.306  -2.531  0.00  0.00    +0.069 C 
BRANCH  28  29
ATOM     29  C   UNL     1      -2.507  -6.939  -3.811  0.00  0.00    -0.045 A 
ATOM     30  C   UNL     1      -3.225  -6.417  -4.871  0.00  0.00    +0.004 A 
ATOM     31  C   UNL     1      -2.577  -6.080  -6.044  0.00  0.00    +0.000 A 
ATOM     32  C   UNL     1      -1.212  -6.264  -6.158  0.00  0.00    +0.000 A 
ATOM     33  C   UNL     1      -0.494  -6.784  -5.097  0.00  0.00    +0.000 A 
ATOM     34  C   UNL     1      -1.141  -7.118  -3.922  0.00  0.00    +0.004 A 
ENDBRANCH  28  29
ENDBRANCH  23  28
ENDBRANCH  13  23
TORSDOF 7
