REMARK  Name = ZINC16649386
REMARK  14 active torsions:
REMARK  status: ('A' for Active; 'I' for Inactive)
REMARK    1  A    between atoms: C_1  and  C_2
REMARK    2  A    between atoms: C_2  and  C_3
REMARK    3  A    between atoms: C_7  and  N_9
REMARK    4  A    between atoms: N_12  and  C_13
REMARK    5  A    between atoms: N_12  and  C_17
REMARK    6  A    between atoms: C_13  and  C_14
REMARK    7  A    between atoms: C_14  and  O_15
REMARK    8  A    between atoms: O_15  and  C_16
REMARK    9  A    between atoms: C_17  and  C_18
REMARK   10  A    between atoms: N_20  and  C_21
REMARK   11  A    between atoms: N_20  and  C_33
REMARK   12  A    between atoms: C_21  and  C_22
REMARK   13  A    between atoms: C_22  and  C_23
REMARK   14  A    between atoms: C_33  and  C_34
REMARK                            x       y       z     vdW  Elec       q    Type
REMARK                         _______ _______ _______ _____ _____    ______ ____
ROOT
ATOM      1  C   UNL     1      -2.924  -2.486  -1.375  0.00  0.00    +0.233 C 
ATOM      2  O   UNL     1      -2.762  -1.285  -1.321  0.00  0.00    -0.274 OA
ATOM      3  N   UNL     1      -1.883  -3.317  -1.169  0.00  0.00    -0.296 N 
ENDROOT
BRANCH   1   4
ATOM      4  C   UNL     1      -4.290  -3.049  -1.671  0.00  0.00    +0.205 C 
BRANCH   4   8
ATOM      5  N   UNL     1      -6.393  -0.349  -3.016  0.00  0.00    -0.269 N 
ATOM      6  C   UNL     1      -5.500  -1.356  -2.939  0.00  0.00    +0.307 C 
ATOM      7  O   UNL     1      -4.909  -1.722  -3.936  0.00  0.00    -0.252 OA
ATOM      8  N   UNL     1      -5.261  -1.955  -1.755  0.00  0.00    -0.274 N 
ATOM      9  H   UNL     1      -6.922  -0.109  -2.240  0.00  0.00    +0.156 HD
BRANCH   5  14
ATOM     10  C   UNL     1      -7.968   1.519  -5.764  0.00  0.00    -0.046 A 
ATOM     11  C   UNL     1      -6.882   1.731  -6.593  0.00  0.00    +0.004 A 
ATOM     12  C   UNL     1      -5.634   1.254  -6.237  0.00  0.00    +0.002 A 
ATOM     13  C   UNL     1      -5.468   0.568  -5.050  0.00  0.00    +0.023 A 
ATOM     14  C   UNL     1      -6.557   0.349  -4.218  0.00  0.00    +0.035 A 
ATOM     15  C   UNL     1      -7.809   0.830  -4.578  0.00  0.00    +0.027 A 
BRANCH  10  17
ATOM     16  C   UNL     1      -9.506   3.458  -5.604  0.00  0.00    +0.009 C 
ATOM     17  C   UNL     1      -9.326   2.042  -6.155  0.00  0.00    +0.032 C 
ENDBRANCH  10  17
ENDBRANCH   5  14
BRANCH   8  18
ATOM     18  C   UNL     1      -5.973  -1.513  -0.554  0.00  0.00    +0.138 C 
BRANCH  18  19
ATOM     19  C   UNL     1      -5.172  -0.407   0.136  0.00  0.00    +0.178 C 
BRANCH  19  20
ATOM     20  O   UNL     1      -5.116   0.741  -0.714  0.00  0.00    -0.381 OA
ATOM     21  C   UNL     1      -4.386   1.838  -0.161  0.00  0.00    +0.194 C 
ENDBRANCH  19  20
ENDBRANCH  18  19
ENDBRANCH   8  18
ENDBRANCH   4   8
ENDBRANCH   1   4
BRANCH   3  22
ATOM     22  C   UNL     1      -0.536  -2.771  -0.982  0.00  0.00    +0.113 C 
BRANCH  22  23
ATOM     23  C   UNL     1      -0.293  -2.512   0.506  0.00  0.00    +0.056 C 
BRANCH  23  24
ATOM     24  C   UNL     1       1.092  -1.951   0.699  0.00  0.00    -0.021 A 
ATOM     25  C   UNL     1       2.199  -2.645   1.004  0.00  0.00    +0.087 A 
ATOM     26  N   UNL     1       3.270  -1.798   1.099  0.00  0.00    -0.360 N 
ATOM     27  H   UNL     1       4.177  -2.068   1.310  0.00  0.00    +0.165 HD
ATOM     28  C   UNL     1       2.867  -0.505   0.850  0.00  0.00    +0.047 A 
ATOM     29  C   UNL     1       1.485  -0.544   0.588  0.00  0.00    +0.003 A 
ATOM     30  C   UNL     1       0.797   0.636   0.304  0.00  0.00    +0.010 A 
ATOM     31  C   UNL     1       1.472   1.825   0.273  0.00  0.00    +0.001 A 
ATOM     32  C   UNL     1       2.835   1.868   0.530  0.00  0.00    +0.002 A 
ATOM     33  C   UNL     1       3.533   0.716   0.817  0.00  0.00    +0.026 A 
ENDBRANCH  23  24
ENDBRANCH  22  23
ENDBRANCH   3  22
BRANCH   3  34
ATOM     34  C   UNL     1      -2.098  -4.766  -1.132  0.00  0.00    +0.143 C 
BRANCH  34  35
ATOM     35  C   UNL     1      -1.870  -5.342  -2.506  0.00  0.00    -0.030 A 
ATOM     36  C   UNL     1      -2.943  -5.564  -3.349  0.00  0.00    +0.008 A 
ATOM     37  C   UNL     1      -2.734  -6.089  -4.610  0.00  0.00    +0.038 A 
ATOM     38  C   UNL     1      -1.451  -6.401  -5.026  0.00  0.00    +0.123 A 
ATOM     39  C   UNL     1      -0.378  -6.183  -4.178  0.00  0.00    +0.038 A 
ATOM     40  C   UNL     1      -0.588  -5.654  -2.919  0.00  0.00    +0.008 A 
ATOM     41  F   UNL     1      -1.246  -6.918  -6.257  0.00  0.00    -0.205 F 
ENDBRANCH  34  35
ENDBRANCH   3  34
TORSDOF 12
