REMARK  Name = ZINC36307163
REMARK  16 active torsions:
REMARK  status: ('A' for Active; 'I' for Inactive)
REMARK    1  A    between atoms: C_1  and  C_2
REMARK    2  A    between atoms: C_2  and  C_3
REMARK    3  A    between atoms: C_3  and  N_4
REMARK    4  A    between atoms: N_4  and  C_5
REMARK    5  A    between atoms: N_4  and  C_26
REMARK    6  A    between atoms: C_5  and  C_6
REMARK    7  A    between atoms: C_7  and  C_20
REMARK    8  A    between atoms: N_9  and  C_19
REMARK    9  A    between atoms: C_10  and  O_11
REMARK   10  A    between atoms: O_11  and  C_12
REMARK   11  A    between atoms: C_26  and  C_27
REMARK   12  A    between atoms: C_27  and  C_29
REMARK   13  A    between atoms: C_27  and  O_37
REMARK   14  A    between atoms: C_29  and  O_30
REMARK   15  A    between atoms: O_30  and  C_31
REMARK   16  A    between atoms: C_31  and  C_32
REMARK                            x       y       z     vdW  Elec       q    Type
REMARK                         _______ _______ _______ _____ _____    ______ ____
ROOT
ATOM      1  C   UNL     1       0.623  -1.684   1.011  0.00  0.00    +0.025 A 
ATOM      2  C   UNL     1       1.781  -2.411   0.676  0.00  0.00    +0.098 A 
ATOM      3  N   UNL     1       2.829  -1.684   1.002  0.00  0.00    -0.168 NA
ATOM      4  N   UNL     1       2.374  -0.479   1.551  0.00  0.00    -0.235 N 
ATOM      5  C   UNL     1       1.016  -0.498   1.541  0.00  0.00    +0.221 A 
ATOM      6  C   UNL     1       3.215   0.614   2.044  0.00  0.00    +0.176 C 
ENDROOT
BRANCH   2   7
ATOM      7  C   UNL     1       1.815  -3.762   0.063  0.00  0.00    +0.002 A 
ATOM      8  C   UNL     1       0.955  -4.759   0.520  0.00  0.00    +0.010 A 
ATOM      9  C   UNL     1       0.990  -6.013  -0.055  0.00  0.00    +0.001 A 
ATOM     10  C   UNL     1       1.877  -6.282  -1.082  0.00  0.00    +0.000 A 
ATOM     11  C   UNL     1       2.733  -5.296  -1.539  0.00  0.00    +0.001 A 
ATOM     12  C   UNL     1       2.702  -4.036  -0.976  0.00  0.00    +0.010 A 
ENDBRANCH   2   7
BRANCH   1  13
ATOM     13  C   UNL     1      -0.800  -2.139   0.810  0.00  0.00    -0.035 C 
BRANCH  13  14
ATOM     14  N   UNL     1      -1.319  -1.584  -0.447  0.00  0.00    +0.384 N 
ATOM     15  H   UNL     1      -1.204  -0.581  -0.445  0.00  0.00    -0.081 HD
BRANCH  14  16
ATOM     16  C   UNL     1      -2.744  -1.914  -0.577  0.00  0.00    -0.079 C 
BRANCH  16  18
ATOM     17  C   UNL     1      -5.031  -1.439   0.310  0.00  0.00    +0.002 C 
ATOM     18  C   UNL     1      -3.535  -1.200   0.521  0.00  0.00    -0.022 C 
ENDBRANCH  16  18
ENDBRANCH  14  16
BRANCH  14  19
ATOM     19  C   UNL     1      -0.578  -2.158  -1.579  0.00  0.00    -0.044 C 
BRANCH  19  20
ATOM     20  C   UNL     1      -1.032  -1.489  -2.878  0.00  0.00    +0.124 C 
BRANCH  20  21
ATOM     21  O   UNL     1      -0.671  -0.107  -2.853  0.00  0.00    -0.391 OA
ATOM     22  H   UNL     1       0.279   0.050  -2.768  0.00  0.00    +0.210 HD
ENDBRANCH  20  21
BRANCH  20  23
ATOM     23  C   UNL     1      -0.354  -2.172  -4.067  0.00  0.00    +0.189 C 
BRANCH  23  24
ATOM     24  O   UNL     1      -0.865  -1.626  -5.285  0.00  0.00    -0.370 OA
BRANCH  24  25
ATOM     25  C   UNL     1      -0.293  -2.198  -6.463  0.00  0.00    +0.234 C 
BRANCH  25  26
ATOM     26  C   UNL     1      -0.902  -1.552  -7.681  0.00  0.00    +0.130 A 
ATOM     27  C   UNL     1      -0.432  -0.459  -8.308  0.00  0.00    +0.047 A 
ATOM     28  C   UNL     1      -1.303  -0.203  -9.393  0.00  0.00    +0.041 A 
ATOM     29  C   UNL     1      -2.252  -1.156  -9.363  0.00  0.00    +0.195 A 
ATOM     30  O   UNL     1      -2.001  -1.973  -8.327  0.00  0.00    -0.465 OA
ENDBRANCH  25  26
ENDBRANCH  24  25
ENDBRANCH  23  24
ENDBRANCH  20  23
ENDBRANCH  19  20
ENDBRANCH  14  19
ENDBRANCH  13  14
ENDBRANCH   1  13
BRANCH   5  31
ATOM     31  O   UNL     1       0.198   0.490   1.985  0.00  0.00    -0.438 OA
BRANCH  31  32
ATOM     32  C   UNL     1      -0.110   0.517   3.308  0.00  0.00    +0.133 A 
ATOM     33  C   UNL     1       0.491  -0.381   4.180  0.00  0.00    +0.046 A 
ATOM     34  C   UNL     1       0.176  -0.353   5.525  0.00  0.00    +0.006 A 
ATOM     35  C   UNL     1      -0.737   0.567   6.004  0.00  0.00    +0.038 A 
ATOM     36  C   UNL     1      -1.340   1.464   5.137  0.00  0.00    +0.127 A 
ATOM     37  C   UNL     1      -1.022   1.444   3.790  0.00  0.00    +0.084 A 
ATOM     38  F   UNL     1      -2.233   2.362   5.607  0.00  0.00    -0.205 F 
ENDBRANCH  31  32
ENDBRANCH   5  31
TORSDOF 14
