REMARK  Name = ZINC46685491
REMARK  9 active torsions:
REMARK  status: ('A' for Active; 'I' for Inactive)
REMARK    1  A    between atoms: C_4  and  C_7
REMARK    2  A    between atoms: C_7  and  C_8
REMARK    3  A    between atoms: C_8  and  C_10
REMARK    4  A    between atoms: C_8  and  N_25
REMARK    5  A    between atoms: N_16  and  C_19
REMARK    6  A    between atoms: C_19  and  C_20
REMARK    7  A    between atoms: C_26  and  O_28
REMARK    8  A    between atoms: O_28  and  C_29
REMARK    9  A    between atoms: C_29  and  C_30
REMARK                            x       y       z     vdW  Elec       q    Type
REMARK                         _______ _______ _______ _____ _____    ______ ____
ROOT
ATOM      1  C   UNL     1       4.168  -0.967   1.407  0.00  0.00    +0.166 C 
ENDROOT
BRANCH   1   2
ATOM      2  C   UNL     1       5.348  -1.904   1.389  0.00  0.00    +0.236 C 
ATOM      3  O   UNL     1       6.386  -1.583   1.928  0.00  0.00    -0.274 OA
ATOM      4  N   UNL     1       5.250  -3.100   0.774  0.00  0.00    -0.302 N 
ATOM      5  C   UNL     1       4.021  -3.413   0.019  0.00  0.00    +0.106 C 
ATOM      6  C   UNL     1       4.351  -4.123  -1.307  0.00  0.00    +0.000 C 
ATOM      7  C   UNL     1       5.579  -3.491  -1.924  0.00  0.00    -0.077 C 
ATOM      8  N   UNL     1       6.766  -4.236  -1.507  0.00  0.00    +0.384 N 
ATOM      9  C   UNL     1       7.342  -3.806  -0.291  0.00  0.00    -0.059 C 
ATOM     10  C   UNL     1       6.357  -4.029   0.874  0.00  0.00    +0.089 C 
ATOM     11  H   UNL     1       6.514  -5.208  -1.414  0.00  0.00    -0.081 HD
BRANCH   8  12
ATOM     12  C   UNL     1       7.778  -4.124  -2.565  0.00  0.00    -0.036 C 
BRANCH  12  13
ATOM     13  C   UNL     1       8.966  -4.984  -2.217  0.00  0.00    -0.027 A 
ATOM     14  C   UNL     1       9.202  -6.281  -2.530  0.00  0.00    +0.009 A 
ATOM     15  C   UNL     1      10.374  -6.872  -2.099  0.00  0.00    +0.008 A 
ATOM     16  C   UNL     1      11.254  -6.137  -1.376  0.00  0.00    +0.045 A 
ATOM     17  S   UNL     1      10.431  -4.555  -1.290  0.00  0.00    -0.103 S 
ENDBRANCH  12  13
ENDBRANCH   8  12
ENDBRANCH   1   2
BRANCH   1  18
ATOM     18  N   UNL     1       4.405   0.097   2.386  0.00  0.00    -0.269 N 
ATOM     19  C   UNL     1       3.362   0.738   2.950  0.00  0.00    +0.401 C 
ATOM     20  O   UNL     1       2.225   0.433   2.647  0.00  0.00    -0.226 OA
ATOM     21  H   UNL     1       5.312   0.341   2.627  0.00  0.00    +0.153 HD
BRANCH  19  22
ATOM     22  O   UNL     1       3.579   1.716   3.849  0.00  0.00    -0.446 OA
BRANCH  22  23
ATOM     23  C   UNL     1       2.428   2.353   4.407  0.00  0.00    +0.269 C 
BRANCH  23  24
ATOM     24  C   UNL     1       2.864   3.412   5.385  0.00  0.00    -0.010 A 
ATOM     25  C   UNL     1       3.051   3.090   6.716  0.00  0.00    +0.007 A 
ATOM     26  C   UNL     1       3.451   4.062   7.614  0.00  0.00    +0.000 A 
ATOM     27  C   UNL     1       3.665   5.357   7.180  0.00  0.00    +0.000 A 
ATOM     28  C   UNL     1       3.479   5.679   5.849  0.00  0.00    +0.000 A 
ATOM     29  C   UNL     1       3.083   4.706   4.950  0.00  0.00    +0.007 A 
ENDBRANCH  23  24
ENDBRANCH  22  23
ENDBRANCH  19  22
ENDBRANCH   1  18
BRANCH   1  30
ATOM     30  C   UNL     1       3.984  -0.352   0.019  0.00  0.00    +0.067 C 
BRANCH  30  34
ATOM     31  C   UNL     1       0.432   2.020  -0.030  0.00  0.00    +0.000 A 
ATOM     32  C   UNL     1       1.641   2.593   0.318  0.00  0.00    +0.000 A 
ATOM     33  C   UNL     1       2.790   1.825   0.335  0.00  0.00    +0.004 A 
ATOM     34  C   UNL     1       2.731   0.485   0.002  0.00  0.00    -0.045 A 
ATOM     35  C   UNL     1       1.522  -0.088  -0.346  0.00  0.00    +0.004 A 
ATOM     36  C   UNL     1       0.373   0.680  -0.363  0.00  0.00    +0.000 A 
ENDBRANCH  30  34
ENDBRANCH   1  30
TORSDOF 9
