REMARK  Name = ZINC09725085
REMARK  9 active torsions:
REMARK  status: ('A' for Active; 'I' for Inactive)
REMARK    1  A    between atoms: C_1  and  C_2
REMARK    2  A    between atoms: C_2  and  O_3
REMARK    3  A    between atoms: O_3  and  C_4
REMARK    4  A    between atoms: C_7  and  S_25
REMARK    5  A    between atoms: C_9  and  N_10
REMARK    6  A    between atoms: C_11  and  C_13
REMARK    7  A    between atoms: C_13  and  N_14
REMARK    8  A    between atoms: C_18  and  C_20
REMARK    9  A    between atoms: S_25  and  N_28
REMARK                            x       y       z     vdW  Elec       q    Type
REMARK                         _______ _______ _______ _____ _____    ______ ____
ROOT
ATOM      1  C   UNL     1       0.817  -1.836   1.299  0.00  0.00    +0.142 A 
ATOM      2  C   UNL     1       0.286  -2.689   0.345  0.00  0.00    +0.049 A 
ATOM      3  C   UNL     1       0.403  -4.058   0.499  0.00  0.00    +0.032 A 
ATOM      4  C   UNL     1       1.050  -4.580   1.604  0.00  0.00    +0.107 A 
ATOM      5  C   UNL     1       1.583  -3.736   2.560  0.00  0.00    +0.055 A 
ATOM      6  C   UNL     1       1.473  -2.361   2.409  0.00  0.00    +0.077 A 
ENDROOT
BRANCH   6   7
ATOM      7  N   UNL     1       2.017  -1.504   3.375  0.00  0.00    -0.284 N 
ATOM      8  C   UNL     1       2.008  -1.860   4.675  0.00  0.00    +0.201 C 
ATOM      9  O   UNL     1       1.603  -2.956   5.000  0.00  0.00    -0.278 OA
ATOM     10  H   UNL     1       2.400  -0.654   3.108  0.00  0.00    +0.155 HD
BRANCH   8  11
ATOM     11  C   UNL     1       2.500  -0.897   5.724  0.00  0.00    +0.020 C 
BRANCH  11  12
ATOM     12  N   UNL     1       2.388  -1.518   7.050  0.00  0.00    +0.390 N 
ATOM     13  C   UNL     1       0.967  -1.729   7.380  0.00  0.00    -0.077 C 
ATOM     14  C   UNL     1       0.678  -0.947   8.679  0.00  0.00    -0.020 C 
ATOM     15  C   UNL     1       2.084  -0.802   9.320  0.00  0.00    -0.012 C 
ATOM     16  C   UNL     1       2.981  -0.625   8.069  0.00  0.00    -0.030 C 
ATOM     17  H   UNL     1       2.870  -2.404   7.053  0.00  0.00    -0.080 HD
BRANCH  16  18
ATOM     18  C   UNL     1       4.395  -1.044   8.375  0.00  0.00    -0.024 A 
ATOM     19  C   UNL     1       5.486  -0.270   8.596  0.00  0.00    +0.009 A 
ATOM     20  C   UNL     1       6.698  -0.880   8.862  0.00  0.00    +0.008 A 
ATOM     21  C   UNL     1       6.760  -2.234   8.893  0.00  0.00    +0.045 A 
ATOM     22  S   UNL     1       5.068  -2.689   8.547  0.00  0.00    -0.103 S 
ENDBRANCH  16  18
ENDBRANCH  11  12
ENDBRANCH   8  11
ENDBRANCH   6   7
BRANCH   4  23
ATOM     23  S   UNL     1       1.194  -6.326   1.794  0.00  0.00    +0.061 S 
ATOM     24  O   UNL     1       1.364  -6.571   3.183  0.00  0.00    -0.153 OA
ATOM     25  O   UNL     1       0.137  -6.905   1.041  0.00  0.00    -0.153 OA
BRANCH  23  26
ATOM     26  N   UNL     1       2.605  -6.783   1.057  0.00  0.00    -0.177 NA
ATOM     27  C   UNL     1       2.622  -7.154  -0.365  0.00  0.00    +0.109 C 
ATOM     28  C   UNL     1       3.684  -6.314  -1.081  0.00  0.00    +0.017 C 
ATOM     29  C   UNL     1       5.029  -6.486  -0.371  0.00  0.00    +0.003 C 
ATOM     30  C   UNL     1       4.913  -5.990   1.072  0.00  0.00    +0.017 C 
ATOM     31  C   UNL     1       3.866  -6.820   1.811  0.00  0.00    +0.109 C 
ENDBRANCH  23  26
ENDBRANCH   4  23
BRANCH   1  32
ATOM     32  O   UNL     1       0.703  -0.489   1.149  0.00  0.00    -0.490 OA
BRANCH  32  34
ATOM     33  C   UNL     1      -0.011   1.507  -0.011  0.00  0.00    +0.048 C 
ATOM     34  C   UNL     1       0.017  -0.022  -0.015  0.00  0.00    +0.226 C 
ENDBRANCH  32  34
ENDBRANCH   1  32
TORSDOF 8
