REMARK  Name = ZINC66667903
REMARK  9 active torsions:
REMARK  status: ('A' for Active; 'I' for Inactive)
REMARK    1  A    between atoms: C_1  and  C_2
REMARK    2  A    between atoms: C_5  and  C_9
REMARK    3  A    between atoms: C_6  and  C_8
REMARK    4  A    between atoms: C_9  and  C_10
REMARK    5  A    between atoms: C_10  and  C_12
REMARK    6  A    between atoms: C_10  and  N_13
REMARK    7  A    between atoms: N_16  and  C_17
REMARK    8  A    between atoms: C_22  and  C_23
REMARK    9  A    between atoms: C_23  and  C_24
REMARK                            x       y       z     vdW  Elec       q    Type
REMARK                         _______ _______ _______ _____ _____    ______ ____
ROOT
ATOM      1  N   UNL     1      -2.214  -4.407   2.381  0.00  0.00    -0.296 N 
ATOM      2  C   UNL     1      -3.519  -4.122   2.567  0.00  0.00    +0.304 C 
ATOM      3  O   UNL     1      -4.343  -4.489   1.752  0.00  0.00    -0.253 OA
ATOM      4  N   UNL     1      -3.909  -3.431   3.656  0.00  0.00    -0.269 N 
ATOM      5  H   UNL     1      -1.557  -4.114   3.031  0.00  0.00    +0.151 HD
ATOM      6  H   UNL     1      -3.246  -3.079   4.271  0.00  0.00    +0.156 HD
ENDROOT
BRANCH   4   7
ATOM      7  C   UNL     1      -5.271  -3.221   3.900  0.00  0.00    +0.038 A 
ATOM      8  C   UNL     1      -6.165  -3.147   2.840  0.00  0.00    +0.023 A 
ATOM      9  C   UNL     1      -7.508  -2.940   3.084  0.00  0.00    +0.002 A 
ATOM     10  C   UNL     1      -7.963  -2.806   4.383  0.00  0.00    +0.000 A 
ATOM     11  C   UNL     1      -7.076  -2.879   5.441  0.00  0.00    +0.006 A 
ATOM     12  C   UNL     1      -5.732  -3.092   5.204  0.00  0.00    -0.017 A 
BRANCH  12  13
ATOM     13  C   UNL     1      -4.766  -3.178   6.357  0.00  0.00    +0.132 C 
BRANCH  13  14
ATOM     14  C   UNL     1      -4.148  -1.825   6.596  0.00  0.00    +0.215 C 
ATOM     15  O   UNL     1      -4.460  -0.883   5.898  0.00  0.00    -0.276 OA
ATOM     16  N   UNL     1      -3.247  -1.660   7.585  0.00  0.00    -0.329 N 
ATOM     17  H   UNL     1      -2.997  -2.413   8.144  0.00  0.00    +0.145 HD
ATOM     18  H   UNL     1      -2.849  -0.789   7.739  0.00  0.00    +0.145 HD
ENDBRANCH  13  14
ENDBRANCH  12  13
ENDBRANCH   4   7
BRANCH   1  19
ATOM     19  C   UNL     1      -1.790  -5.158   1.197  0.00  0.00    +0.076 C 
ATOM     20  C   UNL     1      -1.917  -6.657   1.472  0.00  0.00    +0.028 C 
BRANCH  19  21
ATOM     21  C   UNL     1      -0.333  -4.820   0.874  0.00  0.00    +0.057 C 
BRANCH  21  26
ATOM     22  C   UNL     1       0.083   0.762  -0.561  0.00  0.00    +0.044 C 
ATOM     23  C   UNL     1      -0.026  -0.694  -0.187  0.00  0.00    -0.050 A 
ATOM     24  C   UNL     1       0.306  -1.106   1.090  0.00  0.00    +0.003 A 
ATOM     25  C   UNL     1       0.206  -2.441   1.434  0.00  0.00    +0.004 A 
ATOM     26  C   UNL     1      -0.226  -3.365   0.500  0.00  0.00    -0.043 A 
ATOM     27  C   UNL     1      -0.558  -2.953  -0.777  0.00  0.00    -0.047 A 
ATOM     28  C   UNL     1      -0.463  -1.617  -1.119  0.00  0.00    +0.007 A 
ATOM     29  C   UNL     1      -1.028  -3.959  -1.795  0.00  0.00    +0.044 C 
ENDBRANCH  21  26
ENDBRANCH  19  21
ENDBRANCH   1  19
TORSDOF 6
