REMARK  Name = ZINC20240473
REMARK  7 active torsions:
REMARK  status: ('A' for Active; 'I' for Inactive)
REMARK    1  A    between atoms: C_4  and  C_7
REMARK    2  A    between atoms: C_7  and  N_8
REMARK    3  A    between atoms: N_11  and  C_14
REMARK    4  A    between atoms: C_14  and  C_15
REMARK    5  A    between atoms: C_18  and  C_21
REMARK    6  A    between atoms: N_23  and  N_24
REMARK    7  A    between atoms: C_25  and  C_26
REMARK                            x       y       z     vdW  Elec       q    Type
REMARK                         _______ _______ _______ _____ _____    ______ ____
ROOT
ATOM      1  C   UNL     1       6.716  -3.804   4.761  0.00  0.00    -0.033 A 
ATOM      2  C   UNL     1       6.644  -5.185   4.723  0.00  0.00    +0.005 A 
ATOM      3  C   UNL     1       7.799  -5.938   4.675  0.00  0.00    +0.013 A 
ATOM      4  C   UNL     1       9.042  -5.303   4.666  0.00  0.00    +0.038 A 
ATOM      5  C   UNL     1       9.108  -3.909   4.705  0.00  0.00    +0.013 A 
ATOM      6  C   UNL     1       7.945  -3.168   4.747  0.00  0.00    +0.005 A 
ENDROOT
BRANCH   4   7
ATOM      7  C   UNL     1      10.284  -6.103   4.616  0.00  0.00    +0.263 C 
ATOM      8  O   UNL     1      10.224  -7.317   4.583  0.00  0.00    -0.268 OA
ATOM      9  N   UNL     1      11.483  -5.487   4.608  0.00  0.00    -0.203 N 
ATOM     10  H   UNL     1      11.531  -4.519   4.635  0.00  0.00    +0.178 HD
BRANCH   9  11
ATOM     11  N   UNL     1      12.660  -6.245   4.560  0.00  0.00    -0.187 NA
ATOM     12  C   UNL     1      13.814  -5.652   4.552  0.00  0.00    +0.141 C 
BRANCH  12  13
ATOM     13  C   UNL     1      15.053  -6.450   4.502  0.00  0.00    +0.031 A 
ATOM     14  C   UNL     1      14.988  -7.846   4.458  0.00  0.00    +0.051 A 
ATOM     15  C   UNL     1      16.152  -8.586   4.411  0.00  0.00    +0.021 A 
ATOM     16  C   UNL     1      17.381  -7.951   4.409  0.00  0.00    +0.003 A 
ATOM     17  C   UNL     1      17.453  -6.570   4.452  0.00  0.00    +0.021 A 
ATOM     18  C   UNL     1      16.298  -5.815   4.493  0.00  0.00    +0.051 A 
ATOM     19 CL   UNL     1      16.392  -4.082   4.541  0.00  0.00    -0.083 Cl
ATOM     20 CL   UNL     1      13.447  -8.646   4.462  0.00  0.00    -0.083 Cl
ENDBRANCH  12  13
ENDBRANCH   9  11
ENDBRANCH   4   7
BRANCH   1  21
ATOM     21  C   UNL     1       5.450  -2.988   4.812  0.00  0.00    +0.119 C 
BRANCH  21  25
ATOM     22  N   UNL     1       4.153  -0.953   1.342  0.00  0.00    +0.384 N 
ATOM     23  C   UNL     1       3.207  -1.861   2.004  0.00  0.00    -0.063 C 
ATOM     24  C   UNL     1       3.657  -2.102   3.447  0.00  0.00    +0.066 C 
ATOM     25  N   UNL     1       5.005  -2.688   3.445  0.00  0.00    -0.302 NA
ATOM     26  C   UNL     1       5.958  -1.801   2.763  0.00  0.00    +0.066 C 
ATOM     27  C   UNL     1       5.489  -1.562   1.326  0.00  0.00    -0.063 C 
ATOM     28  H   UNL     1       4.188  -0.079   1.844  0.00  0.00    -0.081 HD
BRANCH  22  29
ATOM     29  C   UNL     1       3.711  -0.707  -0.038  0.00  0.00    -0.043 C 
BRANCH  29  33
ATOM     30  C   UNL     1      -0.017   1.378   0.010  0.00  0.00    +0.000 A 
ATOM     31  C   UNL     1       1.171   2.086   0.002  0.00  0.00    +0.000 A 
ATOM     32  C   UNL     1       2.377   1.411  -0.013  0.00  0.00    +0.002 A 
ATOM     33  C   UNL     1       2.396   0.029  -0.020  0.00  0.00    -0.064 A 
ATOM     34  C   UNL     1       1.208  -0.679  -0.012  0.00  0.00    +0.002 A 
ATOM     35  C   UNL     1       0.002  -0.004   0.002  0.00  0.00    +0.000 A 
ENDBRANCH  29  33
ENDBRANCH  22  29
ENDBRANCH  21  25
ENDBRANCH   1  21
TORSDOF 7
