REMARK  Name = ZINC20923444
REMARK  10 active torsions:
REMARK  status: ('A' for Active; 'I' for Inactive)
REMARK    1  A    between atoms: C_1  and  C_2
REMARK    2  A    between atoms: C_5  and  N_9
REMARK    3  A    between atoms: C_6  and  C_8
REMARK    4  A    between atoms: N_9  and  C_10
REMARK    5  A    between atoms: N_9  and  S_20
REMARK    6  A    between atoms: C_10  and  C_11
REMARK    7  A    between atoms: N_13  and  C_14
REMARK    8  A    between atoms: C_14  and  C_15
REMARK    9  A    between atoms: S_20  and  C_23
REMARK   10  A    between atoms: C_27  and  N_29
REMARK                            x       y       z     vdW  Elec       q    Type
REMARK                         _______ _______ _______ _____ _____    ______ ____
ROOT
ATOM      1  N   UNL     1      -4.247   5.084  -2.982  0.00  0.00    -0.194 N 
ENDROOT
BRANCH   1   6
ATOM      2  C   UNL     1      -4.095  10.748  -2.771  0.00  0.00    +0.044 C 
ATOM      3  C   UNL     1      -4.136   9.243  -2.827  0.00  0.00    -0.050 A 
ATOM      4  C   UNL     1      -3.979   8.505  -1.668  0.00  0.00    +0.005 A 
ATOM      5  C   UNL     1      -4.015   7.125  -1.716  0.00  0.00    +0.025 A 
ATOM      6  C   UNL     1      -4.210   6.479  -2.930  0.00  0.00    +0.055 A 
ATOM      7  C   UNL     1      -4.363   7.223  -4.093  0.00  0.00    -0.028 A 
ATOM      8  C   UNL     1      -4.331   8.603  -4.037  0.00  0.00    +0.008 A 
ATOM      9  C   UNL     1      -4.569   6.526  -5.413  0.00  0.00    +0.046 C 
ENDBRANCH   1   6
BRANCH   1  10
ATOM     10  S   UNL     1      -5.698   4.290  -2.899  0.00  0.00    +0.075 S 
ATOM     11  O   UNL     1      -6.702   5.245  -3.213  0.00  0.00    -0.150 OA
ATOM     12  O   UNL     1      -5.542   3.081  -3.630  0.00  0.00    -0.150 OA
BRANCH  10  13
ATOM     13  C   UNL     1      -5.947   3.832  -1.216  0.00  0.00    +0.111 A 
ATOM     14  C   UNL     1      -5.422   2.646  -0.738  0.00  0.00    +0.030 A 
ATOM     15  C   UNL     1      -5.613   2.289   0.584  0.00  0.00    +0.024 A 
ATOM     16  C   UNL     1      -6.337   3.114   1.425  0.00  0.00    +0.071 A 
ATOM     17  C   UNL     1      -6.866   4.299   0.945  0.00  0.00    +0.146 A 
ATOM     18  C   UNL     1      -6.670   4.657  -0.376  0.00  0.00    +0.063 A 
ATOM     19 CL   UNL     1      -6.582   2.663   3.084  0.00  0.00    -0.081 Cl
BRANCH  17  20
ATOM     20  N   UNL     1      -7.641   5.182   1.845  0.00  0.00    +0.058 N 
ATOM     21  O   UNL     1      -8.106   6.225   1.422  0.00  0.00    -0.126 OA
ATOM     22  O   UNL     1      -7.813   4.866   3.009  0.00  0.00    -0.126 OA
ENDBRANCH  17  20
ENDBRANCH  10  13
ENDBRANCH   1  10
BRANCH   1  23
ATOM     23  C   UNL     1      -3.002   4.322  -3.110  0.00  0.00    +0.227 C 
BRANCH  23  24
ATOM     24  C   UNL     1      -2.416   4.085  -1.742  0.00  0.00    +0.232 C 
ATOM     25  O   UNL     1      -2.943   4.570  -0.763  0.00  0.00    -0.274 OA
ATOM     26  N   UNL     1      -1.306   3.333  -1.606  0.00  0.00    -0.309 N 
ATOM     27  H   UNL     1      -0.828   2.892  -2.493  0.00  0.00    +0.149 HD
BRANCH  26  28
ATOM     28  C   UNL     1      -0.736   3.102  -0.276  0.00  0.00    +0.146 C 
BRANCH  28  29
ATOM     29  C   UNL     1       0.491   2.236  -0.399  0.00  0.00    +0.007 A 
ATOM     30  C   UNL     1       1.782   2.607  -0.580  0.00  0.00    +0.013 A 
ATOM     31  C   UNL     1       2.755   1.629  -0.670  0.00  0.00    +0.008 A 
ATOM     32  C   UNL     1       2.388   0.327  -0.576  0.00  0.00    +0.045 A 
ATOM     33  S   UNL     1       0.622   0.456  -0.351  0.00  0.00    -0.100 S 
ENDBRANCH  28  29
ENDBRANCH  26  28
ENDBRANCH  23  24
ENDBRANCH   1  23
TORSDOF 8
