REMARK  Name = ZINC05376547
REMARK  12 active torsions:
REMARK  status: ('A' for Active; 'I' for Inactive)
REMARK    1  A    between atoms: C_1  and  C_2
REMARK    2  A    between atoms: C_2  and  N_3
REMARK    3  A    between atoms: N_3  and  C_4
REMARK    4  A    between atoms: N_3  and  C_6
REMARK    5  A    between atoms: C_4  and  C_5
REMARK    6  A    between atoms: C_9  and  N_12
REMARK    7  A    between atoms: C_18  and  C_19
REMARK    8  A    between atoms: C_22  and  O_27
REMARK    9  A    between atoms: C_23  and  O_25
REMARK   10  A    between atoms: O_25  and  C_26
REMARK   11  A    between atoms: O_27  and  C_28
REMARK   12  A    between atoms: C_28  and  C_29
REMARK                            x       y       z     vdW  Elec       q    Type
REMARK                         _______ _______ _______ _____ _____    ______ ____
ROOT
ATOM      1  N   UNL     1       2.146   0.252  -1.046  0.00  0.00    -0.226 NA
ATOM      2  C   UNL     1       3.168   0.861  -1.602  0.00  0.00    +0.166 C 
ATOM      3  N   UNL     1       4.493   0.481  -1.607  0.00  0.00    -0.260 N 
ATOM      4  C   UNL     1       5.403   1.218  -2.221  0.00  0.00    +0.256 C 
ATOM      5  O   UNL     1       6.577   0.898  -2.235  0.00  0.00    -0.269 OA
ATOM      6  C   UNL     1       4.930   2.447  -2.887  0.00  0.00    +0.078 C 
ATOM      7  C   UNL     1       5.636   3.375  -3.582  0.00  0.00    +0.028 C 
ATOM      8  S   UNL     1       3.178   2.379  -2.541  0.00  0.00    -0.049 S 
ATOM      9  H   UNL     1       4.761  -0.335  -1.155  0.00  0.00    +0.157 HD
ENDROOT
BRANCH   1  13
ATOM     10  C   UNL     1      -1.652   1.875  -1.357  0.00  0.00    +0.030 A 
ATOM     11  C   UNL     1      -1.459   0.516  -1.576  0.00  0.00    +0.025 A 
ATOM     12  C   UNL     1      -0.197  -0.029  -1.468  0.00  0.00    +0.029 A 
ATOM     13  C   UNL     1       0.889   0.789  -1.149  0.00  0.00    +0.067 A 
ATOM     14  C   UNL     1       0.692   2.155  -0.935  0.00  0.00    +0.029 A 
ATOM     15  C   UNL     1      -0.574   2.691  -1.040  0.00  0.00    +0.025 A 
BRANCH  10  16
ATOM     16  N   UNL     1      -2.935   2.423  -1.462  0.00  0.00    -0.330 N 
BRANCH  16  18
ATOM     17  C   UNL     1      -4.692   1.013  -0.511  0.00  0.00    +0.024 C 
ATOM     18  C   UNL     1      -4.074   1.564  -1.797  0.00  0.00    +0.102 C 
ENDBRANCH  16  18
BRANCH  16  19
ATOM     19  C   UNL     1      -3.140   3.856  -1.237  0.00  0.00    +0.102 C 
ATOM     20  C   UNL     1      -2.989   4.607  -2.562  0.00  0.00    +0.024 C 
ENDBRANCH  16  19
ENDBRANCH  10  16
ENDBRANCH   1  13
BRANCH   7  21
ATOM     21  C   UNL     1       4.931   4.437  -4.312  0.00  0.00    -0.020 A 
ATOM     22  C   UNL     1       3.538   4.393  -4.446  0.00  0.00    +0.012 A 
ATOM     23  C   UNL     1       2.881   5.391  -5.131  0.00  0.00    +0.050 A 
ATOM     24  C   UNL     1       3.595   6.442  -5.690  0.00  0.00    +0.162 A 
ATOM     25  C   UNL     1       4.983   6.494  -5.561  0.00  0.00    +0.162 A 
ATOM     26  C   UNL     1       5.651   5.500  -4.872  0.00  0.00    +0.057 A 
BRANCH  25  27
ATOM     27  O   UNL     1       5.678   7.526  -6.109  0.00  0.00    -0.491 OA
ATOM     28  C   UNL     1       7.097   7.515  -5.939  0.00  0.00    +0.277 C 
ENDBRANCH  25  27
BRANCH  24  29
ATOM     29  O   UNL     1       2.941   7.423  -6.364  0.00  0.00    -0.489 OA
BRANCH  29  30
ATOM     30  C   UNL     1       1.520   7.309  -6.458  0.00  0.00    +0.226 C 
ATOM     31  C   UNL     1       0.963   8.496  -7.246  0.00  0.00    +0.048 C 
ENDBRANCH  29  30
ENDBRANCH  24  29
ENDBRANCH   7  21
TORSDOF 8
