REMARK  Name = ZINC34829567
REMARK  14 active torsions:
REMARK  status: ('A' for Active; 'I' for Inactive)
REMARK    1  A    between atoms: C_1  and  C_2
REMARK    2  A    between atoms: C_2  and  N_3
REMARK    3  A    between atoms: N_6  and  C_9
REMARK    4  A    between atoms: C_10  and  C_21
REMARK    5  A    between atoms: C_11  and  C_20
REMARK    6  A    between atoms: N_13  and  C_14
REMARK    7  A    between atoms: C_21  and  N_22
REMARK    8  A    between atoms: N_22  and  C_23
REMARK    9  A    between atoms: N_22  and  S_27
REMARK   10  A    between atoms: C_23  and  C_24
REMARK   11  A    between atoms: C_24  and  C_25
REMARK   12  A    between atoms: C_24  and  C_26
REMARK   13  A    between atoms: S_27  and  C_30
REMARK   14  A    between atoms: C_33  and  C_36
REMARK                            x       y       z     vdW  Elec       q    Type
REMARK                         _______ _______ _______ _____ _____    ______ ____
ROOT
ATOM      1  C   UNL     1      -2.995  -3.478  -2.192  0.00  0.00    +0.129 A 
ATOM      2  C   UNL     1      -3.384  -4.723  -1.802  0.00  0.00    +0.031 A 
ATOM      3  C   UNL     1      -4.199  -5.253  -2.807  0.00  0.00    +0.067 A 
ATOM      4  N   UNL     1      -4.302  -4.369  -3.766  0.00  0.00    -0.170 NA
ATOM      5  N   UNL     1      -3.559  -3.236  -3.407  0.00  0.00    -0.218 N 
ATOM      6  C   UNL     1      -4.849  -6.612  -2.789  0.00  0.00    +0.068 C 
ENDROOT
BRANCH   1  10
ATOM      7  N   UNL     1      -0.550  -1.618   0.569  0.00  0.00    +0.382 N 
ATOM      8  C   UNL     1      -0.056  -2.710  -0.280  0.00  0.00    -0.060 C 
ATOM      9  C   UNL     1      -0.717  -2.623  -1.659  0.00  0.00    +0.088 C 
ATOM     10  N   UNL     1      -2.176  -2.609  -1.477  0.00  0.00    -0.318 N 
ATOM     11  C   UNL     1      -2.746  -1.651  -0.517  0.00  0.00    +0.088 C 
ATOM     12  C   UNL     1      -1.989  -1.784   0.809  0.00  0.00    -0.060 C 
ATOM     13  H   UNL     1      -0.387  -0.736   0.106  0.00  0.00    -0.082 HD
BRANCH   7  15
ATOM     14  C   UNL     1       1.647  -1.339   1.615  0.00  0.00    -0.017 C 
ATOM     15  C   UNL     1       0.164  -1.635   1.852  0.00  0.00    -0.082 C 
ENDBRANCH   7  15
ENDBRANCH   1  10
BRANCH   5  16
ATOM     16  C   UNL     1      -3.420  -2.065  -4.164  0.00  0.00    +0.067 A 
ATOM     17  C   UNL     1      -3.482  -0.824  -3.545  0.00  0.00    +0.028 A 
ATOM     18  C   UNL     1      -3.344   0.328  -4.294  0.00  0.00    +0.002 A 
ATOM     19  C   UNL     1      -3.143   0.246  -5.659  0.00  0.00    +0.000 A 
ATOM     20  C   UNL     1      -3.081  -0.988  -6.279  0.00  0.00    +0.002 A 
ATOM     21  C   UNL     1      -3.213  -2.144  -5.535  0.00  0.00    +0.028 A 
ENDBRANCH   5  16
BRANCH   2  22
ATOM     22  C   UNL     1      -3.003  -5.409  -0.516  0.00  0.00    +0.149 C 
BRANCH  22  23
ATOM     23  N   UNL     1      -4.213  -5.725   0.247  0.00  0.00    -0.172 NA
BRANCH  23  24
ATOM     24  S   UNL     1      -5.083  -4.510   0.961  0.00  0.00    +0.061 S 
ATOM     25  O   UNL     1      -5.670  -5.064   2.130  0.00  0.00    -0.153 OA
ATOM     26  O   UNL     1      -4.233  -3.372   1.001  0.00  0.00    -0.153 OA
BRANCH  24  27
ATOM     27  C   UNL     1      -6.409  -4.110  -0.128  0.00  0.00    +0.106 A 
ATOM     28  C   UNL     1      -6.216  -3.194  -1.145  0.00  0.00    +0.029 A 
ATOM     29  C   UNL     1      -7.257  -2.880  -1.999  0.00  0.00    +0.005 A 
ATOM     30  C   UNL     1      -8.490  -3.483  -1.837  0.00  0.00    -0.050 A 
ATOM     31  C   UNL     1      -8.683  -4.400  -0.820  0.00  0.00    +0.005 A 
ATOM     32  C   UNL     1      -7.641  -4.717   0.031  0.00  0.00    +0.029 A 
ATOM     33  C   UNL     1      -9.625  -3.140  -2.767  0.00  0.00    +0.044 C 
ENDBRANCH  24  27
ENDBRANCH  23  24
BRANCH  23  34
ATOM     34  C   UNL     1      -4.654  -7.116   0.378  0.00  0.00    +0.112 C 
BRANCH  34  35
ATOM     35  C   UNL     1      -3.945  -7.766   1.567  0.00  0.00    -0.001 C 
ATOM     36  C   UNL     1      -4.459  -9.196   1.748  0.00  0.00    +0.008 C 
ATOM     37  C   UNL     1      -2.437  -7.795   1.309  0.00  0.00    +0.008 C 
ENDBRANCH  34  35
ENDBRANCH  23  34
ENDBRANCH  22  23
ENDBRANCH   2  22
TORSDOF 9
