REMARK  Name = ZINC45605283
REMARK  7 active torsions:
REMARK  status: ('A' for Active; 'I' for Inactive)
REMARK    1  A    between atoms: C_3  and  S_22
REMARK    2  A    between atoms: C_6  and  C_7
REMARK    3  A    between atoms: C_7  and  N_8
REMARK    4  A    between atoms: C_9  and  C_11
REMARK    5  A    between atoms: C_11  and  S_12
REMARK    6  A    between atoms: S_12  and  C_13
REMARK    7  A    between atoms: S_22  and  N_25
REMARK                            x       y       z     vdW  Elec       q    Type
REMARK                         _______ _______ _______ _____ _____    ______ ____
ROOT
ATOM      1  N   UNL     1      -1.726  -1.018  -1.368  0.00  0.00    -0.311 N 
ATOM      2  C   UNL     1      -2.867  -1.694  -1.606  0.00  0.00    +0.224 C 
ATOM      3  O   UNL     1      -3.535  -2.103  -0.680  0.00  0.00    -0.275 OA
ATOM      4  H   UNL     1      -1.192  -0.691  -2.108  0.00  0.00    +0.149 HD
ENDROOT
BRANCH   1   5
ATOM      5  C   UNL     1      -1.293  -0.775   0.011  0.00  0.00    +0.139 C 
BRANCH   5  11
ATOM      6  C   UNL     1      -0.017   1.378   0.010  0.00  0.00    +0.007 A 
ATOM      7  C   UNL     1       1.171   2.086   0.002  0.00  0.00    +0.029 A 
ATOM      8  C   UNL     1       2.377   1.411  -0.013  0.00  0.00    +0.105 A 
ATOM      9  C   UNL     1       2.396   0.029  -0.020  0.00  0.00    +0.029 A 
ATOM     10  C   UNL     1       1.208  -0.679  -0.012  0.00  0.00    +0.007 A 
ATOM     11  C   UNL     1       0.002  -0.004   0.002  0.00  0.00    -0.030 A 
BRANCH   8  12
ATOM     12  S   UNL     1       3.891   2.312  -0.024  0.00  0.00    +0.056 S 
ATOM     13  O   UNL     1       4.872   1.453  -0.588  0.00  0.00    -0.153 OA
ATOM     14  O   UNL     1       3.597   3.593  -0.566  0.00  0.00    -0.153 OA
BRANCH  12  15
ATOM     15  N   UNL     1       4.327   2.556   1.555  0.00  0.00    -0.204 NA
ATOM     16  H   UNL     1       5.265   2.623   1.794  0.00  0.00    +0.144 HD
ATOM     17  H   UNL     1       3.645   2.631   2.241  0.00  0.00    +0.144 HD
ENDBRANCH  12  15
ENDBRANCH   8  12
ENDBRANCH   5  11
ENDBRANCH   1   5
BRANCH   2  18
ATOM     18  C   UNL     1      -3.312  -1.944  -3.024  0.00  0.00    +0.171 C 
BRANCH  18  19
ATOM     19  S   UNL     1      -4.871  -2.872  -3.014  0.00  0.00    -0.095 S 
BRANCH  19  20
ATOM     20  C   UNL     1      -5.254  -3.081  -4.721  0.00  0.00    +0.115 A 
ATOM     21  C   UNL     1      -6.399  -3.752  -5.115  0.00  0.00    +0.069 A 
ATOM     22  C   UNL     1      -6.712  -3.923  -6.480  0.00  0.00    +0.082 A 
ATOM     23  C   UNL     1      -7.903  -4.622  -6.743  0.00  0.00    +0.036 A 
ATOM     24  C   UNL     1      -8.659  -5.077  -5.726  0.00  0.00    +0.048 A 
ATOM     25  S   UNL     1      -7.745  -4.553  -4.284  0.00  0.00    -0.092 S 
ATOM     26  N   UNL     1      -5.822  -3.391  -7.355  0.00  0.00    -0.235 NA
ATOM     27  C   UNL     1      -4.751  -2.764  -6.943  0.00  0.00    +0.223 A 
ATOM     28  N   UNL     1      -4.451  -2.592  -5.667  0.00  0.00    -0.228 NA
ENDBRANCH  19  20
ENDBRANCH  18  19
ENDBRANCH   2  18
TORSDOF 7
