REMARK  Name = ZINC01752155
REMARK  7 active torsions:
REMARK  status: ('A' for Active; 'I' for Inactive)
REMARK    1  A    between atoms: C_6  and  C_7
REMARK    2  A    between atoms: N_11  and  C_15
REMARK    3  A    between atoms: C_15  and  C_16
REMARK    4  A    between atoms: C_16  and  C_17
REMARK    5  A    between atoms: N_19  and  C_20
REMARK    6  A    between atoms: C_23  and  S_26
REMARK    7  A    between atoms: S_26  and  N_29
REMARK                            x       y       z     vdW  Elec       q    Type
REMARK                         _______ _______ _______ _____ _____    ______ ____
ROOT
ATOM      1  C   UNL     1       3.175   3.132  -1.595  0.00  0.00    +0.115 C 
ENDROOT
BRANCH   1   2
ATOM      2  C   UNL     1       4.624   2.762  -1.782  0.00  0.00    +0.219 C 
ATOM      3  O   UNL     1       5.360   2.689  -0.820  0.00  0.00    -0.275 OA
ATOM      4  N   UNL     1       5.102   2.511  -3.017  0.00  0.00    -0.285 N 
ATOM      5  H   UNL     1       4.536   2.647  -3.793  0.00  0.00    +0.155 HD
BRANCH   4   6
ATOM      6  C   UNL     1       6.415   2.055  -3.180  0.00  0.00    +0.033 A 
ATOM      7  C   UNL     1       7.146   2.425  -4.301  0.00  0.00    +0.025 A 
ATOM      8  C   UNL     1       8.443   1.977  -4.457  0.00  0.00    +0.030 A 
ATOM      9  C   UNL     1       9.011   1.154  -3.502  0.00  0.00    +0.105 A 
ATOM     10  C   UNL     1       8.284   0.780  -2.387  0.00  0.00    +0.030 A 
ATOM     11  C   UNL     1       6.988   1.228  -2.223  0.00  0.00    +0.025 A 
BRANCH   9  12
ATOM     12  S   UNL     1      10.664   0.579  -3.708  0.00  0.00    +0.056 S 
ATOM     13  O   UNL     1      11.315   1.511  -4.561  0.00  0.00    -0.153 OA
ATOM     14  O   UNL     1      11.149   0.266  -2.409  0.00  0.00    -0.153 OA
BRANCH  12  15
ATOM     15  N   UNL     1      10.585  -0.850  -4.541  0.00  0.00    -0.204 NA
ATOM     16  H   UNL     1      11.316  -1.112  -5.123  0.00  0.00    +0.144 HD
ATOM     17  H   UNL     1       9.810  -1.424  -4.447  0.00  0.00    +0.144 HD
ENDBRANCH  12  15
ENDBRANCH   9  12
ENDBRANCH   4   6
ENDBRANCH   1   2
BRANCH   1  18
ATOM     18  C   UNL     1       2.895   3.362  -0.109  0.00  0.00    +0.124 C 
BRANCH  18  23
ATOM     19  C   UNL     1      -0.944   6.487   0.228  0.00  0.00    +0.028 C 
ATOM     20  C   UNL     1      -0.301   5.292   0.221  0.00  0.00    +0.077 C 
ATOM     21  C   UNL     1       1.134   4.995   0.031  0.00  0.00    +0.258 C 
ATOM     22  O   UNL     1       1.951   5.879  -0.155  0.00  0.00    -0.269 OA
ATOM     23  N   UNL     1       1.486   3.721   0.072  0.00  0.00    -0.255 N 
ATOM     24  C   UNL     1       0.578   2.746   0.279  0.00  0.00    +0.121 C 
ATOM     25  S   UNL     1       0.835   1.055   0.365  0.00  0.00    -0.027 S 
ATOM     26  S   UNL     1      -0.958   3.643   0.432  0.00  0.00    -0.061 S 
BRANCH  19  32
ATOM     27  C   UNL     1       1.039   7.832   0.894  0.00  0.00    +0.011 A 
ATOM     28  C   UNL     1       1.760   9.006   0.858  0.00  0.00    +0.039 A 
ATOM     29  C   UNL     1       1.284  10.094   0.142  0.00  0.00    +0.123 A 
ATOM     30  C   UNL     1       0.083  10.008  -0.546  0.00  0.00    +0.039 A 
ATOM     31  C   UNL     1      -0.646   8.839  -0.523  0.00  0.00    +0.011 A 
ATOM     32  C   UNL     1      -0.172   7.736   0.198  0.00  0.00    -0.024 A 
ATOM     33  F   UNL     1       1.994  11.243   0.115  0.00  0.00    -0.205 F 
ENDBRANCH  19  32
ENDBRANCH  18  23
ENDBRANCH   1  18
TORSDOF 7
