REMARK  Name = ZINC29498823
REMARK  8 active torsions:
REMARK  status: ('A' for Active; 'I' for Inactive)
REMARK    1  A    between atoms: C_1  and  C_2
REMARK    2  A    between atoms: C_2  and  C_3
REMARK    3  A    between atoms: C_2  and  C_4
REMARK    4  A    between atoms: C_4  and  C_5
REMARK    5  A    between atoms: C_5  and  C_6
REMARK    6  A    between atoms: C_5  and  N_20
REMARK    7  A    between atoms: N_8  and  C_9
REMARK    8  A    between atoms: C_13  and  C_15
REMARK                            x       y       z     vdW  Elec       q    Type
REMARK                         _______ _______ _______ _____ _____    ______ ____
ROOT
ATOM      1  C   UNL     1      -2.820  -2.588   0.012  0.00  0.00    +0.238 C 
ATOM      2  O   UNL     1      -3.323  -3.207  -0.902  0.00  0.00    -0.273 OA
ATOM      3  N   UNL     1      -3.518  -2.371   1.144  0.00  0.00    -0.284 N 
ATOM      4  H   UNL     1      -3.094  -1.935   1.899  0.00  0.00    +0.155 HD
ENDROOT
BRANCH   3   5
ATOM      5  C   UNL     1      -4.856  -2.773   1.229  0.00  0.00    +0.034 A 
ATOM      6  C   UNL     1      -5.768  -2.008   1.944  0.00  0.00    +0.023 A 
ATOM      7  C   UNL     1      -7.087  -2.408   2.026  0.00  0.00    +0.002 A 
ATOM      8  C   UNL     1      -7.500  -3.569   1.398  0.00  0.00    +0.005 A 
ATOM      9  C   UNL     1      -6.594  -4.332   0.686  0.00  0.00    -0.023 A 
ATOM     10  C   UNL     1      -5.274  -3.935   0.594  0.00  0.00    +0.028 A 
BRANCH   9  11
ATOM     11  C   UNL     1      -7.048  -5.597   0.003  0.00  0.00    +0.133 C 
ATOM     12  S   UNL     1      -8.500  -5.273  -1.078  0.00  0.00    -0.141 S 
ATOM     13  C   UNL     1      -9.549  -6.751  -0.795  0.00  0.00    +0.081 C 
ATOM     14  C   UNL     1      -9.477  -7.011   0.730  0.00  0.00    +0.081 C 
ATOM     15  S   UNL     1      -7.731  -6.788   1.220  0.00  0.00    -0.141 S 
ENDBRANCH   9  11
ENDBRANCH   3   5
BRANCH   1  16
ATOM     16  C   UNL     1      -1.413  -2.063  -0.118  0.00  0.00    +0.161 C 
BRANCH  16  17
ATOM     17  N   UNL     1      -0.875  -2.429  -1.431  0.00  0.00    -0.288 N 
ATOM     18  C   UNL     1       0.457  -2.533  -1.608  0.00  0.00    +0.298 C 
ATOM     19  O   UNL     1       1.212  -2.324  -0.678  0.00  0.00    -0.253 OA
ATOM     20  N   UNL     1       0.952  -2.869  -2.816  0.00  0.00    -0.313 N 
ATOM     21  H   UNL     1      -1.478  -2.595  -2.173  0.00  0.00    +0.151 HD
ATOM     22  H   UNL     1       0.349  -3.036  -3.558  0.00  0.00    +0.146 HD
ATOM     23  H   UNL     1       1.910  -2.945  -2.943  0.00  0.00    +0.146 HD
ENDBRANCH  16  17
BRANCH  16  24
ATOM     24  C   UNL     1      -1.423  -0.540   0.023  0.00  0.00    +0.034 C 
BRANCH  24  26
ATOM     25  C   UNL     1       0.003   1.512   0.031  0.00  0.00    +0.007 C 
ATOM     26  C   UNL     1       0.016  -0.018   0.015  0.00  0.00    -0.015 C 
ATOM     27  C   UNL     1       0.752  -0.535   1.253  0.00  0.00    +0.007 C 
ENDBRANCH  24  26
ENDBRANCH  16  24
ENDBRANCH   1  16
TORSDOF 6
