REMARK  Name = ZINC13627854
REMARK  7 active torsions:
REMARK  status: ('A' for Active; 'I' for Inactive)
REMARK    1  A    between atoms: C_1  and  C_2
REMARK    2  A    between atoms: C_2  and  O_3
REMARK    3  A    between atoms: O_3  and  C_4
REMARK    4  A    between atoms: N_12  and  C_13
REMARK    5  A    between atoms: C_13  and  C_15
REMARK    6  A    between atoms: N_20  and  C_21
REMARK    7  A    between atoms: C_21  and  C_22
REMARK                            x       y       z     vdW  Elec       q    Type
REMARK                         _______ _______ _______ _____ _____    ______ ____
ROOT
ATOM      1  C   UNL     1      -6.649  -1.218   0.030  0.00  0.00    +0.122 A 
ATOM      2  C   UNL     1      -6.999   0.126   0.039  0.00  0.00    +0.048 A 
ATOM      3  C   UNL     1      -6.042   1.111   0.038  0.00  0.00    +0.030 A 
ATOM      4  C   UNL     1      -4.673   0.789   0.029  0.00  0.00    +0.059 A 
ATOM      5  C   UNL     1      -4.350  -0.575   0.020  0.00  0.00    +0.042 A 
ATOM      6  C   UNL     1      -5.305  -1.564   0.020  0.00  0.00    +0.062 A 
ATOM      7  S   UNL     1      -2.573  -0.577   0.012  0.00  0.00    -0.052 S 
ATOM      8  C   UNL     1      -2.324   1.191   0.019  0.00  0.00    +0.168 A 
ATOM      9  N   UNL     1      -1.184   1.870   0.018  0.00  0.00    -0.152 NA
ATOM     10  N   UNL     1      -3.601   1.667   0.034  0.00  0.00    -0.310 N 
ENDROOT
BRANCH   9  11
ATOM     11  C   UNL     1      -0.015   1.216   0.009  0.00  0.00    +0.276 C 
ATOM     12  O   UNL     1       0.002  -0.004   0.002  0.00  0.00    -0.267 OA
BRANCH  11  13
ATOM     13  C   UNL     1       1.249   1.968   0.001  0.00  0.00    +0.076 A 
ATOM     14  C   UNL     1       2.548   1.492  -0.009  0.00  0.00    +0.021 A 
ATOM     15  C   UNL     1       3.557   2.424  -0.018  0.00  0.00    +0.008 A 
ATOM     16  C   UNL     1       3.240   3.744  -0.008  0.00  0.00    +0.046 A 
ATOM     17  S   UNL     1       1.506   3.734   0.008  0.00  0.00    -0.092 S 
ENDBRANCH  11  13
ENDBRANCH   9  11
BRANCH   1  18
ATOM     18  O   UNL     1      -7.609  -2.181   0.030  0.00  0.00    -0.492 OA
BRANCH  18  20
ATOM     19  C   UNL     1      -9.898  -2.958   0.038  0.00  0.00    +0.048 C 
ATOM     20  C   UNL     1      -8.969  -1.742   0.040  0.00  0.00    +0.225 C 
ENDBRANCH  18  20
ENDBRANCH   1  18
BRANCH  10  21
ATOM     21  C   UNL     1      -3.841   3.112   0.050  0.00  0.00    +0.212 C 
BRANCH  21  22
ATOM     22  C   UNL     1      -3.933   3.609  -1.333  0.00  0.00    -0.084 C 
ATOM     23  C   UNL     1      -4.006   4.005  -2.436  0.00  0.00    +0.005 C 
ENDBRANCH  21  22
ENDBRANCH  10  21
TORSDOF 6
