REMARK  Name = ZINC04980076
REMARK  6 active torsions:
REMARK  status: ('A' for Active; 'I' for Inactive)
REMARK    1  A    between atoms: C_1  and  C_2
REMARK    2  A    between atoms: C_5  and  S_8
REMARK    3  A    between atoms: S_8  and  N_11
REMARK    4  A    between atoms: N_11  and  C_12
REMARK    5  A    between atoms: C_17  and  N_18
REMARK    6  A    between atoms: C_19  and  C_20
REMARK                            x       y       z     vdW  Elec       q    Type
REMARK                         _______ _______ _______ _____ _____    ______ ____
ROOT
ATOM      1  C   UNL     1       2.453  -4.604   0.965  0.00  0.00    +0.073 A 
ATOM      2  C   UNL     1       1.966  -4.629   2.263  0.00  0.00    +0.026 A 
ATOM      3  C   UNL     1       2.790  -4.289   3.319  0.00  0.00    +0.002 A 
ATOM      4  C   UNL     1       4.105  -3.923   3.091  0.00  0.00    +0.002 A 
ATOM      5  C   UNL     1       4.607  -3.893   1.806  0.00  0.00    +0.029 A 
ATOM      6  C   UNL     1       3.787  -4.239   0.731  0.00  0.00    +0.086 A 
ENDROOT
BRANCH   1   7
ATOM      7  N   UNL     1       1.622  -4.947  -0.103  0.00  0.00    -0.214 N 
ATOM      8  H   UNL     1       1.986  -5.421  -0.868  0.00  0.00    +0.174 HD
BRANCH   7   9
ATOM      9  S   UNL     1       0.017  -4.544  -0.065  0.00  0.00    +0.072 S 
ATOM     10  O   UNL     1      -0.502  -5.057   1.154  0.00  0.00    -0.150 OA
ATOM     11  O   UNL     1      -0.521  -4.900  -1.331  0.00  0.00    -0.150 OA
BRANCH   9  16
ATOM     12  C   UNL     1      -0.309   1.468   0.317  0.00  0.00    +0.044 C 
ATOM     13  C   UNL     1      -0.228  -0.033   0.221  0.00  0.00    -0.050 A 
ATOM     14  C   UNL     1      -0.199  -0.647  -1.017  0.00  0.00    +0.005 A 
ATOM     15  C   UNL     1      -0.124  -2.024  -1.105  0.00  0.00    +0.029 A 
ATOM     16  C   UNL     1      -0.078  -2.788   0.046  0.00  0.00    +0.109 A 
ATOM     17  C   UNL     1      -0.106  -2.175   1.285  0.00  0.00    +0.029 A 
ATOM     18  C   UNL     1      -0.176  -0.797   1.372  0.00  0.00    +0.005 A 
ENDBRANCH   9  16
ENDBRANCH   7   9
ENDBRANCH   1   7
BRANCH   6  19
ATOM     19  N   UNL     1       4.281  -4.218  -0.545  0.00  0.00    -0.253 NA
ATOM     20  C   UNL     1       4.760  -5.310  -1.079  0.00  0.00    +0.121 C 
BRANCH  20  21
ATOM     21  C   UNL     1       4.900  -6.522  -0.266  0.00  0.00    +0.018 A 
ATOM     22  C   UNL     1       4.490  -6.692   1.024  0.00  0.00    +0.093 A 
ATOM     23  N   UNL     1       4.792  -7.950   1.438  0.00  0.00    -0.360 N 
ATOM     24  H   UNL     1       4.597  -8.304   2.320  0.00  0.00    +0.165 HD
ATOM     25  C   UNL     1       5.415  -8.652   0.427  0.00  0.00    +0.047 A 
ATOM     26  C   UNL     1       5.507  -7.800  -0.684  0.00  0.00    +0.008 A 
ATOM     27  C   UNL     1       6.093  -8.251  -1.864  0.00  0.00    +0.010 A 
ATOM     28  C   UNL     1       6.579  -9.538  -1.935  0.00  0.00    +0.001 A 
ATOM     29  C   UNL     1       6.485 -10.383  -0.839  0.00  0.00    +0.002 A 
ATOM     30  C   UNL     1       5.915  -9.947   0.337  0.00  0.00    +0.026 A 
ENDBRANCH  20  21
ENDBRANCH   6  19
TORSDOF 5
