REMARK  Name = ZINC18178660
REMARK  10 active torsions:
REMARK  status: ('A' for Active; 'I' for Inactive)
REMARK    1  A    between atoms: C_1  and  C_2
REMARK    2  A    between atoms: C_2  and  N_3
REMARK    3  A    between atoms: N_3  and  C_4
REMARK    4  A    between atoms: N_3  and  C_6
REMARK    5  A    between atoms: C_4  and  C_5
REMARK    6  A    between atoms: C_7  and  C_28
REMARK    7  A    between atoms: C_9  and  C_26
REMARK    8  A    between atoms: N_11  and  C_18
REMARK    9  A    between atoms: C_12  and  N_13
REMARK   10  A    between atoms: C_23  and  C_24
REMARK                            x       y       z     vdW  Elec       q    Type
REMARK                         _______ _______ _______ _____ _____    ______ ____
ROOT
ATOM      1  C   UNL     1       2.553   0.238   1.703  0.00  0.00    +0.142 A 
ATOM      2  C   UNL     1       3.155  -0.513   2.729  0.00  0.00    +0.101 A 
ATOM      3  C   UNL     1       4.507  -0.889   2.579  0.00  0.00    +0.029 A 
ATOM      4  C   UNL     1       5.197  -1.644   3.554  0.00  0.00    +0.092 A 
ATOM      5  C   UNL     1       6.548  -1.976   3.321  0.00  0.00    +0.111 A 
ATOM      6  N   UNL     1       7.170  -1.585   2.196  0.00  0.00    -0.290 N 
ATOM      7  C   UNL     1       6.537  -0.857   1.237  0.00  0.00    +0.113 A 
ATOM      8  C   UNL     1       5.194  -0.492   1.401  0.00  0.00    +0.062 A 
ATOM      9  C   UNL     1       4.501   0.262   0.430  0.00  0.00    +0.129 A 
ATOM     10  N   UNL     1       3.230   0.584   0.616  0.00  0.00    -0.216 NA
ATOM     11  N   UNL     1       5.147   0.658  -0.719  0.00  0.00    -0.343 N 
ATOM     12  S   UNL     1       7.406  -2.890   4.487  0.00  0.00    -0.031 S 
ATOM     13  H   UNL     1       5.767   0.056  -1.159  0.00  0.00    +0.144 HD
ATOM     14  H   UNL     1       4.982   1.539  -1.089  0.00  0.00    +0.144 HD
ENDROOT
BRANCH   6  15
ATOM     15  C   UNL     1       8.513  -1.936   2.006  0.00  0.00    +0.052 A 
ATOM     16  C   UNL     1       8.837  -3.123   1.363  0.00  0.00    +0.026 A 
ATOM     17  C   UNL     1      10.161  -3.467   1.177  0.00  0.00    +0.002 A 
ATOM     18  C   UNL     1      11.165  -2.630   1.630  0.00  0.00    +0.000 A 
ATOM     19  C   UNL     1      10.845  -1.447   2.272  0.00  0.00    +0.005 A 
ATOM     20  C   UNL     1       9.522  -1.095   2.455  0.00  0.00    -0.027 A 
ATOM     21  C   UNL     1       9.175   0.198   3.148  0.00  0.00    +0.046 C 
ENDBRANCH   6  15
BRANCH   7  22
ATOM     22  N   UNL     1       7.210  -0.483   0.114  0.00  0.00    -0.344 N 
ATOM     23  H   UNL     1       7.809  -1.108  -0.324  0.00  0.00    +0.144 HD
ATOM     24  H   UNL     1       7.092   0.409  -0.249  0.00  0.00    +0.144 HD
ENDBRANCH   7  22
BRANCH   4  25
ATOM     25  C   UNL     1       4.538  -2.063   4.754  0.00  0.00    +0.102 C 
ATOM     26  N   UNL     1       4.015  -2.396   5.707  0.00  0.00    -0.191 NA
ENDBRANCH   4  25
BRANCH   2  27
ATOM     27  C   UNL     1       2.414  -0.886   3.896  0.00  0.00    +0.103 C 
ATOM     28  N   UNL     1       1.826  -1.183   4.822  0.00  0.00    -0.191 NA
ENDBRANCH   2  27
BRANCH   1  29
ATOM     29  N   UNL     1       1.233   0.618   1.827  0.00  0.00    -0.315 N 
BRANCH  29  31
ATOM     30  C   UNL     1       0.749   1.850   3.883  0.00  0.00    +0.024 C 
ATOM     31  C   UNL     1       0.898   1.939   2.363  0.00  0.00    +0.103 C 
ENDBRANCH  29  31
BRANCH  29  32
ATOM     32  C   UNL     1       0.166  -0.301   1.423  0.00  0.00    +0.103 C 
ATOM     33  C   UNL     1      -0.255   0.007  -0.016  0.00  0.00    +0.024 C 
ENDBRANCH  29  32
ENDBRANCH   1  29
TORSDOF 7
