REMARK  Name = ZINC36554919
REMARK  15 active torsions:
REMARK  status: ('A' for Active; 'I' for Inactive)
REMARK    1  A    between atoms: C_1  and  C_2
REMARK    2  A    between atoms: C_2  and  C_3
REMARK    3  A    between atoms: N_5  and  C_6
REMARK    4  A    between atoms: N_5  and  C_13
REMARK    5  A    between atoms: C_13  and  C_15
REMARK    6  A    between atoms: C_13  and  C_25
REMARK    7  A    between atoms: C_17  and  N_22
REMARK    8  A    between atoms: N_27  and  C_28
REMARK    9  A    between atoms: C_28  and  C_29
REMARK   10  A    between atoms: C_28  and  C_30
REMARK   11  A    between atoms: C_28  and  C_31
REMARK   12  A    between atoms: C_31  and  C_32
REMARK   13  A    between atoms: C_32  and  C_33
REMARK   14  A    between atoms: C_32  and  C_34
REMARK   15  A    between atoms: C_32  and  C_35
REMARK                            x       y       z     vdW  Elec       q    Type
REMARK                         _______ _______ _______ _____ _____    ______ ____
ROOT
ATOM      1  C   UNL     1      -0.915  -2.813  -1.749  0.00  0.00    +0.199 C 
ENDROOT
BRANCH   1   2
ATOM      2  C   UNL     1      -0.223  -1.591  -1.201  0.00  0.00    +0.003 A 
ATOM      3  C   UNL     1       1.122  -1.390  -1.446  0.00  0.00    +0.040 A 
ATOM      4  C   UNL     1       1.757  -0.270  -0.943  0.00  0.00    +0.127 A 
ATOM      5  C   UNL     1       1.046   0.650  -0.195  0.00  0.00    +0.034 A 
ATOM      6  C   UNL     1      -0.299   0.451   0.051  0.00  0.00    +0.022 A 
ATOM      7  C   UNL     1      -0.936  -0.668  -0.457  0.00  0.00    +0.047 A 
ATOM      8 CL   UNL     1      -2.627  -0.916  -0.155  0.00  0.00    -0.083 Cl
BRANCH   4   9
ATOM      9  N   UNL     1       3.197  -0.056  -1.206  0.00  0.00    +0.056 N 
ATOM     10  O   UNL     1       3.789  -0.787  -1.965  0.00  0.00    -0.126 OA
ATOM     11  O   UNL     1       3.783   0.851  -0.661  0.00  0.00    -0.126 OA
ENDBRANCH   4   9
ENDBRANCH   1   2
BRANCH   1  12
ATOM     12  C   UNL     1       0.067  -3.629  -2.549  0.00  0.00    +0.239 C 
ATOM     13  O   UNL     1       0.082  -3.543  -3.759  0.00  0.00    -0.273 OA
ATOM     14  N   UNL     1       0.927  -4.455  -1.921  0.00  0.00    -0.308 N 
ATOM     15  H   UNL     1       0.961  -4.473  -0.952  0.00  0.00    +0.149 HD
BRANCH  14  16
ATOM     16  C   UNL     1       1.810  -5.324  -2.702  0.00  0.00    +0.030 C 
ATOM     17  C   UNL     1       0.986  -6.441  -3.347  0.00  0.00    +0.031 C 
ATOM     18  C   UNL     1       2.499  -4.503  -3.794  0.00  0.00    +0.031 C 
BRANCH  16  19
ATOM     19  C   UNL     1       2.867  -5.938  -1.781  0.00  0.00    +0.031 C 
BRANCH  19  20
ATOM     20  C   UNL     1       3.450  -4.849  -0.878  0.00  0.00    -0.036 C 
ATOM     21  C   UNL     1       2.444  -4.508   0.224  0.00  0.00    +0.010 C 
ATOM     22  C   UNL     1       4.749  -5.352  -0.245  0.00  0.00    +0.010 C 
ATOM     23  C   UNL     1       3.739  -3.597  -1.710  0.00  0.00    +0.010 C 
ENDBRANCH  19  20
ENDBRANCH  16  19
ENDBRANCH  14  16
ENDBRANCH   1  12
BRANCH   1  26
ATOM     24  C   UNL     1      -3.263  -2.886  -2.394  0.00  0.00    +0.220 C 
ATOM     25  O   UNL     1      -4.156  -2.642  -3.178  0.00  0.00    -0.275 OA
ATOM     26  N   UNL     1      -2.025  -2.400  -2.611  0.00  0.00    -0.255 N 
BRANCH  26  27
ATOM     27  C   UNL     1      -1.800  -1.502  -3.660  0.00  0.00    +0.039 A 
ATOM     28  C   UNL     1      -0.502  -1.136  -3.996  0.00  0.00    +0.023 A 
ATOM     29  C   UNL     1      -0.282  -0.249  -5.032  0.00  0.00    +0.003 A 
ATOM     30  C   UNL     1      -1.352   0.275  -5.734  0.00  0.00    +0.020 A 
ATOM     31  C   UNL     1      -2.646  -0.087  -5.402  0.00  0.00    +0.043 A 
ATOM     32  C   UNL     1      -2.872  -0.978  -4.370  0.00  0.00    +0.043 A 
ATOM     33 CL   UNL     1      -3.985   0.575  -6.286  0.00  0.00    -0.083 Cl
ENDBRANCH  26  27
BRANCH  24  35
ATOM     34  C   UNL     1      -5.034  -4.047  -1.104  0.00  0.00    +0.013 C 
ATOM     35  C   UNL     1      -3.538  -3.733  -1.179  0.00  0.00    +0.093 C 
ENDBRANCH  24  35
ENDBRANCH   1  26
TORSDOF 9
