REMARK  Name = ZINC13007781
REMARK  15 active torsions:
REMARK  status: ('A' for Active; 'I' for Inactive)
REMARK    1  A    between atoms: C_1  and  C_2
REMARK    2  A    between atoms: C_2  and  O_3
REMARK    3  A    between atoms: O_3  and  C_4
REMARK    4  A    between atoms: C_6  and  C_16
REMARK    5  A    between atoms: C_8  and  O_13
REMARK    6  A    between atoms: C_9  and  O_10
REMARK    7  A    between atoms: O_10  and  C_11
REMARK    8  A    between atoms: C_11  and  C_12
REMARK    9  A    between atoms: O_13  and  C_14
REMARK   10  A    between atoms: C_14  and  C_15
REMARK   11  A    between atoms: N_18  and  C_19
REMARK   12  A    between atoms: C_19  and  C_20
REMARK   13  A    between atoms: C_20  and  C_22
REMARK   14  A    between atoms: C_20  and  N_77
REMARK   15  A    between atoms: N_30  and  C_31
REMARK                            x       y       z     vdW  Elec       q    Type
REMARK                         _______ _______ _______ _____ _____    ______ ____
ROOT
ATOM      1  C   UNL     1      -0.194   6.617   3.322  0.00  0.00    +0.244 C 
ATOM      2  O   UNL     1      -0.961   6.593   2.380  0.00  0.00    -0.270 OA
ATOM      3  N   UNL     1       0.417   7.768   3.666  0.00  0.00    -0.313 N 
ATOM      4  H   UNL     1       1.029   7.787   4.418  0.00  0.00    +0.149 HD
ENDROOT
BRANCH   1   7
ATOM      5  C   UNL     1       1.195   4.255   5.894  0.00  0.00    +0.166 A 
ATOM      6  C   UNL     1       0.953   5.410   5.173  0.00  0.00    +0.062 A 
ATOM      7  C   UNL     1       0.070   5.384   4.091  0.00  0.00    +0.044 A 
ATOM      8  C   UNL     1      -0.561   4.190   3.736  0.00  0.00    +0.062 A 
ATOM      9  C   UNL     1      -0.312   3.037   4.457  0.00  0.00    +0.166 A 
ATOM     10  C   UNL     1       0.568   3.065   5.535  0.00  0.00    +0.204 A 
BRANCH   5  11
ATOM     11  O   UNL     1       2.049   4.281   6.952  0.00  0.00    -0.488 OA
BRANCH  11  13
ATOM     12  C   UNL     1       3.579   5.369   8.474  0.00  0.00    +0.048 C 
ATOM     13  C   UNL     1       2.657   5.536   7.264  0.00  0.00    +0.226 C 
ENDBRANCH  11  13
ENDBRANCH   5  11
BRANCH  10  14
ATOM     14  O   UNL     1       0.811   1.931   6.242  0.00  0.00    -0.485 OA
BRANCH  14  15
ATOM     15  C   UNL     1       1.893   1.109   5.799  0.00  0.00    +0.226 C 
ATOM     16  C   UNL     1       2.012  -0.113   6.712  0.00  0.00    +0.048 C 
ENDBRANCH  14  15
ENDBRANCH  10  14
BRANCH   9  17
ATOM     17  O   UNL     1      -0.927   1.874   4.112  0.00  0.00    -0.488 OA
BRANCH  17  18
ATOM     18  C   UNL     1      -1.817   1.917   2.995  0.00  0.00    +0.226 C 
ATOM     19  C   UNL     1      -2.409   0.526   2.761  0.00  0.00    +0.048 C 
ENDBRANCH  17  18
ENDBRANCH   9  17
ENDBRANCH   1   7
BRANCH   3  20
ATOM     20  C   UNL     1       0.155   8.992   2.903  0.00  0.00    +0.094 C 
BRANCH  20  21
ATOM     21  C   UNL     1       0.875  10.169   3.564  0.00  0.00    -0.020 C 
BRANCH  21  22
ATOM     22  C   UNL     1       0.686  11.407   2.727  0.00  0.00    -0.059 A 
ATOM     23  C   UNL     1       0.906  11.361   1.362  0.00  0.00    +0.004 A 
ATOM     24  C   UNL     1       0.736  12.492   0.592  0.00  0.00    +0.023 A 
ATOM     25  C   UNL     1       0.342  13.691   1.184  0.00  0.00    +0.033 A 
ATOM     26  C   UNL     1       0.120  13.726   2.555  0.00  0.00    -0.025 A 
ATOM     27  C   UNL     1       0.288  12.591   3.321  0.00  0.00    +0.007 A 
ATOM     28  C   UNL     1      -0.303  15.134   2.924  0.00  0.00    +0.056 C 
ATOM     29  C   UNL     1      -0.682  15.748   1.557  0.00  0.00    +0.109 C 
ATOM     30  N   UNL     1       0.124  14.949   0.609  0.00  0.00    -0.332 N 
ATOM     31  C   UNL     1      -0.557  14.824  -0.687  0.00  0.00    +0.129 C 
ENDBRANCH  21  22
BRANCH  21  37
ATOM     32  C   UNL     1       2.984  10.835   4.548  0.00  0.00    -0.078 C 
ATOM     33  C   UNL     1       4.438  10.406   4.757  0.00  0.00    -0.019 C 
ATOM     34  C   UNL     1       5.144  10.334   3.400  0.00  0.00    -0.004 C 
ATOM     35  C   UNL     1       4.392   9.355   2.494  0.00  0.00    -0.019 C 
ATOM     36  C   UNL     1       2.939   9.814   2.351  0.00  0.00    -0.078 C 
ATOM     37  N   UNL     1       2.309   9.839   3.688  0.00  0.00    +0.385 N 
ATOM     38  H   UNL     1       2.402   8.911   4.117  0.00  0.00    -0.081 HD
ENDBRANCH  21  37
ENDBRANCH  20  21
ENDBRANCH   3  20
TORSDOF 11
