REMARK  Name = ZINC17214841
REMARK  9 active torsions:
REMARK  status: ('A' for Active; 'I' for Inactive)
REMARK    1  A    between atoms: C_1  and  C_2
REMARK    2  A    between atoms: N_7  and  N_9
REMARK    3  A    between atoms: N_10  and  C_11
REMARK    4  A    between atoms: C_14  and  C_17
REMARK    5  A    between atoms: C_17  and  C_18
REMARK    6  A    between atoms: C_17  and  C_24
REMARK    7  A    between atoms: C_17  and  O_35
REMARK    8  A    between atoms: C_24  and  O_26
REMARK    9  A    between atoms: O_26  and  C_27
REMARK                            x       y       z     vdW  Elec       q    Type
REMARK                         _______ _______ _______ _____ _____    ______ ____
ROOT
ATOM      1  C   UNL     1       3.672   2.182  -0.023  0.00  0.00    +0.213 C 
ENDROOT
BRANCH   1   5
ATOM      2  C   UNL     1       3.185   5.760  -2.313  0.00  0.00    +0.088 A 
ATOM      3  C   UNL     1       4.160   5.693  -1.316  0.00  0.00    +0.030 A 
ATOM      4  C   UNL     1       4.312   4.536  -0.581  0.00  0.00    +0.009 A 
ATOM      5  C   UNL     1       3.500   3.443  -0.830  0.00  0.00    -0.001 A 
ATOM      6  C   UNL     1       2.536   3.501  -1.820  0.00  0.00    +0.009 A 
ATOM      7  C   UNL     1       2.370   4.655  -2.559  0.00  0.00    +0.030 A 
BRANCH   2   9
ATOM      8  N   UNL     1       2.127   6.968  -3.968  0.00  0.00    -0.079 NA
ATOM      9  N   UNL     1       3.029   6.909  -3.047  0.00  0.00    -0.134 NA
BRANCH   8  15
ATOM     10  C   UNL     1      -0.916   9.631  -6.668  0.00  0.00    +0.009 C 
ATOM     11  C   UNL     1       0.069   9.453  -5.511  0.00  0.00    +0.005 C 
ATOM     12  C   UNL     1       0.959  10.693  -5.401  0.00  0.00    +0.006 C 
ATOM     13  C   UNL     1       1.922  10.529  -4.223  0.00  0.00    +0.021 C 
ATOM     14  C   UNL     1       2.815   9.313  -4.463  0.00  0.00    +0.127 C 
ATOM     15  N   UNL     1       1.967   8.140  -4.718  0.00  0.00    -0.237 N 
ATOM     16  C   UNL     1       0.944   8.223  -5.769  0.00  0.00    +0.130 C 
ENDBRANCH   8  15
ENDBRANCH   2   9
ENDBRANCH   1   5
BRANCH   1  17
ATOM     17  C   UNL     1       3.864   1.012  -0.953  0.00  0.00    -0.001 A 
ATOM     18  C   UNL     1       2.788   0.508  -1.660  0.00  0.00    +0.007 A 
ATOM     19  C   UNL     1       2.964  -0.565  -2.514  0.00  0.00    +0.000 A 
ATOM     20  C   UNL     1       4.215  -1.135  -2.660  0.00  0.00    +0.000 A 
ATOM     21  C   UNL     1       5.290  -0.631  -1.952  0.00  0.00    +0.000 A 
ATOM     22  C   UNL     1       5.115   0.443  -1.099  0.00  0.00    +0.007 A 
ENDBRANCH   1  17
BRANCH   1  23
ATOM     23  C   UNL     1       2.445   1.956   0.823  0.00  0.00    +0.349 C 
ATOM     24  O   UNL     1       1.383   2.422   0.483  0.00  0.00    -0.247 OA
BRANCH  23  25
ATOM     25  O   UNL     1       2.532   1.236   1.952  0.00  0.00    -0.460 OA
BRANCH  25  26
ATOM     26  C   UNL     1       1.310   1.059   2.716  0.00  0.00    +0.163 C 
ATOM     27  C   UNL     1       1.177   2.189   3.741  0.00  0.00    -0.033 C 
ATOM     28  C   UNL     1      -0.025   0.740   5.265  0.00  0.00    -0.078 C 
ATOM     29  C   UNL     1       0.074  -0.431   4.284  0.00  0.00    -0.012 C 
ATOM     30  C   UNL     1       1.359  -0.281   3.461  0.00  0.00    +0.024 C 
ATOM     31  C   UNL     1       2.555  -0.263   4.422  0.00  0.00    -0.012 C 
ATOM     32  C   UNL     1       2.387   0.904   5.399  0.00  0.00    -0.078 C 
ATOM     33  N   UNL     1       1.138   1.641   5.114  0.00  0.00    +0.382 N 
ATOM     34  H   UNL     1       1.048   2.416   5.780  0.00  0.00    -0.082 HD
ENDBRANCH  25  26
ENDBRANCH  23  25
ENDBRANCH   1  23
BRANCH   1  35
ATOM     35  O   UNL     1       4.816   2.310   0.823  0.00  0.00    -0.370 OA
ATOM     36  H   UNL     1       4.762   3.045   1.450  0.00  0.00    +0.212 HD
ENDBRANCH   1  35
TORSDOF 8
