REMARK  Name = ZINC54647205
REMARK  14 active torsions:
REMARK  status: ('A' for Active; 'I' for Inactive)
REMARK    1  A    between atoms: C_1  and  C_2
REMARK    2  A    between atoms: C_2  and  C_3
REMARK    3  A    between atoms: C_6  and  C_9
REMARK    4  A    between atoms: C_12  and  N_18
REMARK    5  A    between atoms: C_13  and  C_14
REMARK    6  A    between atoms: C_14  and  O_16
REMARK    7  A    between atoms: O_16  and  C_17
REMARK    8  A    between atoms: C_19  and  C_21
REMARK    9  A    between atoms: C_21  and  C_22
REMARK   10  A    between atoms: C_22  and  C_23
REMARK   11  A    between atoms: C_23  and  N_24
REMARK   12  A    between atoms: C_31  and  C_37
REMARK   13  A    between atoms: C_34  and  C_35
REMARK   14  A    between atoms: C_34  and  C_36
REMARK                            x       y       z     vdW  Elec       q    Type
REMARK                         _______ _______ _______ _____ _____    ______ ____
ROOT
ATOM      1  N   UNL     1       3.369  -1.459   8.342  0.00  0.00    -0.279 N 
ATOM      2  C   UNL     1       4.142  -2.116   9.230  0.00  0.00    +0.218 C 
ATOM      3  O   UNL     1       4.821  -3.052   8.866  0.00  0.00    -0.275 OA
ATOM      4  H   UNL     1       2.826  -0.710   8.634  0.00  0.00    +0.155 HD
ENDROOT
BRANCH   1   8
ATOM      5  C   UNL     1       2.787  -1.911   4.667  0.00  0.00    +0.005 A 
ATOM      6  C   UNL     1       3.644  -2.963   4.621  0.00  0.00    +0.056 A 
ATOM      7  S   UNL     1       4.203  -3.110   6.303  0.00  0.00    -0.080 S 
ATOM      8  C   UNL     1       3.350  -1.853   7.014  0.00  0.00    +0.086 A 
ATOM      9  C   UNL     1       2.626  -1.295   5.973  0.00  0.00    +0.095 A 
BRANCH   5  13
ATOM     10  C   UNL     1       0.731  -0.503   1.223  0.00  0.00    -0.048 A 
ATOM     11  C   UNL     1       2.098  -0.709   1.173  0.00  0.00    +0.004 A 
ATOM     12  C   UNL     1       2.771  -1.165   2.288  0.00  0.00    +0.009 A 
ATOM     13  C   UNL     1       2.070  -1.420   3.466  0.00  0.00    -0.017 A 
ATOM     14  C   UNL     1       0.692  -1.211   3.510  0.00  0.00    +0.009 A 
ATOM     15  C   UNL     1       0.031  -0.749   2.391  0.00  0.00    +0.004 A 
BRANCH  10  17
ATOM     16  C   UNL     1      -0.019   1.526   0.010  0.00  0.00    +0.009 C 
ATOM     17  C   UNL     1       0.002  -0.004   0.002  0.00  0.00    +0.032 C 
ENDBRANCH  10  17
ENDBRANCH   5  13
BRANCH   9  18
ATOM     18  C   UNL     1       1.742  -0.148   6.179  0.00  0.00    +0.342 C 
ATOM     19  O   UNL     1       0.575  -0.325   6.474  0.00  0.00    -0.245 OA
BRANCH  18  20
ATOM     20  O   UNL     1       2.220   1.105   6.041  0.00  0.00    -0.464 OA
ATOM     21  C   UNL     1       1.300   2.178   6.257  0.00  0.00    +0.280 C 
ENDBRANCH  18  20
ENDBRANCH   9  18
ENDBRANCH   1   8
BRANCH   2  22
ATOM     22  C   UNL     1       4.163  -1.687  10.674  0.00  0.00    +0.097 C 
BRANCH  22  23
ATOM     23  C   UNL     1       5.114  -2.591  11.461  0.00  0.00    +0.029 C 
BRANCH  23  24
ATOM     24  C   UNL     1       5.135  -2.155  12.928  0.00  0.00    +0.117 C 
BRANCH  24  25
ATOM     25  N   UNL     1       6.045  -3.020  13.681  0.00  0.00    -0.241 N 
ATOM     26  C   UNL     1       5.560  -4.143  14.243  0.00  0.00    +0.225 C 
ATOM     27  O   UNL     1       4.380  -4.406  14.159  0.00  0.00    -0.275 OA
ATOM     28  C   UNL     1       6.500  -5.079  14.981  0.00  0.00    +0.082 C 
ATOM     29  C   UNL     1       6.827  -4.410  16.339  0.00  0.00    +0.014 C 
ATOM     30  C   UNL     1       7.985  -3.433  16.063  0.00  0.00    +0.017 C 
ATOM     31  C   UNL     1       8.300  -3.560  14.553  0.00  0.00    +0.051 C 
ATOM     32  C   UNL     1       7.340  -2.669  13.785  0.00  0.00    +0.228 C 
ATOM     33  O   UNL     1       7.731  -1.630  13.297  0.00  0.00    -0.275 OA
ATOM     34  C   UNL     1       7.847  -5.030  14.206  0.00  0.00    -0.010 C 
ATOM     35  C   UNL     1       8.839  -6.056  14.756  0.00  0.00    +0.012 C 
ATOM     36  C   UNL     1       7.628  -5.227  12.704  0.00  0.00    +0.012 C 
ATOM     37  C   UNL     1       9.765  -3.270  14.218  0.00  0.00    +0.021 C 
ENDBRANCH  24  25
ENDBRANCH  23  24
ENDBRANCH  22  23
ENDBRANCH   2  22
TORSDOF 9
