REMARK  Name = ZINC09790702
REMARK  12 active torsions:
REMARK  status: ('A' for Active; 'I' for Inactive)
REMARK    1  A    between atoms: C_1  and  C_2
REMARK    2  A    between atoms: C_2  and  C_4
REMARK    3  A    between atoms: C_2  and  N_63
REMARK    4  A    between atoms: C_7  and  S_16
REMARK    5  A    between atoms: N_8  and  C_9
REMARK    6  A    between atoms: S_16  and  C_17
REMARK    7  A    between atoms: C_17  and  C_19
REMARK    8  A    between atoms: C_17  and  C_20
REMARK    9  A    between atoms: N_22  and  C_23
REMARK   10  A    between atoms: C_28  and  C_29
REMARK   11  A    between atoms: C_35  and  N_63
REMARK   12  A    between atoms: C_36  and  N_63
REMARK                            x       y       z     vdW  Elec       q    Type
REMARK                         _______ _______ _______ _____ _____    ______ ____
ROOT
ATOM      1  S   UNL     1      -2.681  -2.783   0.925  0.00  0.00    -0.073 S 
ENDROOT
BRANCH   1   5
ATOM      2  C   UNL     1      -2.457  -6.640   1.481  0.00  0.00    +0.125 A 
ATOM      3  N   UNL     1      -1.289  -6.358   0.976  0.00  0.00    -0.135 NA
ATOM      4  N   UNL     1      -1.206  -5.100   0.728  0.00  0.00    -0.122 NA
ATOM      5  C   UNL     1      -2.324  -4.502   1.072  0.00  0.00    +0.197 A 
ATOM      6  N   UNL     1      -3.160  -5.467   1.561  0.00  0.00    -0.275 N 
BRANCH   6   7
ATOM      7  C   UNL     1      -4.466  -5.293   2.044  0.00  0.00    +0.050 A 
ATOM      8  C   UNL     1      -4.752  -5.543   3.379  0.00  0.00    +0.029 A 
ATOM      9  C   UNL     1      -6.037  -5.366   3.854  0.00  0.00    +0.040 A 
ATOM     10  C   UNL     1      -7.042  -4.949   2.996  0.00  0.00    +0.124 A 
ATOM     11  C   UNL     1      -6.759  -4.704   1.663  0.00  0.00    +0.040 A 
ATOM     12  C   UNL     1      -5.474  -4.876   1.186  0.00  0.00    +0.029 A 
ATOM     13  F   UNL     1      -8.299  -4.782   3.461  0.00  0.00    -0.205 F 
ENDBRANCH   6   7
BRANCH   2  15
ATOM     14  C   UNL     1      -3.284  -8.827   0.655  0.00  0.00    -0.005 C 
ATOM     15  C   UNL     1      -2.943  -8.004   1.899  0.00  0.00    -0.003 C 
BRANCH  15  18
ATOM     16  C   UNL     1      -2.372  -9.970   3.190  0.00  0.00    -0.096 C 
ATOM     17  C   UNL     1      -0.683  -8.869   1.850  0.00  0.00    -0.096 C 
ATOM     18  N   UNL     1      -1.885  -8.669   2.687  0.00  0.00    +0.382 N 
ATOM     19  H   UNL     1      -1.639  -8.073   3.486  0.00  0.00    -0.082 HD
ENDBRANCH  15  18
ENDBRANCH   2  15
ENDBRANCH   1   5
BRANCH   1  20
ATOM     20  C   UNL     1      -1.121  -2.197   0.216  0.00  0.00    +0.137 C 
ATOM     21  C   UNL     1      -0.935  -2.803  -1.177  0.00  0.00    +0.029 C 
BRANCH  20  22
ATOM     22  C   UNL     1      -1.150  -0.694   0.111  0.00  0.00    +0.230 C 
ATOM     23  O   UNL     1      -2.211  -0.106   0.124  0.00  0.00    -0.274 OA
ATOM     24  N   UNL     1       0.002  -0.004   0.002  0.00  0.00    -0.284 N 
ATOM     25  H   UNL     1       0.845  -0.477  -0.075  0.00  0.00    +0.155 HD
BRANCH  24  26
ATOM     26  C   UNL     1      -0.018   1.393  -0.000  0.00  0.00    +0.041 A 
ATOM     27  C   UNL     1      -1.073   2.074  -0.592  0.00  0.00    +0.024 A 
ATOM     28  C   UNL     1      -1.093   3.455  -0.589  0.00  0.00    +0.002 A 
ATOM     29  C   UNL     1      -0.059   4.168  -0.007  0.00  0.00    +0.001 A 
ATOM     30  C   UNL     1       1.000   3.504   0.580  0.00  0.00    +0.010 A 
ATOM     31  C   UNL     1       1.029   2.112   0.588  0.00  0.00    +0.003 A 
BRANCH  31  32
ATOM     32  C   UNL     1       2.163   1.394   1.218  0.00  0.00    -0.016 A 
ATOM     33  C   UNL     1       1.922   0.377   2.140  0.00  0.00    +0.008 A 
ATOM     34  C   UNL     1       2.982  -0.291   2.720  0.00  0.00    +0.001 A 
ATOM     35  C   UNL     1       4.281   0.055   2.395  0.00  0.00    +0.000 A 
ATOM     36  C   UNL     1       4.527   1.067   1.485  0.00  0.00    +0.001 A 
ATOM     37  C   UNL     1       3.475   1.738   0.895  0.00  0.00    +0.008 A 
ENDBRANCH  31  32
ENDBRANCH  24  26
ENDBRANCH  20  22
ENDBRANCH   1  20
TORSDOF 8
