REMARK  Name = ZINC43736754
REMARK  13 active torsions:
REMARK  status: ('A' for Active; 'I' for Inactive)
REMARK    1  A    between atoms: C_1  and  C_2
REMARK    2  A    between atoms: C_2  and  C_4
REMARK    3  A    between atoms: C_10  and  C_45
REMARK    4  A    between atoms: N_22  and  O_23
REMARK    5  A    between atoms: O_23  and  C_24
REMARK    6  A    between atoms: C_24  and  C_25
REMARK    7  A    between atoms: N_27  and  C_28
REMARK    8  A    between atoms: C_28  and  C_30
REMARK    9  A    between atoms: C_28  and  C_37
REMARK   10  A    between atoms: C_30  and  C_31
REMARK   11  A    between atoms: C_37  and  O_39
REMARK   12  A    between atoms: O_39  and  C_40
REMARK   13  A    between atoms: C_43  and  C_44
REMARK                            x       y       z     vdW  Elec       q    Type
REMARK                         _______ _______ _______ _____ _____    ______ ____
ROOT
ATOM      1  C   UNL     1      -1.293  -0.775   0.010  0.00  0.00    +0.061 C 
ATOM      2  C   UNL     1      -1.798  -0.992  -1.438  0.00  0.00    +0.012 C 
ATOM      3  C   UNL     1      -1.765  -2.524  -1.689  0.00  0.00    +0.005 C 
ATOM      4  C   UNL     1      -0.717  -3.014  -0.684  0.00  0.00    -0.001 C 
ATOM      5  C   UNL     1      -1.071  -2.174   0.576  0.00  0.00    -0.019 C 
ATOM      6  C   UNL     1       0.073  -2.332   1.559  0.00  0.00    +0.008 C 
ATOM      7  C   UNL     1       0.110  -3.810   1.982  0.00  0.00    +0.005 C 
ATOM      8  C   UNL     1       0.271  -4.734   0.779  0.00  0.00    +0.002 C 
ATOM      9  C   UNL     1      -0.801  -4.480  -0.302  0.00  0.00    -0.003 C 
ATOM     10  C   UNL     1      -0.549  -5.357  -1.529  0.00  0.00    +0.008 C 
ATOM     11  C   UNL     1      -0.660  -6.837  -1.147  0.00  0.00    +0.031 C 
ATOM     12  C   UNL     1       0.304  -7.090  -0.000  0.00  0.00    -0.062 C 
ATOM     13  C   UNL     1       1.193  -8.067  -0.116  0.00  0.00    +0.026 C 
ATOM     14  C   UNL     1       2.159  -8.287   0.978  0.00  0.00    +0.080 C 
ATOM     15  N   UNL     1       2.712  -9.441   1.184  0.00  0.00    -0.089 NA
ATOM     16  C   UNL     1       2.467  -7.081   1.846  0.00  0.00    +0.059 C 
ATOM     17  C   UNL     1       1.135  -6.513   2.334  0.00  0.00    +0.017 C 
ATOM     18  C   UNL     1       0.170  -6.190   1.234  0.00  0.00    -0.007 C 
ATOM     19  C   UNL     1      -1.241  -6.370   1.798  0.00  0.00    +0.016 C 
ATOM     20  C   UNL     1      -2.369  -2.694   1.198  0.00  0.00    +0.012 C 
ENDROOT
BRANCH   1  22
ATOM     21  C   UNL     1       0.386   0.837   1.192  0.00  0.00    +0.086 C 
ATOM     22  C   UNL     1       0.002  -0.004   0.002  0.00  0.00    +0.134 C 
ATOM     23  O   UNL     1       0.732  -0.060  -0.958  0.00  0.00    -0.297 OA
ENDBRANCH   1  22
BRANCH  15  24
ATOM     24  O   UNL     1       2.394 -10.538   0.347  0.00  0.00    -0.384 OA
BRANCH  24  25
ATOM     25  C   UNL     1       3.075 -11.746   0.689  0.00  0.00    +0.358 C 
BRANCH  25  26
ATOM     26  C   UNL     1       2.664 -12.841  -0.261  0.00  0.00    +0.254 C 
ATOM     27  O   UNL     1       1.865 -12.609  -1.144  0.00  0.00    -0.272 OA
ATOM     28  N   UNL     1       3.183 -14.078  -0.130  0.00  0.00    -0.299 N 
ATOM     29  H   UNL     1       3.821 -14.264   0.576  0.00  0.00    +0.150 HD
BRANCH  28  30
ATOM     30  C   UNL     1       2.783 -15.142  -1.054  0.00  0.00    +0.188 C 
BRANCH  30  31
ATOM     31  C   UNL     1       1.509 -15.781  -0.563  0.00  0.00    +0.328 C 
ATOM     32  O   UNL     1       0.989 -15.388   0.454  0.00  0.00    -0.249 OA
BRANCH  31  33
ATOM     33  O   UNL     1       0.953 -16.787  -1.256  0.00  0.00    -0.467 OA
ATOM     34  C   UNL     1      -0.254 -17.346  -0.732  0.00  0.00    +0.280 C 
ENDBRANCH  31  33
ENDBRANCH  30  31
BRANCH  30  35
ATOM     35  C   UNL     1       3.888 -16.198  -1.126  0.00  0.00    +0.090 C 
BRANCH  35  36
ATOM     36  C   UNL     1       5.126 -15.588  -1.732  0.00  0.00    +0.061 A 
ATOM     37  C   UNL     1       6.355 -15.581  -1.182  0.00  0.00    +0.107 A 
ATOM     38  N   UNL     1       7.178 -14.929  -2.060  0.00  0.00    -0.351 N 
ATOM     39  H   UNL     1       8.127 -14.763  -1.945  0.00  0.00    +0.166 HD
ATOM     40  C   UNL     1       6.423 -14.561  -3.117  0.00  0.00    +0.196 A 
ATOM     41  N   UNL     1       5.198 -14.963  -2.916  0.00  0.00    -0.241 NA
ENDBRANCH  35  36
ENDBRANCH  30  35
ENDBRANCH  28  30
ENDBRANCH  25  26
ENDBRANCH  24  25
ENDBRANCH  15  24
TORSDOF 9
