REMARK  Name = ZINC20562373
REMARK  11 active torsions:
REMARK  status: ('A' for Active; 'I' for Inactive)
REMARK    1  A    between atoms: C_1  and  C_2
REMARK    2  A    between atoms: C_2  and  N_3
REMARK    3  A    between atoms: N_3  and  C_4
REMARK    4  A    between atoms: C_4  and  C_5
REMARK    5  A    between atoms: C_6  and  C_8
REMARK    6  A    between atoms: C_8  and  C_9
REMARK    7  A    between atoms: C_9  and  C_10
REMARK    8  A    between atoms: C_12  and  C_15
REMARK    9  A    between atoms: C_15  and  N_16
REMARK   10  A    between atoms: N_19  and  S_22
REMARK   11  A    between atoms: S_22  and  C_25
REMARK                            x       y       z     vdW  Elec       q    Type
REMARK                         _______ _______ _______ _____ _____    ______ ____
ROOT
ATOM      1  N   UNL     1       4.286  -0.545  -4.406  0.00  0.00    +0.386 N 
ATOM      2  C   UNL     1       4.316   0.720  -3.659  0.00  0.00    -0.061 C 
ATOM      3  C   UNL     1       5.082   0.516  -2.348  0.00  0.00    +0.091 C 
ATOM      4  N   UNL     1       4.483  -0.617  -1.627  0.00  0.00    -0.180 NA
ATOM      5  C   UNL     1       4.299  -1.884  -2.352  0.00  0.00    +0.091 C 
ATOM      6  C   UNL     1       3.559  -1.584  -3.665  0.00  0.00    -0.061 C 
ATOM      7  H   UNL     1       5.325  -0.886  -4.528  0.00  0.00    -0.081 HD
ENDROOT
BRANCH   4   8
ATOM      8  S   UNL     1       4.034  -0.474  -0.040  0.00  0.00    +0.067 S 
ATOM      9  O   UNL     1       4.814   0.579   0.509  0.00  0.00    -0.152 OA
ATOM     10  O   UNL     1       4.036  -1.787   0.503  0.00  0.00    -0.152 OA
BRANCH   8  11
ATOM     11  C   UNL     1       2.360   0.076  -0.020  0.00  0.00    +0.144 A 
ATOM     12  C   UNL     1       1.220  -0.657  -0.013  0.00  0.00    +0.037 A 
ATOM     13  C   UNL     1       0.002  -0.004   0.002  0.00  0.00    +0.025 A 
ATOM     14  C   UNL     1      -0.016   1.352   0.009  0.00  0.00    +0.057 A 
ATOM     15  S   UNL     1       1.725   1.745  -0.005  0.00  0.00    -0.062 S 
ATOM     16 BR   UNL     1      -1.501   2.523   0.023  0.00  0.00    -0.043 Br
ENDBRANCH   8  11
ENDBRANCH   4   8
BRANCH   1  17
ATOM     17  C   UNL     1       3.712  -0.353  -5.744  0.00  0.00    +0.002 C 
BRANCH  17  20
ATOM     18  C   UNL     1       3.716  -3.483  -7.489  0.00  0.00    +0.228 A 
ATOM     19  N   UNL     1       4.338  -2.379  -7.152  0.00  0.00    -0.198 NA
ATOM     20  C   UNL     1       3.470  -1.695  -6.385  0.00  0.00    +0.156 A 
ATOM     21  N   UNL     1       2.383  -2.402  -6.302  0.00  0.00    -0.063 NA
ATOM     22  O   UNL     1       2.504  -3.434  -6.929  0.00  0.00    -0.338 OA
BRANCH  18  23
ATOM     23  C   UNL     1       4.263  -4.595  -8.348  0.00  0.00    +0.108 C 
BRANCH  23  24
ATOM     24  C   UNL     1       4.965  -5.626  -7.461  0.00  0.00    +0.105 C 
BRANCH  24  26
ATOM     25  N   UNL     1       6.175  -7.764  -7.752  0.00  0.00    -0.302 N 
ATOM     26  C   UNL     1       5.512  -6.737  -8.320  0.00  0.00    +0.216 C 
ATOM     27  O   UNL     1       5.356  -6.707  -9.522  0.00  0.00    -0.276 OA
BRANCH  25  29
ATOM     28  C   UNL     1       8.133  -8.498  -9.021  0.00  0.00    +0.024 C 
ATOM     29  C   UNL     1       6.707  -8.844  -8.587  0.00  0.00    +0.104 C 
ENDBRANCH  25  29
BRANCH  25  30
ATOM     30  C   UNL     1       6.364  -7.800  -6.300  0.00  0.00    +0.104 C 
ATOM     31  C   UNL     1       5.189  -8.534  -5.651  0.00  0.00    +0.024 C 
ENDBRANCH  25  30
ENDBRANCH  24  26
ENDBRANCH  23  24
ENDBRANCH  18  23
ENDBRANCH  17  20
ENDBRANCH   1  17
TORSDOF 9
