REMARK  Name = ZINC13096257
REMARK  12 active torsions:
REMARK  status: ('A' for Active; 'I' for Inactive)
REMARK    1  A    between atoms: C_1  and  C_2
REMARK    2  A    between atoms: C_2  and  O_3
REMARK    3  A    between atoms: O_3  and  C_4
REMARK    4  A    between atoms: C_4  and  C_6
REMARK    5  A    between atoms: C_7  and  C_29
REMARK    6  A    between atoms: C_10  and  N_11
REMARK    7  A    between atoms: C_12  and  C_14
REMARK    8  A    between atoms: C_14  and  S_15
REMARK    9  A    between atoms: S_15  and  C_16
REMARK   10  A    between atoms: C_19  and  C_22
REMARK   11  A    between atoms: N_20  and  C_21
REMARK   12  A    between atoms: C_26  and  C_28
REMARK                            x       y       z     vdW  Elec       q    Type
REMARK                         _______ _______ _______ _____ _____    ______ ____
ROOT
ATOM      1  N   UNL     1      -1.522   0.787  -2.644  0.00  0.00    -0.279 N 
ATOM      2  C   UNL     1      -2.298   1.388  -3.567  0.00  0.00    +0.228 C 
ATOM      3  O   UNL     1      -3.371   1.855  -3.248  0.00  0.00    -0.275 OA
ATOM      4  H   UNL     1      -0.664   0.415  -2.900  0.00  0.00    +0.155 HD
ENDROOT
BRANCH   1   9
ATOM      5  C   UNL     1      -1.296   0.127  -0.247  0.00  0.00    +0.098 A 
ATOM      6  C   UNL     1      -1.977   0.183   1.033  0.00  0.00    +0.040 A 
ATOM      7  C   UNL     1      -3.194   0.790   1.051  0.00  0.00    +0.059 A 
ATOM      8  S   UNL     1      -3.429   1.286  -0.643  0.00  0.00    -0.080 S 
ATOM      9  C   UNL     1      -1.950   0.702  -1.329  0.00  0.00    +0.086 A 
BRANCH   6  10
ATOM     10  C   UNL     1      -1.379  -0.390   2.256  0.00  0.00    +0.136 A 
ATOM     11  C   UNL     1      -1.247   0.243   3.452  0.00  0.00    +0.050 A 
ATOM     12  C   UNL     1      -0.630  -0.672   4.330  0.00  0.00    +0.042 A 
ATOM     13  C   UNL     1      -0.411  -1.802   3.631  0.00  0.00    +0.196 A 
ATOM     14  O   UNL     1      -0.865  -1.629   2.378  0.00  0.00    -0.463 OA
ENDBRANCH   6  10
BRANCH   5  15
ATOM     15  C   UNL     1       0.017  -0.500  -0.391  0.00  0.00    +0.342 C 
ATOM     16  O   UNL     1       0.100  -1.684  -0.656  0.00  0.00    -0.245 OA
BRANCH  15  17
ATOM     17  O   UNL     1       1.137   0.236  -0.234  0.00  0.00    -0.461 OA
BRANCH  17  19
ATOM     18  C   UNL     1       3.533   0.550  -0.181  0.00  0.00    +0.048 C 
ATOM     19  C   UNL     1       2.386  -0.440  -0.394  0.00  0.00    +0.229 C 
ENDBRANCH  17  19
ENDBRANCH  15  17
ENDBRANCH   5  15
ENDBRANCH   1   9
BRANCH   2  20
ATOM     20  C   UNL     1      -1.833   1.481  -4.998  0.00  0.00    +0.173 C 
BRANCH  20  21
ATOM     21  S   UNL     1      -3.085   2.336  -5.986  0.00  0.00    -0.077 S 
BRANCH  21  22
ATOM     22  C   UNL     1      -2.304   2.304  -7.565  0.00  0.00    +0.192 A 
ATOM     23  N   UNL     1      -1.129   1.784  -7.843  0.00  0.00    -0.122 NA
ATOM     24  N   UNL     1      -0.866   1.931  -9.092  0.00  0.00    -0.128 NA
ATOM     25  C   UNL     1      -1.852   2.562  -9.686  0.00  0.00    +0.165 A 
ATOM     26  N   UNL     1      -2.803   2.820  -8.726  0.00  0.00    -0.305 N 
ATOM     27  C   UNL     1      -4.084   3.506  -8.911  0.00  0.00    +0.153 C 
BRANCH  25  28
ATOM     28  C   UNL     1      -1.927   2.925 -11.117  0.00  0.00    +0.020 A 
ATOM     29  C   UNL     1      -2.788   3.941 -11.539  0.00  0.00    +0.011 A 
ATOM     30  C   UNL     1      -2.852   4.276 -12.875  0.00  0.00    +0.001 A 
ATOM     31  C   UNL     1      -2.065   3.608 -13.797  0.00  0.00    +0.003 A 
ATOM     32  C   UNL     1      -1.210   2.601 -13.387  0.00  0.00    -0.050 A 
ATOM     33  C   UNL     1      -1.133   2.260 -12.052  0.00  0.00    +0.015 A 
ATOM     34  C   UNL     1      -0.357   1.880 -14.398  0.00  0.00    +0.044 C 
ENDBRANCH  25  28
ENDBRANCH  21  22
ENDBRANCH  20  21
ENDBRANCH   2  20
TORSDOF 9
