REMARK  Name = ZINC14806183
REMARK  2 active torsions:
REMARK  status: ('A' for Active; 'I' for Inactive)
REMARK    1  A    between atoms: N_13  and  S_15
REMARK    2  A    between atoms: S_15  and  C_18
REMARK                            x       y       z     vdW  Elec       q    Type
REMARK                         _______ _______ _______ _____ _____    ______ ____
ROOT
ATOM      1  C   UNL     1       4.136   5.539   1.969  0.00  0.00    +0.001 A 
ATOM      2  C   UNL     1       3.493   6.380   2.863  0.00  0.00    +0.002 A 
ATOM      3  C   UNL     1       2.137   6.282   3.123  0.00  0.00    +0.026 A 
ATOM      4  C   UNL     1       1.433   5.292   2.441  0.00  0.00    +0.047 A 
ATOM      5  C   UNL     1       2.097   4.433   1.528  0.00  0.00    +0.004 A 
ATOM      6  C   UNL     1       3.469   4.555   1.284  0.00  0.00    +0.010 A 
ATOM      7  C   UNL     1       1.083   3.540   1.011  0.00  0.00    -0.003 A 
ATOM      8  C   UNL     1      -0.085   3.875   1.601  0.00  0.00    +0.023 A 
ATOM      9  N   UNL     1       0.118   4.927   2.458  0.00  0.00    -0.358 N 
ATOM     10  H   UNL     1      -0.571   5.348   2.996  0.00  0.00    +0.166 HD
ATOM     11  C   UNL     1      -1.398   3.177   1.339  0.00  0.00    +0.070 C 
ATOM     12  C   UNL     1      -1.292   2.391   0.021  0.00  0.00    +0.116 C 
ATOM     13  N   UNL     1      -0.020   1.652   0.011  0.00  0.00    -0.172 NA
ATOM     14  C   UNL     1       1.233   2.426   0.003  0.00  0.00    +0.147 C 
ENDROOT
BRANCH  13  15
ATOM     15  S   UNL     1       0.002  -0.004   0.002  0.00  0.00    +0.061 S 
ATOM     16  O   UNL     1      -1.243  -0.424  -0.539  0.00  0.00    -0.153 OA
ATOM     17  O   UNL     1       1.248  -0.390  -0.563  0.00  0.00    -0.153 OA
BRANCH  15  18
ATOM     18  C   UNL     1       0.025  -0.534   1.682  0.00  0.00    +0.106 A 
ATOM     19  C   UNL     1       1.232  -0.731   2.328  0.00  0.00    +0.030 A 
ATOM     20  C   UNL     1       1.250  -1.141   3.648  0.00  0.00    +0.022 A 
ATOM     21  C   UNL     1       0.061  -1.366   4.319  0.00  0.00    +0.041 A 
ATOM     22  C   UNL     1      -1.145  -1.174   3.671  0.00  0.00    +0.022 A 
ATOM     23  C   UNL     1      -1.163  -0.758   2.353  0.00  0.00    +0.030 A 
ATOM     24 CL   UNL     1       0.084  -1.887   5.975  0.00  0.00    -0.084 Cl
ENDBRANCH  15  18
ENDBRANCH  13  15
TORSDOF 2
