REMARK  Name = ZINC06550680
REMARK  8 active torsions:
REMARK  status: ('A' for Active; 'I' for Inactive)
REMARK    1  A    between atoms: C_1  and  C_2
REMARK    2  A    between atoms: C_5  and  N_8
REMARK    3  A    between atoms: C_9  and  C_11
REMARK    4  A    between atoms: C_11  and  C_12
REMARK    5  A    between atoms: N_14  and  O_15
REMARK    6  A    between atoms: O_15  and  C_16
REMARK    7  A    between atoms: N_18  and  C_19
REMARK    8  A    between atoms: C_23  and  C_25
REMARK                            x       y       z     vdW  Elec       q    Type
REMARK                         _______ _______ _______ _____ _____    ______ ____
ROOT
ATOM      1  C   UNL     1       0.367  -6.532   2.652  0.00  0.00    +0.118 C 
ATOM      2  N   UNL     1       1.543  -6.784   3.134  0.00  0.00    -0.386 N 
ATOM      3  N   UNL     1      -0.748  -6.884   3.354  0.00  0.00    -0.204 N 
ATOM      4  H   UNL     1       1.630  -7.224   3.994  0.00  0.00    +0.157 HD
ATOM      5  H   UNL     1      -1.628  -6.695   2.994  0.00  0.00    +0.209 HD
ATOM      6  H   UNL     1       2.336  -6.533   2.634  0.00  0.00    +0.157 HD
ENDROOT
BRANCH   1   7
ATOM      7  C   UNL     1       0.231  -5.848   1.316  0.00  0.00    +0.170 C 
BRANCH   7   9
ATOM      8  N   UNL     1       0.073  -3.534   0.455  0.00  0.00    -0.285 N 
ATOM      9  C   UNL     1       0.192  -4.355   1.517  0.00  0.00    +0.225 C 
ATOM     10  O   UNL     1       0.268  -3.892   2.636  0.00  0.00    -0.275 OA
ATOM     11  H   UNL     1      -0.061  -3.905  -0.432  0.00  0.00    +0.155 HD
BRANCH   8  16
ATOM     12  C   UNL     1       0.362   2.087   1.163  0.00  0.00    +0.044 C 
ATOM     13  C   UNL     1       0.285   0.594   0.975  0.00  0.00    -0.050 A 
ATOM     14  C   UNL     1       1.040  -0.243   1.777  0.00  0.00    +0.005 A 
ATOM     15  C   UNL     1       0.972  -1.611   1.607  0.00  0.00    +0.023 A 
ATOM     16  C   UNL     1       0.144  -2.148   0.630  0.00  0.00    +0.033 A 
ATOM     17  C   UNL     1      -0.613  -1.306  -0.174  0.00  0.00    +0.023 A 
ATOM     18  C   UNL     1      -0.544   0.062   0.005  0.00  0.00    +0.005 A 
ENDBRANCH   8  16
ENDBRANCH   7   9
ENDBRANCH   1   7
BRANCH   3  19
ATOM     19  O   UNL     1      -0.620  -7.527   4.610  0.00  0.00    -0.324 OA
BRANCH  19  20
ATOM     20  C   UNL     1      -1.793  -7.820   5.196  0.00  0.00    +0.429 C 
ATOM     21  O   UNL     1      -2.837  -7.532   4.643  0.00  0.00    -0.224 OA
ATOM     22  N   UNL     1      -1.812  -8.433   6.396  0.00  0.00    -0.249 N 
ATOM     23  H   UNL     1      -0.982  -8.594   6.871  0.00  0.00    +0.158 HD
BRANCH  22  24
ATOM     24  C   UNL     1      -3.029  -8.838   6.955  0.00  0.00    +0.037 A 
ATOM     25  C   UNL     1      -3.203  -8.815   8.333  0.00  0.00    +0.023 A 
ATOM     26  C   UNL     1      -4.406  -9.214   8.882  0.00  0.00    +0.002 A 
ATOM     27  C   UNL     1      -5.436  -9.637   8.062  0.00  0.00    +0.003 A 
ATOM     28  C   UNL     1      -5.265  -9.662   6.690  0.00  0.00    -0.049 A 
ATOM     29  C   UNL     1      -4.067  -9.258   6.134  0.00  0.00    +0.026 A 
ATOM     30  C   UNL     1      -6.390 -10.124   5.799  0.00  0.00    +0.044 C 
ENDBRANCH  22  24
ENDBRANCH  19  20
ENDBRANCH   3  19
TORSDOF 6
