REMARK  Name = ZINC29132423
REMARK  10 active torsions:
REMARK  status: ('A' for Active; 'I' for Inactive)
REMARK    1  A    between atoms: C_1  and  C_2
REMARK    2  A    between atoms: C_2  and  C_3
REMARK    3  A    between atoms: C_2  and  N_4
REMARK    4  A    between atoms: N_4  and  C_5
REMARK    5  A    between atoms: C_5  and  C_6
REMARK    6  A    between atoms: C_6  and  C_7
REMARK    7  A    between atoms: C_7  and  S_8
REMARK    8  A    between atoms: S_8  and  C_11
REMARK    9  A    between atoms: C_22  and  C_24
REMARK   10  A    between atoms: N_27  and  C_30
REMARK                            x       y       z     vdW  Elec       q    Type
REMARK                         _______ _______ _______ _____ _____    ______ ____
ROOT
ATOM      1  N   UNL     1      -1.276   2.118  -5.074  0.00  0.00    -0.299 N 
ATOM      2  C   UNL     1      -0.332   2.826  -5.726  0.00  0.00    +0.219 C 
ATOM      3  O   UNL     1       0.315   3.663  -5.134  0.00  0.00    -0.275 OA
ENDROOT
BRANCH   2   4
ATOM      4  C   UNL     1      -0.082   2.577  -7.191  0.00  0.00    +0.078 C 
ATOM      5  C   UNL     1       0.673   1.256  -7.365  0.00  0.00    +0.031 C 
ATOM      6  C   UNL     1       0.979   1.040  -8.849  0.00  0.00    +0.106 C 
ATOM      7  N   UNL     1       1.788   2.158  -9.352  0.00  0.00    -0.330 N 
ATOM      8  C   UNL     1       1.064   3.430  -9.239  0.00  0.00    +0.106 C 
ATOM      9  C   UNL     1       0.761   3.719  -7.767  0.00  0.00    +0.031 C 
BRANCH   7  10
ATOM     10  C   UNL     1       2.194   1.929 -10.663  0.00  0.00    +0.032 A 
ATOM     11  C   UNL     1       1.899   2.845 -11.674  0.00  0.00    +0.040 A 
ATOM     12  C   UNL     1       2.324   2.583 -12.959  0.00  0.00    +0.084 A 
ATOM     13  N   UNL     1       2.991   1.480 -13.240  0.00  0.00    -0.367 N 
ATOM     14  C   UNL     1       3.285   0.587 -12.313  0.00  0.00    +0.084 A 
ATOM     15  C   UNL     1       2.901   0.776 -11.003  0.00  0.00    +0.040 A 
ATOM     16  H   UNL     1       3.319   1.283 -14.271  0.00  0.00    +0.165 HD
ENDBRANCH   7  10
ENDBRANCH   2   4
BRANCH   1  18
ATOM     17  C   UNL     1      -1.835  -0.259  -4.930  0.00  0.00    +0.028 C 
ATOM     18  C   UNL     1      -1.970   1.022  -5.755  0.00  0.00    +0.070 C 
ATOM     19  C   UNL     1      -3.451   1.375  -5.910  0.00  0.00    +0.028 C 
ENDBRANCH   1  18
BRANCH   1  20
ATOM     20  C   UNL     1      -1.607   2.443  -3.685  0.00  0.00    +0.109 C 
BRANCH  20  21
ATOM     21  C   UNL     1      -0.713   1.633  -2.744  0.00  0.00    +0.042 C 
BRANCH  21  22
ATOM     22  C   UNL     1      -1.058   1.973  -1.293  0.00  0.00    +0.173 C 
BRANCH  22  23
ATOM     23  S   UNL     1       0.002   1.012  -0.178  0.00  0.00    -0.003 S 
ATOM     24  O   UNL     1      -0.324  -0.368  -0.262  0.00  0.00    -0.169 OA
ATOM     25  O   UNL     1       1.350   1.447  -0.289  0.00  0.00    -0.169 OA
BRANCH  23  26
ATOM     26  C   UNL     1      -0.493   1.493   1.443  0.00  0.00    +0.089 A 
ATOM     27  C   UNL     1       0.140   2.569   2.064  0.00  0.00    +0.027 A 
ATOM     28  C   UNL     1      -0.223   2.969   3.313  0.00  0.00    +0.010 A 
ATOM     29  C   UNL     1      -1.242   2.283   3.995  0.00  0.00    -0.016 A 
ATOM     30  C   UNL     1      -1.639   2.664   5.288  0.00  0.00    +0.028 A 
ATOM     31  C   UNL     1      -2.631   1.975   5.918  0.00  0.00    +0.042 A 
ATOM     32  C   UNL     1      -3.261   0.896   5.299  0.00  0.00    +0.020 A 
ATOM     33  C   UNL     1      -2.902   0.499   4.048  0.00  0.00    +0.010 A 
ATOM     34  C   UNL     1      -1.882   1.186   3.366  0.00  0.00    -0.016 A 
ATOM     35  C   UNL     1      -1.485   0.805   2.073  0.00  0.00    +0.035 A 
ATOM     36 CL   UNL     1      -3.119   2.448   7.516  0.00  0.00    -0.084 Cl
ENDBRANCH  23  26
ENDBRANCH  22  23
ENDBRANCH  21  22
ENDBRANCH  20  21
ENDBRANCH   1  20
TORSDOF 8
