REMARK  Name = ZINC35958155
REMARK  19 active torsions:
REMARK  status: ('A' for Active; 'I' for Inactive)
REMARK    1  A    between atoms: C_1  and  C_2
REMARK    2  A    between atoms: C_2  and  C_3
REMARK    3  A    between atoms: C_3  and  S_4
REMARK    4  A    between atoms: S_4  and  N_7
REMARK    5  A    between atoms: N_7  and  C_8
REMARK    6  A    between atoms: N_7  and  C_13
REMARK    7  A    between atoms: C_8  and  C_9
REMARK    8  A    between atoms: C_9  and  C_10
REMARK    9  A    between atoms: C_10  and  C_11
REMARK   10  A    between atoms: C_10  and  C_12
REMARK   11  A    between atoms: C_13  and  C_14
REMARK   12  A    between atoms: N_16  and  C_17
REMARK   13  A    between atoms: N_16  and  C_25
REMARK   14  A    between atoms: C_17  and  C_18
REMARK   15  A    between atoms: C_23  and  C_24
REMARK   16  A    between atoms: N_28  and  S_31
REMARK   17  A    between atoms: S_31  and  C_34
REMARK   18  A    between atoms: C_34  and  C_35
REMARK   19  A    between atoms: C_34  and  C_36
REMARK                            x       y       z     vdW  Elec       q    Type
REMARK                         _______ _______ _______ _____ _____    ______ ____
ROOT
ATOM      1  C   UNL     1      -4.851  -1.399   1.356  0.00  0.00    +0.232 C 
ATOM      2  O   UNL     1      -4.874  -0.338   0.768  0.00  0.00    -0.274 OA
ATOM      3  N   UNL     1      -5.603  -1.572   2.462  0.00  0.00    -0.293 N 
ENDROOT
BRANCH   3   4
ATOM      4  C   UNL     1      -6.446  -0.480   2.953  0.00  0.00    +0.079 C 
ATOM      5  C   UNL     1      -7.471  -0.104   1.880  0.00  0.00    +0.039 C 
ATOM      6  C   UNL     1      -8.373   1.014   2.411  0.00  0.00    +0.111 C 
ATOM      7  N   UNL     1      -7.529   2.131   2.856  0.00  0.00    -0.181 NA
ATOM      8  C   UNL     1      -6.453   1.863   3.820  0.00  0.00    +0.111 C 
ATOM      9  C   UNL     1      -5.572   0.735   3.273  0.00  0.00    +0.039 C 
BRANCH   7  10
ATOM     10  S   UNL     1      -7.786   3.663   2.283  0.00  0.00    +0.034 S 
ATOM     11  O   UNL     1      -6.523   4.307   2.390  0.00  0.00    -0.158 OA
ATOM     12  O   UNL     1      -8.398   3.478   1.014  0.00  0.00    -0.158 OA
BRANCH  10  13
ATOM     13  C   UNL     1      -8.966   4.404   3.444  0.00  0.00    +0.142 C 
ATOM     14  C   UNL     1      -8.358   4.420   4.848  0.00  0.00    +0.033 C 
ATOM     15  C   UNL     1      -9.279   5.837   3.008  0.00  0.00    +0.033 C 
ENDBRANCH  10  13
ENDBRANCH   7  10
ENDBRANCH   3   4
BRANCH   1  16
ATOM     16  C   UNL     1      -3.984  -2.522   0.851  0.00  0.00    +0.204 C 
BRANCH  16  17
ATOM     17  N   UNL     1      -3.273  -2.086  -0.354  0.00  0.00    -0.172 NA
BRANCH  17  18
ATOM     18  S   UNL     1      -1.736  -1.481  -0.235  0.00  0.00    +0.032 S 
ATOM     19  O   UNL     1      -1.145  -1.741  -1.501  0.00  0.00    -0.158 OA
ATOM     20  O   UNL     1      -1.206  -2.068   0.946  0.00  0.00    -0.158 OA
BRANCH  18  21
ATOM     21  C   UNL     1      -1.955   0.304  -0.001  0.00  0.00    +0.185 C 
BRANCH  21  23
ATOM     22  C   UNL     1      -0.777   2.504   0.127  0.00  0.00    +0.005 C 
ATOM     23  C   UNL     1      -0.593   0.998  -0.070  0.00  0.00    +0.021 C 
ENDBRANCH  21  23
ENDBRANCH  18  21
ENDBRANCH  17  18
BRANCH  17  24
ATOM     24  C   UNL     1      -3.922  -2.186  -1.663  0.00  0.00    +0.110 C 
BRANCH  24  25
ATOM     25  C   UNL     1      -3.716  -3.592  -2.229  0.00  0.00    +0.020 C 
BRANCH  25  26
ATOM     26  C   UNL     1      -4.394  -3.696  -3.597  0.00  0.00    -0.016 C 
ATOM     27  C   UNL     1      -3.697  -2.757  -4.584  0.00  0.00    +0.007 C 
ATOM     28  C   UNL     1      -4.296  -5.135  -4.107  0.00  0.00    +0.007 C 
ENDBRANCH  25  26
ENDBRANCH  24  25
ENDBRANCH  17  24
ENDBRANCH  16  17
ENDBRANCH   1  16
BRANCH   3  29
ATOM     29  C   UNL     1      -5.576  -2.853   3.172  0.00  0.00    +0.143 C 
BRANCH  29  30
ATOM     30  C   UNL     1      -4.419  -2.868   4.138  0.00  0.00    -0.027 A 
ATOM     31  C   UNL     1      -3.516  -1.821   4.151  0.00  0.00    +0.005 A 
ATOM     32  C   UNL     1      -2.455  -1.834   5.037  0.00  0.00    +0.000 A 
ATOM     33  C   UNL     1      -2.297  -2.894   5.911  0.00  0.00    +0.000 A 
ATOM     34  C   UNL     1      -3.201  -3.941   5.898  0.00  0.00    +0.003 A 
ATOM     35  C   UNL     1      -4.264  -3.925   5.015  0.00  0.00    -0.046 A 
ATOM     36  C   UNL     1      -5.252  -5.063   5.004  0.00  0.00    +0.044 C 
ENDBRANCH  29  30
ENDBRANCH   3  29
TORSDOF 13
