REMARK  Name = ZINC36806304
REMARK  16 active torsions:
REMARK  status: ('A' for Active; 'I' for Inactive)
REMARK    1  A    between atoms: C_1  and  C_2
REMARK    2  A    between atoms: C_2  and  C_4
REMARK    3  A    between atoms: C_2  and  S_14
REMARK    4  A    between atoms: N_6  and  C_7
REMARK    5  A    between atoms: C_7  and  C_8
REMARK    6  A    between atoms: C_7  and  C_9
REMARK    7  A    between atoms: C_7  and  C_11
REMARK    8  A    between atoms: C_11  and  C_12
REMARK    9  A    between atoms: C_11  and  C_13
REMARK   10  A    between atoms: S_14  and  C_15
REMARK   11  A    between atoms: N_28  and  C_29
REMARK   12  A    between atoms: C_29  and  C_30
REMARK   13  A    between atoms: C_30  and  C_31
REMARK   14  A    between atoms: C_31  and  N_32
REMARK   15  A    between atoms: N_32  and  C_33
REMARK   16  A    between atoms: N_32  and  C_34
REMARK                            x       y       z     vdW  Elec       q    Type
REMARK                         _______ _______ _______ _____ _____    ______ ____
ROOT
ATOM      1  C   UNL     1      -0.136  -0.087   2.816  0.00  0.00    +0.173 A 
ATOM      2  N   UNL     1      -1.249   0.575   2.572  0.00  0.00    -0.216 NA
ATOM      3  C   UNL     1      -2.032   0.977   3.566  0.00  0.00    +0.117 A 
ATOM      4  C   UNL     1      -1.722   0.722   4.912  0.00  0.00    +0.076 A 
ATOM      5  C   UNL     1      -2.681   1.228   5.896  0.00  0.00    -0.023 A 
ATOM      6  C   UNL     1      -3.759   1.883   5.419  0.00  0.00    -0.004 A 
ATOM      7  S   UNL     1      -3.566   1.865   3.657  0.00  0.00    -0.073 S 
ATOM      8  C   UNL     1      -4.875   2.490   6.212  0.00  0.00    +0.043 C 
ATOM      9  C   UNL     1      -4.808   1.940   7.644  0.00  0.00    +0.005 C 
ATOM     10  C   UNL     1      -3.364   2.041   8.142  0.00  0.00    +0.005 C 
ATOM     11  C   UNL     1      -2.486   1.035   7.397  0.00  0.00    +0.037 C 
ATOM     12  C   UNL     1      -0.508   0.002   5.146  0.00  0.00    +0.263 A 
ATOM     13  O   UNL     1      -0.157  -0.265   6.283  0.00  0.00    -0.267 OA
ATOM     14  N   UNL     1       0.239  -0.381   4.095  0.00  0.00    -0.287 N 
ENDROOT
BRANCH   1  15
ATOM     15  S   UNL     1       0.879  -0.605   1.472  0.00  0.00    -0.075 S 
BRANCH  15  17
ATOM     16  C   UNL     1      -0.019   1.526   0.010  0.00  0.00    +0.029 C 
ATOM     17  C   UNL     1       0.002  -0.004   0.002  0.00  0.00    +0.137 C 
BRANCH  17  18
ATOM     18  C   UNL     1       0.707  -0.490  -1.238  0.00  0.00    +0.227 C 
ATOM     19  O   UNL     1       1.864  -0.849  -1.176  0.00  0.00    -0.275 OA
ATOM     20  N   UNL     1       0.053  -0.526  -2.415  0.00  0.00    -0.296 N 
ATOM     21  H   UNL     1      -0.873  -0.239  -2.465  0.00  0.00    +0.150 HD
BRANCH  20  22
ATOM     22  C   UNL     1       0.738  -0.999  -3.621  0.00  0.00    +0.121 C 
ATOM     23  C   UNL     1       1.951  -0.109  -3.899  0.00  0.00    +0.048 C 
BRANCH  22  24
ATOM     24  C   UNL     1      -0.222  -0.939  -4.810  0.00  0.00    +0.020 C 
ATOM     25  C   UNL     1      -0.588   0.519  -5.098  0.00  0.00    +0.010 C 
ATOM     26  C   UNL     1       0.453  -1.548  -6.041  0.00  0.00    +0.010 C 
ENDBRANCH  22  24
BRANCH  22  27
ATOM     27  C   UNL     1       1.184  -2.387  -3.419  0.00  0.00    +0.088 C 
ATOM     28  N   UNL     1       1.528  -3.458  -3.264  0.00  0.00    -0.194 NA
ENDBRANCH  22  27
ENDBRANCH  20  22
ENDBRANCH  17  18
ENDBRANCH  15  17
ENDBRANCH   1  15
BRANCH  14  29
ATOM     29  C   UNL     1       1.480  -1.124   4.327  0.00  0.00    +0.125 C 
BRANCH  29  30
ATOM     30  C   UNL     1       2.642  -0.141   4.480  0.00  0.00    +0.003 C 
BRANCH  30  31
ATOM     31  C   UNL     1       3.938  -0.916   4.723  0.00  0.00    -0.078 C 
BRANCH  31  32
ATOM     32  N   UNL     1       5.054   0.028   4.870  0.00  0.00    +0.376 N 
ATOM     33  C   UNL     1       4.854   0.838   6.079  0.00  0.00    -0.097 C 
ATOM     34  C   UNL     1       6.315  -0.718   4.983  0.00  0.00    -0.097 C 
ATOM     35  H   UNL     1       5.092   0.632   4.062  0.00  0.00    -0.083 HD
ENDBRANCH  31  32
ENDBRANCH  30  31
ENDBRANCH  29  30
ENDBRANCH  14  29
TORSDOF 10
