REMARK  Name = ZINC22795399
REMARK  8 active torsions:
REMARK  status: ('A' for Active; 'I' for Inactive)
REMARK    1  A    between atoms: C_1  and  C_2
REMARK    2  A    between atoms: C_5  and  C_8
REMARK    3  A    between atoms: C_8  and  C_10
REMARK    4  A    between atoms: C_8  and  N_24
REMARK    5  A    between atoms: C_11  and  O_23
REMARK    6  A    between atoms: C_16  and  C_18
REMARK    7  A    between atoms: N_27  and  C_30
REMARK    8  A    between atoms: C_30  and  C_31
REMARK                            x       y       z     vdW  Elec       q    Type
REMARK                         _______ _______ _______ _____ _____    ______ ____
ROOT
ATOM      1  C   UNL     1       0.059  -4.275  -0.021  0.00  0.00    +0.129 C 
ENDROOT
BRANCH   1   2
ATOM      2  C   UNL     1      -1.332  -4.797   0.230  0.00  0.00    +0.076 A 
ATOM      3  C   UNL     1      -2.128  -5.503  -0.582  0.00  0.00    +0.228 A 
ATOM      4  N   UNL     1      -3.379  -5.894  -0.170  0.00  0.00    -0.173 N 
ATOM      5  C   UNL     1      -3.762  -5.530   1.092  0.00  0.00    +0.200 A 
ATOM      6  S   UNL     1      -2.346  -4.642   1.693  0.00  0.00    -0.047 S 
ATOM      7  N   UNL     1      -4.965  -5.973   1.331  0.00  0.00    -0.197 NA
ATOM      8  C   UNL     1      -5.415  -6.635   0.256  0.00  0.00    +0.218 A 
ATOM      9  N   UNL     1      -4.491  -6.614  -0.680  0.00  0.00    -0.138 NA
BRANCH   8  10
ATOM     10  C   UNL     1      -6.738  -7.283   0.140  0.00  0.00    +0.173 A 
ATOM     11  C   UNL     1      -7.702  -7.305   1.099  0.00  0.00    +0.053 A 
ATOM     12  C   UNL     1      -8.789  -8.027   0.565  0.00  0.00    +0.042 A 
ATOM     13  C   UNL     1      -8.438  -8.405  -0.680  0.00  0.00    +0.196 A 
ATOM     14  O   UNL     1      -7.200  -7.950  -0.935  0.00  0.00    -0.460 OA
ENDBRANCH   8  10
BRANCH   3  15
ATOM     15  O   UNL     1      -1.694  -5.836  -1.827  0.00  0.00    -0.492 OA
ATOM     16  H   UNL     1      -2.334  -6.345  -2.343  0.00  0.00    +0.294 HD
ENDBRANCH   3  15
ENDBRANCH   1   2
BRANCH   1  21
ATOM     17  C   UNL     1      -0.018   1.503   0.010  0.00  0.00    +0.044 C 
ATOM     18  C   UNL     1       0.002  -0.004   0.002  0.00  0.00    -0.050 A 
ATOM     19  C   UNL     1       0.006  -0.689  -1.199  0.00  0.00    +0.004 A 
ATOM     20  C   UNL     1       0.025  -2.071  -1.206  0.00  0.00    +0.006 A 
ATOM     21  C   UNL     1       0.040  -2.768  -0.013  0.00  0.00    -0.025 A 
ATOM     22  C   UNL     1       0.037  -2.084   1.188  0.00  0.00    +0.006 A 
ATOM     23  C   UNL     1       0.023  -0.702   1.195  0.00  0.00    +0.004 A 
ENDBRANCH   1  21
BRANCH   1  24
ATOM     24  N   UNL     1       0.962  -4.759   1.032  0.00  0.00    -0.295 NA
ATOM     25  C   UNL     1       2.311  -4.199   0.868  0.00  0.00    +0.067 C 
ATOM     26  C   UNL     1       3.202  -4.678   2.016  0.00  0.00    -0.063 C 
ATOM     27  N   UNL     1       3.259  -6.146   2.011  0.00  0.00    +0.384 N 
ATOM     28  C   UNL     1       1.908  -6.691   2.200  0.00  0.00    -0.063 C 
ATOM     29  C   UNL     1       1.006  -6.228   1.054  0.00  0.00    +0.067 C 
ATOM     30  H   UNL     1       3.630  -6.465   1.129  0.00  0.00    -0.081 HD
BRANCH  27  31
ATOM     31  C   UNL     1       4.129  -6.606   3.102  0.00  0.00    -0.043 C 
BRANCH  31  32
ATOM     32  C   UNL     1       4.286  -8.102   3.022  0.00  0.00    -0.064 A 
ATOM     33  C   UNL     1       3.397  -8.927   3.687  0.00  0.00    +0.002 A 
ATOM     34  C   UNL     1       3.542 -10.300   3.614  0.00  0.00    +0.000 A 
ATOM     35  C   UNL     1       4.574 -10.848   2.876  0.00  0.00    +0.000 A 
ATOM     36  C   UNL     1       5.463 -10.024   2.211  0.00  0.00    +0.000 A 
ATOM     37  C   UNL     1       5.316  -8.651   2.281  0.00  0.00    +0.002 A 
ENDBRANCH  31  32
ENDBRANCH  27  31
ENDBRANCH   1  24
TORSDOF 7
