REMARK  Name = ZINC13567653
REMARK  7 active torsions:
REMARK  status: ('A' for Active; 'I' for Inactive)
REMARK    1  A    between atoms: C_1  and  C_2
REMARK    2  A    between atoms: C_2  and  C_35
REMARK    3  A    between atoms: N_16  and  C_19
REMARK    4  A    between atoms: C_19  and  C_20
REMARK    5  A    between atoms: C_22  and  C_33
REMARK    6  A    between atoms: C_23  and  N_32
REMARK    7  A    between atoms: N_24  and  C_25
REMARK                            x       y       z     vdW  Elec       q    Type
REMARK                         _______ _______ _______ _____ _____    ______ ____
ROOT
ATOM      1  C   UNL     1      -5.477  -0.393   2.835  0.00  0.00    +0.011 C 
ATOM      2  C   UNL     1      -4.134  -0.772   3.462  0.00  0.00    -0.023 C 
ATOM      3  C   UNL     1      -3.326  -1.617   2.475  0.00  0.00    +0.058 C 
ATOM      4  C   UNL     1      -3.053  -0.816   1.226  0.00  0.00    +0.026 C 
ATOM      5  C   UNL     1      -2.913   0.527   1.278  0.00  0.00    +0.037 C 
ATOM      6  C   UNL     1      -3.037   1.221   2.494  0.00  0.00    +0.163 C 
ATOM      7  O   UNL     1      -2.897   2.428   2.508  0.00  0.00    -0.292 OA
ATOM      8  C   UNL     1      -3.338   0.498   3.779  0.00  0.00    +0.086 C 
ATOM      9  C   UNL     1      -2.623   1.320   0.031  0.00  0.00    +0.141 C 
ATOM     10  C   UNL     1      -1.197   1.780   0.017  0.00  0.00    -0.001 A 
ATOM     11  C   UNL     1      -0.013   1.076   0.008  0.00  0.00    +0.007 A 
ATOM     12  C   UNL     1       1.163   1.819   0.001  0.00  0.00    +0.000 A 
ATOM     13  C   UNL     1       1.141   3.199   0.009  0.00  0.00    +0.002 A 
ATOM     14  C   UNL     1      -0.047   3.914   0.026  0.00  0.00    +0.024 A 
ATOM     15  C   UNL     1      -1.234   3.179   0.032  0.00  0.00    +0.042 A 
ATOM     16  N   UNL     1      -2.543   3.626   0.048  0.00  0.00    -0.258 N 
ATOM     17  C   UNL     1      -3.426   2.606   0.049  0.00  0.00    +0.241 C 
ATOM     18  O   UNL     1      -4.635   2.699   0.062  0.00  0.00    -0.273 OA
ATOM     19  C   UNL     1      -2.939   0.537  -1.207  0.00  0.00    +0.089 C 
ATOM     20  C   UNL     1      -3.083  -0.814  -1.161  0.00  0.00    +0.108 C 
ATOM     21  N   UNL     1      -2.944  -1.482   0.034  0.00  0.00    -0.257 N 
ATOM     22  C   UNL     1      -4.372  -1.568   4.746  0.00  0.00    +0.011 C 
ENDROOT
BRANCH  21  23
ATOM     23  C   UNL     1      -2.690  -2.860   0.032  0.00  0.00    +0.075 A 
ATOM     24  C   UNL     1      -1.383  -3.326   0.010  0.00  0.00    +0.027 A 
ATOM     25  C   UNL     1      -1.135  -4.685   0.013  0.00  0.00    +0.002 A 
ATOM     26  C   UNL     1      -2.187  -5.582   0.027  0.00  0.00    +0.003 A 
ATOM     27  C   UNL     1      -3.491  -5.123   0.043  0.00  0.00    +0.040 A 
ATOM     28  C   UNL     1      -3.747  -3.764   0.045  0.00  0.00    +0.145 A 
ATOM     29  F   UNL     1      -5.021  -3.314   0.061  0.00  0.00    -0.204 F 
ENDBRANCH  21  23
BRANCH  20  30
ATOM     30  N   UNL     1      -3.366  -1.513  -2.309  0.00  0.00    -0.345 N 
ATOM     31  H   UNL     1      -3.465  -1.043  -3.152  0.00  0.00    +0.144 HD
ATOM     32  H   UNL     1      -3.469  -2.477  -2.277  0.00  0.00    +0.144 HD
ENDBRANCH  20  30
BRANCH  19  33
ATOM     33  C   UNL     1      -3.092   1.221  -2.456  0.00  0.00    +0.100 C 
ATOM     34  N   UNL     1      -3.214   1.764  -3.446  0.00  0.00    -0.191 NA
ENDBRANCH  19  33
BRANCH  16  35
ATOM     35  C   UNL     1      -2.926   5.040   0.063  0.00  0.00    +0.202 C 
BRANCH  35  36
ATOM     36  C   UNL     1      -3.068   5.524  -1.320  0.00  0.00    -0.086 C 
ATOM     37  C   UNL     1      -3.181   5.910  -2.423  0.00  0.00    +0.005 C 
ENDBRANCH  35  36
ENDBRANCH  16  35
TORSDOF 5
