REMARK  Name = ZINC00640770
REMARK  6 active torsions:
REMARK  status: ('A' for Active; 'I' for Inactive)
REMARK    1  A    between atoms: C_3  and  S_19
REMARK    2  A    between atoms: C_6  and  N_7
REMARK    3  A    between atoms: N_7  and  C_8
REMARK    4  A    between atoms: C_8  and  N_10
REMARK    5  A    between atoms: N_10  and  C_11
REMARK    6  A    between atoms: S_19  and  N_22
REMARK                            x       y       z     vdW  Elec       q    Type
REMARK                         _______ _______ _______ _____ _____    ______ ____
ROOT
ATOM      1  N   UNL     1       5.945  -0.627  -0.261  0.00  0.00    -0.297 N 
ATOM      2  H   UNL     1       5.940  -1.574  -0.052  0.00  0.00    +0.154 HD
ENDROOT
BRANCH   1   8
ATOM      3  C   UNL     1       7.440   0.953  -1.311  0.00  0.00    +0.025 A 
ATOM      4  C   UNL     1       8.629   1.655  -1.313  0.00  0.00    +0.030 A 
ATOM      5  C   UNL     1       9.537   1.482  -0.285  0.00  0.00    +0.105 A 
ATOM      6  C   UNL     1       9.256   0.611   0.752  0.00  0.00    +0.030 A 
ATOM      7  C   UNL     1       8.065  -0.089   0.763  0.00  0.00    +0.025 A 
ATOM      8  C   UNL     1       7.151   0.081  -0.269  0.00  0.00    +0.033 A 
BRANCH   5   9
ATOM      9  S   UNL     1      11.057   2.374  -0.295  0.00  0.00    +0.056 S 
ATOM     10  O   UNL     1      10.843   3.532  -1.090  0.00  0.00    -0.153 OA
ATOM     11  O   UNL     1      11.493   2.448   1.056  0.00  0.00    -0.153 OA
BRANCH   9  12
ATOM     12  N   UNL     1      12.165   1.444  -1.101  0.00  0.00    -0.204 NA
ATOM     13  H   UNL     1      12.886   1.867  -1.593  0.00  0.00    +0.144 HD
ATOM     14  H   UNL     1      12.094   0.477  -1.080  0.00  0.00    +0.144 HD
ENDBRANCH   9  12
ENDBRANCH   5   9
ENDBRANCH   1   8
BRANCH   1  15
ATOM     15  C   UNL     1       4.789   0.007  -0.543  0.00  0.00    +0.139 C 
ATOM     16  S   UNL     1       4.809   1.652  -1.016  0.00  0.00    -0.018 S 
BRANCH  15  17
ATOM     17  N   UNL     1       3.619  -0.654  -0.452  0.00  0.00    -0.297 N 
ATOM     18  H   UNL     1       3.601  -1.567  -0.124  0.00  0.00    +0.154 HD
BRANCH  17  19
ATOM     19  C   UNL     1       2.428  -0.023  -0.829  0.00  0.00    +0.034 A 
ATOM     20  C   UNL     1       1.504  -0.696  -1.619  0.00  0.00    +0.025 A 
ATOM     21  C   UNL     1       0.330  -0.072  -1.990  0.00  0.00    +0.023 A 
ATOM     22  C   UNL     1       0.071   1.223  -1.575  0.00  0.00    +0.059 A 
ATOM     23  C   UNL     1       0.990   1.896  -0.787  0.00  0.00    +0.061 A 
ATOM     24  C   UNL     1       2.167   1.276  -0.413  0.00  0.00    +0.044 A 
ATOM     25 CL   UNL     1       0.662   3.520  -0.269  0.00  0.00    -0.082 Cl
ATOM     26 CL   UNL     1      -1.403   2.006  -2.050  0.00  0.00    -0.082 Cl
ENDBRANCH  17  19
ENDBRANCH  15  17
ENDBRANCH   1  15
TORSDOF 6
