REMARK  Name = ZINC36115718
REMARK  12 active torsions:
REMARK  status: ('A' for Active; 'I' for Inactive)
REMARK    1  A    between atoms: C_1  and  C_2
REMARK    2  A    between atoms: C_2  and  C_3
REMARK    3  A    between atoms: C_3  and  C_5
REMARK    4  A    between atoms: C_3  and  N_6
REMARK    5  A    between atoms: N_6  and  C_7
REMARK    6  A    between atoms: C_7  and  C_8
REMARK    7  A    between atoms: C_18  and  C_20
REMARK    8  A    between atoms: C_20  and  O_21
REMARK    9  A    between atoms: O_21  and  C_22
REMARK   10  A    between atoms: C_29  and  C_31
REMARK   11  A    between atoms: C_34  and  O_37
REMARK   12  A    between atoms: O_37  and  C_38
REMARK                            x       y       z     vdW  Elec       q    Type
REMARK                         _______ _______ _______ _____ _____    ______ ____
ROOT
ATOM      1  C   UNL     1      -2.543  -1.521   4.062  0.00  0.00    +0.234 C 
ATOM      2  O   UNL     1      -2.706  -0.929   3.016  0.00  0.00    -0.274 OA
ATOM      3  N   UNL     1      -3.241  -1.159   5.157  0.00  0.00    -0.289 N 
ATOM      4  C   UNL     1      -3.047  -1.866   6.432  0.00  0.00    +0.114 C 
ATOM      5  C   UNL     1      -2.451  -0.876   7.446  0.00  0.00    +0.061 C 
ATOM      6  C   UNL     1      -3.170   0.428   7.320  0.00  0.00    -0.004 A 
ATOM      7  C   UNL     1      -3.959   0.853   6.297  0.00  0.00    -0.014 A 
ATOM      8  C   UNL     1      -4.511   2.127   6.420  0.00  0.00    +0.013 A 
ATOM      9  C   UNL     1      -4.256   2.872   7.520  0.00  0.00    +0.046 A 
ATOM     10  S   UNL     1      -3.196   1.785   8.462  0.00  0.00    -0.101 S 
ATOM     11  C   UNL     1      -4.202  -0.050   5.094  0.00  0.00    +0.144 C 
ENDROOT
BRANCH   1  12
ATOM     12  C   UNL     1      -1.560  -2.660   4.138  0.00  0.00    +0.204 C 
BRANCH  12  13
ATOM     13  N   UNL     1      -0.842  -2.771   2.865  0.00  0.00    -0.286 N 
ATOM     14  C   UNL     1      -1.254  -3.655   1.934  0.00  0.00    +0.247 C 
ATOM     15  O   UNL     1      -2.308  -4.243   2.079  0.00  0.00    -0.270 OA
BRANCH  14  16
ATOM     16  C   UNL     1      -0.425  -3.907   0.739  0.00  0.00    +0.037 A 
ATOM     17  C   UNL     1       0.078  -2.836  -0.004  0.00  0.00    +0.016 A 
ATOM     18  C   UNL     1       0.852  -3.076  -1.117  0.00  0.00    +0.046 A 
ATOM     19  C   UNL     1       1.131  -4.382  -1.504  0.00  0.00    +0.120 A 
ATOM     20  C   UNL     1       0.633  -5.450  -0.767  0.00  0.00    +0.046 A 
ATOM     21  C   UNL     1      -0.137  -5.218   0.351  0.00  0.00    +0.016 A 
BRANCH  19  22
ATOM     22  O   UNL     1       1.893  -4.614  -2.603  0.00  0.00    -0.495 OA
ATOM     23  C   UNL     1       2.141  -5.980  -2.943  0.00  0.00    +0.277 C 
ENDBRANCH  19  22
ENDBRANCH  14  16
BRANCH  13  24
ATOM     24  C   UNL     1       0.323  -1.922   2.605  0.00  0.00    +0.074 C 
ATOM     25  C   UNL     1      -0.137  -0.601   1.985  0.00  0.00    +0.028 C 
BRANCH  24  27
ATOM     26  C   UNL     1       1.384  -2.965   4.612  0.00  0.00    +0.005 C 
ATOM     27  C   UNL     1       1.054  -1.642   3.920  0.00  0.00    +0.019 C 
ENDBRANCH  24  27
ENDBRANCH  13  24
ENDBRANCH  12  13
ENDBRANCH   1  12
BRANCH  11  28
ATOM     28  C   UNL     1      -5.630  -0.598   5.144  0.00  0.00    +0.256 C 
BRANCH  28  29
ATOM     29  O   UNL     1      -5.857  -1.220   6.411  0.00  0.00    -0.490 OA
BRANCH  29  30
ATOM     30  C   UNL     1      -7.086  -1.762   6.620  0.00  0.00    +0.121 A 
ATOM     31  C   UNL     1      -8.050  -1.702   5.625  0.00  0.00    +0.047 A 
ATOM     32  C   UNL     1      -9.299  -2.254   5.839  0.00  0.00    +0.023 A 
ATOM     33  C   UNL     1      -9.587  -2.866   7.046  0.00  0.00    +0.041 A 
ATOM     34  C   UNL     1      -8.627  -2.927   8.040  0.00  0.00    +0.023 A 
ATOM     35  C   UNL     1      -7.375  -2.382   7.827  0.00  0.00    +0.047 A 
ATOM     36 CL   UNL     1     -11.156  -3.558   7.314  0.00  0.00    -0.084 Cl
ENDBRANCH  29  30
ENDBRANCH  28  29
ENDBRANCH  11  28
TORSDOF 9
