REMARK  Name = ZINC45312773
REMARK  10 active torsions:
REMARK  status: ('A' for Active; 'I' for Inactive)
REMARK    1  A    between atoms: C_1  and  C_2
REMARK    2  A    between atoms: N_5  and  S_11
REMARK    3  A    between atoms: C_7  and  C_10
REMARK    4  A    between atoms: S_11  and  C_14
REMARK    5  A    between atoms: C_17  and  N_20
REMARK    6  A    between atoms: C_21  and  C_23
REMARK    7  A    between atoms: C_23  and  N_24
REMARK    8  A    between atoms: N_24  and  C_25
REMARK    9  A    between atoms: N_24  and  C_26
REMARK   10  A    between atoms: C_26  and  C_27
REMARK                            x       y       z     vdW  Elec       q    Type
REMARK                         _______ _______ _______ _____ _____    ______ ____
ROOT
ATOM      1  C   UNL     1      -1.142  -3.386  -2.152  0.00  0.00    +0.106 A 
ATOM      2  C   UNL     1      -1.121  -2.595  -3.286  0.00  0.00    +0.030 A 
ATOM      3  C   UNL     1      -0.284  -2.914  -4.337  0.00  0.00    +0.025 A 
ATOM      4  C   UNL     1       0.536  -4.032  -4.255  0.00  0.00    +0.033 A 
ATOM      5  C   UNL     1       0.512  -4.824  -3.115  0.00  0.00    +0.025 A 
ATOM      6  C   UNL     1      -0.323  -4.497  -2.066  0.00  0.00    +0.030 A 
ENDROOT
BRANCH   4   7
ATOM      7  N   UNL     1       1.385  -4.358  -5.319  0.00  0.00    -0.287 N 
ATOM      8  C   UNL     1       0.992  -4.132  -6.588  0.00  0.00    +0.201 C 
ATOM      9  O   UNL     1      -0.060  -3.570  -6.806  0.00  0.00    -0.278 OA
ATOM     10  H   UNL     1       2.256  -4.747  -5.143  0.00  0.00    +0.155 HD
BRANCH   8  11
ATOM     11  C   UNL     1       1.860  -4.579  -7.736  0.00  0.00    +0.019 C 
BRANCH  11  12
ATOM     12  N   UNL     1       1.215  -4.219  -9.006  0.00  0.00    +0.386 N 
ATOM     13  C   UNL     1      -0.037  -4.972  -9.150  0.00  0.00    -0.095 C 
ATOM     14  H   UNL     1       1.016  -3.230  -9.014  0.00  0.00    -0.081 HD
BRANCH  12  15
ATOM     15  C   UNL     1       2.114  -4.545 -10.121  0.00  0.00    -0.043 C 
BRANCH  15  16
ATOM     16  C   UNL     1       1.506  -4.065 -11.414  0.00  0.00    -0.061 A 
ATOM     17  C   UNL     1       0.673  -4.898 -12.138  0.00  0.00    +0.002 A 
ATOM     18  C   UNL     1       0.115  -4.458 -13.323  0.00  0.00    +0.003 A 
ATOM     19  C   UNL     1       0.389  -3.186 -13.787  0.00  0.00    +0.038 A 
ATOM     20  C   UNL     1       1.223  -2.350 -13.063  0.00  0.00    +0.124 A 
ATOM     21  C   UNL     1       1.777  -2.789 -11.872  0.00  0.00    +0.040 A 
ATOM     22  F   UNL     1       1.492  -1.106 -13.516  0.00  0.00    -0.205 F 
ENDBRANCH  15  16
ENDBRANCH  12  15
ENDBRANCH  11  12
ENDBRANCH   8  11
ENDBRANCH   4   7
BRANCH   1  23
ATOM     23  S   UNL     1      -2.211  -2.976  -0.813  0.00  0.00    +0.061 S 
ATOM     24  O   UNL     1      -2.438  -4.178  -0.091  0.00  0.00    -0.153 OA
ATOM     25  O   UNL     1      -3.272  -2.205  -1.362  0.00  0.00    -0.153 OA
BRANCH  23  29
ATOM     26  C   UNL     1       0.029   1.541   0.006  0.00  0.00    +0.039 C 
ATOM     27  C   UNL     1       0.038   0.011  -0.001  0.00  0.00    +0.131 C 
ATOM     28  C   UNL     1      -1.404  -0.510   0.014  0.00  0.00    +0.140 C 
ATOM     29  N   UNL     1      -1.367  -1.970   0.196  0.00  0.00    -0.172 NA
ATOM     30  C   UNL     1      -0.560  -2.509   1.301  0.00  0.00    +0.140 C 
ATOM     31  C   UNL     1       0.841  -1.891   1.223  0.00  0.00    +0.131 C 
ATOM     32  O   UNL     1       0.725  -0.467   1.158  0.00  0.00    -0.371 OA
ATOM     33  C   UNL     1       1.557  -2.403  -0.028  0.00  0.00    +0.039 C 
ENDBRANCH  23  29
ENDBRANCH   1  23
TORSDOF 7
