REMARK  Name = ZINC33380574
REMARK  8 active torsions:
REMARK  status: ('A' for Active; 'I' for Inactive)
REMARK    1  A    between atoms: C_1  and  C_2
REMARK    2  A    between atoms: C_2  and  C_3
REMARK    3  A    between atoms: C_2  and  N_4
REMARK    4  A    between atoms: N_4  and  C_5
REMARK    5  A    between atoms: C_5  and  C_6
REMARK    6  A    between atoms: C_20  and  C_22
REMARK    7  A    between atoms: N_31  and  C_32
REMARK    8  A    between atoms: C_32  and  C_33
REMARK                            x       y       z     vdW  Elec       q    Type
REMARK                         _______ _______ _______ _____ _____    ______ ____
ROOT
ATOM      1  C   UNL     1       1.334  -1.440  -1.435  0.00  0.00    +0.238 C 
ATOM      2  O   UNL     1       0.339  -2.123  -1.558  0.00  0.00    -0.273 OA
ATOM      3  N   UNL     1       1.300  -0.335  -0.664  0.00  0.00    -0.255 N 
ATOM      4  C   UNL     1       0.088   0.091  -0.103  0.00  0.00    +0.061 A 
ATOM      5  C   UNL     1      -1.114  -0.172  -0.741  0.00  0.00    +0.025 A 
ATOM      6  C   UNL     1      -2.302   0.244  -0.171  0.00  0.00    +0.002 A 
ATOM      7  C   UNL     1      -2.301   0.922   1.034  0.00  0.00    +0.002 A 
ATOM      8  C   UNL     1      -1.107   1.194   1.677  0.00  0.00    +0.028 A 
ATOM      9  C   UNL     1       0.085   0.786   1.111  0.00  0.00    +0.068 A 
ATOM     10  N   UNL     1       1.322   1.062   1.710  0.00  0.00    -0.316 N 
ATOM     11  C   UNL     1       1.609   1.497   2.960  0.00  0.00    +0.092 A 
ATOM     12  C   UNL     1       2.952   1.606   3.071  0.00  0.00    +0.020 A 
ATOM     13  C   UNL     1       3.514   1.227   1.831  0.00  0.00    +0.025 A 
ATOM     14  C   UNL     1       2.503   0.897   1.020  0.00  0.00    +0.049 A 
ATOM     15  C   UNL     1       2.537   0.424  -0.414  0.00  0.00    +0.159 C 
ENDROOT
BRANCH  15  16
ATOM     16  C   UNL     1       2.605   1.610  -1.341  0.00  0.00    -0.020 A 
ATOM     17  C   UNL     1       3.816   1.989  -1.891  0.00  0.00    +0.006 A 
ATOM     18  C   UNL     1       3.879   3.076  -2.742  0.00  0.00    +0.002 A 
ATOM     19  C   UNL     1       2.732   3.786  -3.044  0.00  0.00    +0.020 A 
ATOM     20  C   UNL     1       1.520   3.407  -2.494  0.00  0.00    +0.041 A 
ATOM     21  C   UNL     1       1.456   2.315  -1.647  0.00  0.00    +0.025 A 
ATOM     22 CL   UNL     1       0.079   4.298  -2.873  0.00  0.00    -0.084 Cl
ENDBRANCH  15  16
BRANCH   1  23
ATOM     23  C   UNL     1       2.607  -1.827  -2.142  0.00  0.00    +0.205 C 
BRANCH  23  24
ATOM     24  N   UNL     1       2.354  -2.987  -3.001  0.00  0.00    -0.274 N 
ATOM     25  C   UNL     1       1.965  -2.807  -4.279  0.00  0.00    +0.303 C 
ATOM     26  O   UNL     1       1.665  -3.765  -4.964  0.00  0.00    -0.253 OA
ATOM     27  N   UNL     1       1.909  -1.564  -4.798  0.00  0.00    -0.295 N 
ATOM     28  H   UNL     1       2.259  -0.705  -4.206  0.00  0.00    +0.151 HD
BRANCH  24  30
ATOM     29  C   UNL     1       1.175  -5.060  -2.463  0.00  0.00    +0.028 C 
ATOM     30  C   UNL     1       2.526  -4.342  -2.472  0.00  0.00    +0.072 C 
ATOM     31  C   UNL     1       3.508  -5.114  -3.355  0.00  0.00    +0.028 C 
ENDBRANCH  24  30
BRANCH  27  32
ATOM     32  C   UNL     1       1.382  -1.357  -6.149  0.00  0.00    +0.141 C 
BRANCH  32  33
ATOM     33  C   UNL     1       1.428   0.111  -6.487  0.00  0.00    -0.030 A 
ATOM     34  C   UNL     1       0.347   0.921  -6.197  0.00  0.00    +0.005 A 
ATOM     35  C   UNL     1       0.391   2.268  -6.503  0.00  0.00    +0.000 A 
ATOM     36  C   UNL     1       1.513   2.804  -7.107  0.00  0.00    +0.000 A 
ATOM     37  C   UNL     1       2.592   1.992  -7.402  0.00  0.00    +0.000 A 
ATOM     38  C   UNL     1       2.550   0.646  -7.092  0.00  0.00    +0.005 A 
ENDBRANCH  32  33
ENDBRANCH  27  32
ENDBRANCH  23  24
ENDBRANCH   1  23
TORSDOF 6
