REMARK  Name = ZINC48989287
REMARK  7 active torsions:
REMARK  status: ('A' for Active; 'I' for Inactive)
REMARK    1  A    between atoms: C_1  and  C_2
REMARK    2  A    between atoms: C_2  and  O_3
REMARK    3  A    between atoms: O_3  and  C_4
REMARK    4  A    between atoms: C_7  and  C_13
REMARK    5  A    between atoms: C_9  and  O_10
REMARK    6  A    between atoms: O_10  and  C_11
REMARK    7  A    between atoms: C_11  and  C_12
REMARK                            x       y       z     vdW  Elec       q    Type
REMARK                         _______ _______ _______ _____ _____    ______ ____
ROOT
ATOM      1  C   UNL     1      -2.026  -6.048  -0.030  0.00  0.00    +0.016 A 
ATOM      2  C   UNL     1      -2.848  -6.659   0.861  0.00  0.00    +0.056 A 
ATOM      3  S   UNL     1      -2.725  -8.298   0.520  0.00  0.00    -0.089 S 
ATOM      4  C   UNL     1      -1.575  -8.245  -0.825  0.00  0.00    +0.103 A 
ATOM      5  C   UNL     1      -1.308  -6.878  -0.983  0.00  0.00    +0.094 A 
ATOM      6  N   UNL     1      -0.438  -6.530  -1.970  0.00  0.00    -0.215 NA
ATOM      7  C   UNL     1       0.120  -7.428  -2.739  0.00  0.00    +0.199 A 
ATOM      8  N   UNL     1      -0.125  -8.764  -2.611  0.00  0.00    -0.294 N 
ATOM      9  H   UNL     1       0.309  -9.399  -3.202  0.00  0.00    +0.172 HD
ATOM     10  C   UNL     1      -0.973  -9.197  -1.647  0.00  0.00    +0.267 A 
ATOM     11  O   UNL     1      -1.211 -10.386  -1.510  0.00  0.00    -0.267 OA
ATOM     12  N   UNL     1       0.988  -7.008  -3.717  0.00  0.00    -0.298 N 
ATOM     13  C   UNL     1       1.726  -7.984  -4.531  0.00  0.00    +0.127 C 
ATOM     14  C   UNL     1       1.444  -7.701  -6.012  0.00  0.00    +0.125 C 
ATOM     15  N   UNL     1       1.652  -6.268  -6.263  0.00  0.00    -0.314 N 
ATOM     16  C   UNL     1       0.914  -5.292  -5.449  0.00  0.00    +0.125 C 
ATOM     17  C   UNL     1       1.192  -5.575  -3.972  0.00  0.00    +0.127 C 
ATOM     18  C   UNL     1       2.531  -5.843  -7.253  0.00  0.00    +0.099 A 
ATOM     19  C   UNL     1       3.115  -6.777  -8.103  0.00  0.00    +0.042 A 
ATOM     20  C   UNL     1       3.988  -6.341  -9.083  0.00  0.00    +0.005 A 
ATOM     21  C   UNL     1       4.248  -4.980  -9.181  0.00  0.00    +0.018 A 
ATOM     22  C   UNL     1       3.633  -4.109  -8.304  0.00  0.00    +0.084 A 
ATOM     23  N   UNL     1       2.800  -4.553  -7.382  0.00  0.00    -0.350 N 
ATOM     24  H   UNL     1       2.378  -3.920  -6.781  0.00  0.00    +0.166 HD
ENDROOT
BRANCH   1  28
ATOM     25  C   UNL     1      -1.575  -1.815  -0.047  0.00  0.00    +0.162 A 
ATOM     26  C   UNL     1      -0.455  -2.632  -0.044  0.00  0.00    +0.050 A 
ATOM     27  C   UNL     1      -0.598  -4.005  -0.038  0.00  0.00    +0.012 A 
ATOM     28  C   UNL     1      -1.871  -4.573  -0.035  0.00  0.00    -0.012 A 
ATOM     29  C   UNL     1      -2.998  -3.753  -0.038  0.00  0.00    +0.058 A 
ATOM     30  C   UNL     1      -2.849  -2.377  -0.038  0.00  0.00    +0.162 A 
BRANCH  25  31
ATOM     31  O   UNL     1      -1.429  -0.463  -0.053  0.00  0.00    -0.489 OA
BRANCH  31  33
ATOM     32  C   UNL     1      -0.131   1.575  -0.068  0.00  0.00    +0.048 C 
ATOM     33  C   UNL     1      -0.094   0.045  -0.062  0.00  0.00    +0.226 C 
ENDBRANCH  31  33
ENDBRANCH  25  31
BRANCH  30  34
ATOM     34  O   UNL     1      -3.946  -1.574  -0.036  0.00  0.00    -0.489 OA
BRANCH  34  35
ATOM     35  C   UNL     1      -5.222  -2.218  -0.027  0.00  0.00    +0.226 C 
ATOM     36  C   UNL     1      -6.327  -1.161  -0.025  0.00  0.00    +0.048 C 
ENDBRANCH  34  35
ENDBRANCH  30  34
ENDBRANCH   1  28
TORSDOF 5
