REMARK  Name = ZINC66740535
REMARK  4 active torsions:
REMARK  status: ('A' for Active; 'I' for Inactive)
REMARK    1  A    between atoms: C_1  and  C_2
REMARK    2  A    between atoms: C_5  and  C_7
REMARK    3  A    between atoms: C_8  and  C_13
REMARK    4  A    between atoms: C_17  and  C_25
REMARK                            x       y       z     vdW  Elec       q    Type
REMARK                         _______ _______ _______ _____ _____    ______ ____
ROOT
ATOM      1  C   UNL     1       3.543  -2.186  -1.494  0.00  0.00    +0.193 C 
ATOM      2  N   UNL     1       4.500  -2.781  -2.441  0.00  0.00    -0.319 N 
ATOM      3  C   UNL     1       3.967  -3.321  -3.620  0.00  0.00    +0.082 A 
ATOM      4  C   UNL     1       4.366  -4.258  -4.485  0.00  0.00    +0.055 A 
ATOM      5  N   UNL     1       3.398  -4.347  -5.445  0.00  0.00    -0.279 N 
ATOM      6  H   UNL     1       3.422  -4.952  -6.202  0.00  0.00    +0.189 HD
ATOM      7  N   UNL     1       2.446  -3.509  -5.199  0.00  0.00    -0.167 NA
ATOM      8  C   UNL     1       2.710  -2.842  -4.115  0.00  0.00    +0.168 A 
ATOM      9  C   UNL     1       2.002  -1.772  -3.386  0.00  0.00    +0.268 C 
ATOM     10  O   UNL     1       1.027  -1.218  -3.856  0.00  0.00    -0.268 OA
ATOM     11  N   UNL     1       2.490  -1.438  -2.170  0.00  0.00    -0.288 N 
ATOM     12  C   UNL     1       5.638  -5.063  -4.415  0.00  0.00    +0.067 C 
ATOM     13  H   UNL     1       5.452  -2.798  -2.259  0.00  0.00    +0.148 HD
ATOM     14  H   UNL     1       2.120  -0.660  -1.724  0.00  0.00    +0.151 HD
ENDROOT
BRANCH   1  16
ATOM     15  C   UNL     1       1.667  -3.226  -0.023  0.00  0.00    +0.134 A 
ATOM     16  C   UNL     1       2.915  -3.287  -0.678  0.00  0.00    +0.039 A 
ATOM     17  C   UNL     1       3.445  -4.506  -0.446  0.00  0.00    +0.112 A 
ATOM     18  N   UNL     1       2.578  -5.199   0.324  0.00  0.00    -0.284 N 
ATOM     19  H   UNL     1       2.702  -6.107   0.644  0.00  0.00    +0.188 HD
ATOM     20  N   UNL     1       1.472  -4.380   0.583  0.00  0.00    -0.170 NA
BRANCH  15  25
ATOM     21  C   UNL     1      -0.018   1.503   0.010  0.00  0.00    +0.086 C 
ATOM     22  C   UNL     1       0.002  -0.004   0.002  0.00  0.00    +0.103 A 
ATOM     23  C   UNL     1      -1.081  -0.804   0.003  0.00  0.00    +0.045 A 
ATOM     24  C   UNL     1      -0.613  -2.134  -0.007  0.00  0.00    +0.052 A 
ATOM     25  C   UNL     1       0.745  -2.070  -0.013  0.00  0.00    +0.155 A 
ATOM     26  O   UNL     1       1.104  -0.772  -0.013  0.00  0.00    -0.458 OA
ENDBRANCH  15  25
ENDBRANCH   1  16
TORSDOF 2
