REMARK  Name = ZINC15069131
REMARK  4 active torsions:
REMARK  status: ('A' for Active; 'I' for Inactive)
REMARK    1  A    between atoms: C_8  and  N_54
REMARK    2  A    between atoms: C_10  and  N_54
REMARK    3  A    between atoms: N_21  and  C_24
REMARK    4  A    between atoms: C_24  and  C_25
REMARK                            x       y       z     vdW  Elec       q    Type
REMARK                         _______ _______ _______ _____ _____    ______ ____
ROOT
ATOM      1  C   UNL     1      -0.847   8.031  -0.316  0.00  0.00    -0.066 C 
ATOM      2  C   UNL     1       0.377   7.622   0.508  0.00  0.00    -0.011 C 
ATOM      3  C   UNL     1       0.893   6.263   0.032  0.00  0.00    +0.035 C 
ATOM      4  C   UNL     1      -0.265   5.269   0.035  0.00  0.00    -0.023 A 
ATOM      5  C   UNL     1      -1.544   5.700   0.049  0.00  0.00    -0.006 A 
ATOM      6  S   UNL     1      -2.526   4.224   0.050  0.00  0.00    -0.073 S 
ATOM      7  C   UNL     1      -1.212   3.031   0.030  0.00  0.00    +0.116 A 
ATOM      8  C   UNL     1      -0.052   3.822   0.024  0.00  0.00    +0.076 A 
ATOM      9  C   UNL     1       1.188   3.104   0.008  0.00  0.00    +0.263 A 
ATOM     10  O   UNL     1       2.250   3.703   0.001  0.00  0.00    -0.267 OA
ATOM     11  N   UNL     1       1.161   1.759   0.000  0.00  0.00    -0.294 N 
ATOM     12  C   UNL     1      -0.013   1.076   0.008  0.00  0.00    +0.203 A 
ATOM     13  N   UNL     1      -1.159   1.702   0.017  0.00  0.00    -0.230 NA
ATOM     14  C   UNL     1      -2.023   7.119   0.062  0.00  0.00    +0.027 C 
ENDROOT
BRANCH   1  15
ATOM     15  N   UNL     1      -1.190   9.434  -0.014  0.00  0.00    +0.383 N 
ATOM     16  H   UNL     1      -1.782   9.464   0.825  0.00  0.00    -0.085 HD
ATOM     17  H   UNL     1      -0.328   9.965   0.155  0.00  0.00    -0.085 HD
BRANCH  15  25
ATOM     18  C   UNL     1      -3.236  14.118  -3.201  0.00  0.00    +0.000 A 
ATOM     19  C   UNL     1      -2.196  13.791  -4.051  0.00  0.00    +0.000 A 
ATOM     20  C   UNL     1      -1.405  12.692  -3.781  0.00  0.00    +0.004 A 
ATOM     21  C   UNL     1      -1.649  11.915  -2.661  0.00  0.00    -0.046 A 
ATOM     22  C   UNL     1      -2.689  12.242  -1.810  0.00  0.00    -0.046 A 
ATOM     23  C   UNL     1      -3.481  13.345  -2.083  0.00  0.00    +0.004 A 
ATOM     24  C   UNL     1      -2.748  11.249  -0.670  0.00  0.00    +0.020 C 
ATOM     25  C   UNL     1      -1.919  10.037  -1.146  0.00  0.00    -0.063 C 
ATOM     26  C   UNL     1      -0.939  10.675  -2.152  0.00  0.00    +0.020 C 
ENDBRANCH  15  25
ENDBRANCH   1  15
BRANCH  11  27
ATOM     27  C   UNL     1       2.424   1.016  -0.015  0.00  0.00    +0.161 C 
BRANCH  27  28
ATOM     28  C   UNL     1       2.843   0.768  -1.442  0.00  0.00    -0.025 A 
ATOM     29  C   UNL     1       2.441  -0.378  -2.111  0.00  0.00    +0.025 A 
ATOM     30  C   UNL     1       2.842  -0.568  -3.420  0.00  0.00    +0.111 A 
ATOM     31  N   UNL     1       3.605   0.319  -4.028  0.00  0.00    -0.263 NA
ATOM     32  C   UNL     1       4.010   1.417  -3.421  0.00  0.00    +0.111 A 
ATOM     33  C   UNL     1       3.645   1.678  -2.114  0.00  0.00    +0.025 A 
ENDBRANCH  27  28
ENDBRANCH  11  27
TORSDOF 4
