REMARK  Name = ZINC37244630
REMARK  6 active torsions:
REMARK  status: ('A' for Active; 'I' for Inactive)
REMARK    1  A    between atoms: C_1  and  C_2
REMARK    2  A    between atoms: C_5  and  N_9
REMARK    3  A    between atoms: C_10  and  C_12
REMARK    4  A    between atoms: N_14  and  C_15
REMARK    5  A    between atoms: C_15  and  C_16
REMARK    6  A    between atoms: C_16  and  N_18
REMARK                            x       y       z     vdW  Elec       q    Type
REMARK                         _______ _______ _______ _____ _____    ______ ____
ROOT
ATOM      1  N   UNL     1       0.058  -4.170  -0.021  0.00  0.00    -0.276 N 
ATOM      2  C   UNL     1       0.472  -4.844   1.070  0.00  0.00    +0.303 C 
ATOM      3  O   UNL     1       0.742  -4.243   2.089  0.00  0.00    -0.265 OA
ATOM      4  H   UNL     1      -0.227  -4.654  -0.811  0.00  0.00    +0.155 HD
ENDROOT
BRANCH   1   9
ATOM      5  C   UNL     1      -0.017   1.503   0.009  0.00  0.00    +0.044 C 
ATOM      6  C   UNL     1       0.003  -0.004   0.001  0.00  0.00    -0.048 A 
ATOM      7  C   UNL     1       1.144  -0.676  -0.396  0.00  0.00    +0.020 A 
ATOM      8  C   UNL     1       1.166  -2.058  -0.404  0.00  0.00    +0.040 A 
ATOM      9  C   UNL     1       0.040  -2.772  -0.013  0.00  0.00    +0.062 A 
ATOM     10  C   UNL     1      -1.106  -2.093   0.385  0.00  0.00    +0.040 A 
ATOM     11  C   UNL     1      -1.118  -0.711   0.396  0.00  0.00    +0.020 A 
ATOM     12 BR   UNL     1      -2.642  -3.058   0.917  0.00  0.00    -0.048 Br
ATOM     13 BR   UNL     1       2.728  -2.977  -0.947  0.00  0.00    -0.048 Br
ENDBRANCH   1   9
BRANCH   2  14
ATOM     14  C   UNL     1       0.598  -6.332   1.025  0.00  0.00    +0.300 C 
ATOM     15  O   UNL     1       0.328  -6.933   0.006  0.00  0.00    -0.265 OA
ATOM     16  N   UNL     1       1.012  -7.006   2.116  0.00  0.00    -0.302 N 
ATOM     17  H   UNL     1       1.227  -6.525   2.931  0.00  0.00    +0.150 HD
BRANCH  16  18
ATOM     18  C   UNL     1       1.135  -8.465   2.072  0.00  0.00    +0.163 C 
BRANCH  18  19
ATOM     19  C   UNL     1       1.612  -8.970   3.410  0.00  0.00    +0.064 C 
ATOM     20  S   UNL     1       1.895  -7.938   4.599  0.00  0.00    -0.039 S 
BRANCH  19  21
ATOM     21  N   UNL     1       1.799 -10.290   3.605  0.00  0.00    -0.354 N 
ATOM     22  H   UNL     1       1.627 -10.916   2.884  0.00  0.00    +0.143 HD
ATOM     23  H   UNL     1       2.106 -10.615   4.466  0.00  0.00    +0.143 HD
ENDBRANCH  19  21
ENDBRANCH  18  19
ENDBRANCH  16  18
ENDBRANCH   2  14
TORSDOF 5
