REMARK  Name = ZINC12704320
REMARK  9 active torsions:
REMARK  status: ('A' for Active; 'I' for Inactive)
REMARK    1  A    between atoms: C_3  and  C_6
REMARK    2  A    between atoms: C_6  and  N_7
REMARK    3  A    between atoms: N_7  and  C_8
REMARK    4  A    between atoms: C_8  and  C_10
REMARK    5  A    between atoms: C_8  and  C_15
REMARK    6  A    between atoms: N_17  and  C_18
REMARK    7  A    between atoms: C_23  and  C_25
REMARK    8  A    between atoms: C_25  and  N_26
REMARK    9  A    between atoms: C_28  and  C_31
REMARK                            x       y       z     vdW  Elec       q    Type
REMARK                         _______ _______ _______ _____ _____    ______ ____
ROOT
ATOM      1  N   UNL     1      -3.022   0.918   1.357  0.00  0.00    -0.279 N 
ATOM      2  C   UNL     1      -2.543  -0.205   1.927  0.00  0.00    +0.240 C 
ATOM      3  O   UNL     1      -2.720  -0.409   3.110  0.00  0.00    -0.273 OA
ENDROOT
BRANCH   1   4
ATOM      4  C   UNL     1      -2.808   1.164  -0.071  0.00  0.00    +0.151 C 
BRANCH   4   7
ATOM      5  C   UNL     1       0.672   2.624  -0.587  0.00  0.00    +0.008 A 
ATOM      6  C   UNL     1      -0.295   1.649  -0.430  0.00  0.00    +0.013 A 
ATOM      7  C   UNL     1      -1.585   2.025  -0.255  0.00  0.00    +0.007 A 
ATOM      8  S   UNL     1      -1.459   3.805  -0.295  0.00  0.00    -0.100 S 
ATOM      9  C   UNL     1       0.303   3.928  -0.553  0.00  0.00    +0.045 A 
ENDBRANCH   4   7
ENDBRANCH   1   4
BRANCH   1  10
ATOM     10  C   UNL     1      -3.757   1.893   2.167  0.00  0.00    +0.199 C 
BRANCH  10  11
ATOM     11  C   UNL     1      -5.030   1.267   2.675  0.00  0.00    +0.019 A 
ATOM     12  C   UNL     1      -6.251   1.832   2.844  0.00  0.00    +0.013 A 
ATOM     13  C   UNL     1      -7.287   1.055   3.326  0.00  0.00    +0.008 A 
ATOM     14  C   UNL     1      -7.050  -0.245   3.627  0.00  0.00    +0.045 A 
ATOM     15  S   UNL     1      -5.319  -0.408   3.219  0.00  0.00    -0.099 S 
ENDBRANCH  10  11
BRANCH  10  16
ATOM     16  C   UNL     1      -2.906   2.320   3.335  0.00  0.00    +0.239 C 
ATOM     17  O   UNL     1      -1.795   1.855   3.477  0.00  0.00    -0.273 OA
ATOM     18  N   UNL     1      -3.379   3.219   4.221  0.00  0.00    -0.311 N 
ATOM     19  H   UNL     1      -4.268   3.590   4.107  0.00  0.00    +0.149 HD
BRANCH  18  20
ATOM     20  C   UNL     1      -2.552   3.633   5.356  0.00  0.00    +0.073 C 
ATOM     21  C   UNL     1      -2.766   2.673   6.545  0.00  0.00    +0.022 C 
ATOM     22  C   UNL     1      -2.713   3.593   7.790  0.00  0.00    +0.002 C 
ATOM     23  C   UNL     1      -3.439   4.871   7.302  0.00  0.00    +0.002 C 
ATOM     24  C   UNL     1      -2.979   5.031   5.838  0.00  0.00    +0.022 C 
ENDBRANCH  18  20
ENDBRANCH  10  16
ENDBRANCH   1  10
BRANCH   2  25
ATOM     25  C   UNL     1      -1.787  -1.209   1.095  0.00  0.00    +0.264 C 
BRANCH  25  26
ATOM     26  N   UNL     1      -1.375  -2.333   1.940  0.00  0.00    -0.154 N 
ATOM     27  N   UNL     1      -0.263  -2.411   2.586  0.00  0.00    -0.130 NA
ATOM     28  C   UNL     1      -0.251  -3.561   3.231  0.00  0.00    +0.205 A 
ATOM     29  N   UNL     1      -1.405  -4.177   2.938  0.00  0.00    -0.108 NA
ATOM     30  N   UNL     1      -2.065  -3.399   2.149  0.00  0.00    -0.045 NA
BRANCH  28  31
ATOM     31  C   UNL     1       0.832  -4.075   4.106  0.00  0.00    +0.023 A 
ATOM     32  C   UNL     1       1.983  -3.318   4.312  0.00  0.00    +0.014 A 
ATOM     33  C   UNL     1       2.985  -3.797   5.131  0.00  0.00    +0.039 A 
ATOM     34  C   UNL     1       2.852  -5.035   5.739  0.00  0.00    +0.123 A 
ATOM     35  C   UNL     1       1.711  -5.793   5.533  0.00  0.00    +0.039 A 
ATOM     36  C   UNL     1       0.702  -5.319   4.720  0.00  0.00    +0.014 A 
ATOM     37  F   UNL     1       3.837  -5.503   6.536  0.00  0.00    -0.205 F 
ENDBRANCH  28  31
ENDBRANCH  25  26
ENDBRANCH   2  25
TORSDOF 9
