REMARK  Name = ZINC63044960
REMARK  6 active torsions:
REMARK  status: ('A' for Active; 'I' for Inactive)
REMARK    1  A    between atoms: C_1  and  C_2
REMARK    2  A    between atoms: C_2  and  C_3
REMARK    3  A    between atoms: C_3  and  C_4
REMARK    4  A    between atoms: C_4  and  C_6
REMARK    5  A    between atoms: C_6  and  C_7
REMARK    6  A    between atoms: C_10  and  N_17
REMARK                            x       y       z     vdW  Elec       q    Type
REMARK                         _______ _______ _______ _____ _____    ______ ____
ROOT
ATOM      1  C   UNL     1       1.730  -4.046   2.325  0.00  0.00    -0.037 A 
ATOM      2  C   UNL     1       0.871  -4.840   3.021  0.00  0.00    +0.006 A 
ATOM      3  C   UNL     1       0.971  -6.229   2.958  0.00  0.00    +0.035 A 
ATOM      4  C   UNL     1       1.929  -6.830   2.202  0.00  0.00    +0.152 A 
ATOM      5  C   UNL     1       2.835  -6.044   1.469  0.00  0.00    +0.101 A 
ATOM      6  C   UNL     1       2.728  -4.632   1.530  0.00  0.00    +0.006 A 
ATOM      7  C   UNL     1       3.632  -3.846   0.791  0.00  0.00    +0.012 A 
ATOM      8  C   UNL     1       4.576  -4.486   0.039  0.00  0.00    +0.020 A 
ATOM      9  C   UNL     1       4.623  -5.878   0.019  0.00  0.00    +0.111 A 
ATOM     10  N   UNL     1       3.787  -6.607   0.718  0.00  0.00    -0.253 NA
ENDROOT
BRANCH   4  11
ATOM     11  N   UNL     1       2.017  -8.307   2.151  0.00  0.00    +0.059 N 
ATOM     12  O   UNL     1       1.237  -8.981   2.783  0.00  0.00    -0.126 OA
ATOM     13  O   UNL     1       2.869  -8.839   1.479  0.00  0.00    -0.126 OA
ENDBRANCH   4  11
BRANCH   1  14
ATOM     14  C   UNL     1       1.608  -2.546   2.404  0.00  0.00    +0.050 C 
BRANCH  14  15
ATOM     15  C   UNL     1       0.763  -2.041   1.233  0.00  0.00    +0.061 C 
ATOM     16 BR   UNL     1      -1.073  -2.722   1.409  0.00  0.00    -0.088 Br
BRANCH  15  17
ATOM     17  C   UNL     1       0.742  -0.511   1.242  0.00  0.00    +0.015 C 
BRANCH  17  19
ATOM     18  C   UNL     1      -0.019   1.526   0.010  0.00  0.00    +0.004 C 
ATOM     19  C   UNL     1       0.002  -0.004   0.002  0.00  0.00    -0.002 C 
ENDBRANCH  17  19
ENDBRANCH  15  17
ENDBRANCH  14  15
ENDBRANCH   1  14
TORSDOF 5
