REMARK  Name = ZINC39655741
REMARK  6 active torsions:
REMARK  status: ('A' for Active; 'I' for Inactive)
REMARK    1  A    between atoms: C_1  and  C_2
REMARK    2  A    between atoms: C_8  and  C_11
REMARK    3  A    between atoms: C_11  and  C_12
REMARK    4  A    between atoms: C_12  and  N_13
REMARK    5  A    between atoms: C_14  and  C_16
REMARK    6  A    between atoms: C_27  and  C_29
REMARK                            x       y       z     vdW  Elec       q    Type
REMARK                         _______ _______ _______ _____ _____    ______ ____
ROOT
ATOM      1  C   UNL     1       4.623  -0.109  -7.495  0.00  0.00    +0.100 C 
ATOM      2  C   UNL     1       4.722   0.718  -8.797  0.00  0.00    +0.121 C 
ATOM      3  N   UNL     1       5.637  -0.060  -9.665  0.00  0.00    -0.296 N 
ATOM      4  C   UNL     1       5.261  -1.474  -9.426  0.00  0.00    +0.115 C 
ATOM      5  C   UNL     1       4.976  -1.546  -7.912  0.00  0.00    -0.004 C 
ATOM      6  C   UNL     1       3.800  -2.480  -7.642  0.00  0.00    -0.010 C 
ATOM      7  C   UNL     1       4.196  -3.913  -8.010  0.00  0.00    -0.082 C 
ATOM      8  N   UNL     1       5.362  -4.319  -7.216  0.00  0.00    +0.379 N 
ATOM      9  C   UNL     1       6.515  -3.475  -7.551  0.00  0.00    -0.082 C 
ATOM     10  C   UNL     1       6.217  -2.024  -7.164  0.00  0.00    -0.010 C 
ATOM     11  C   UNL     1       6.596   0.412 -10.487  0.00  0.00    +0.248 C 
ATOM     12  O   UNL     1       6.853   1.600 -10.502  0.00  0.00    -0.270 OA
ATOM     13  H   UNL     1       5.149  -4.222  -6.234  0.00  0.00    -0.086 HD
ATOM     14  H   UNL     1       5.583  -5.283  -7.416  0.00  0.00    -0.086 HD
ENDROOT
BRANCH  11  15
ATOM     15  C   UNL     1       7.335  -0.515 -11.369  0.00  0.00    +0.055 A 
ATOM     16  C   UNL     1       6.685  -1.615 -11.932  0.00  0.00    +0.014 A 
ATOM     17  C   UNL     1       7.380  -2.476 -12.755  0.00  0.00    +0.001 A 
ATOM     18  C   UNL     1       8.719  -2.252 -13.024  0.00  0.00    +0.001 A 
ATOM     19  C   UNL     1       9.370  -1.165 -12.471  0.00  0.00    +0.021 A 
ATOM     20  C   UNL     1       8.685  -0.291 -11.649  0.00  0.00    +0.053 A 
ATOM     21 CL   UNL     1       9.501   1.078 -10.961  0.00  0.00    -0.083 Cl
ENDBRANCH  11  15
BRANCH   1  23
ATOM     22  N   UNL     1       2.997  -0.332  -5.644  0.00  0.00    -0.315 N 
ATOM     23  C   UNL     1       3.221  -0.052  -6.943  0.00  0.00    +0.218 C 
ATOM     24  O   UNL     1       2.296   0.245  -7.668  0.00  0.00    -0.275 OA
ATOM     25  H   UNL     1       3.738  -0.571  -5.064  0.00  0.00    +0.149 HD
BRANCH  22  26
ATOM     26  C   UNL     1       1.635  -0.277  -5.108  0.00  0.00    +0.109 C 
BRANCH  26  27
ATOM     27  C   UNL     1       1.658  -0.636  -3.620  0.00  0.00    +0.056 C 
BRANCH  27  35
ATOM     28  C   UNL     1      -1.875  -5.125  -4.049  0.00  0.00    +0.044 C 
ATOM     29  C   UNL     1      -1.869  -3.721  -3.499  0.00  0.00    -0.050 A 
ATOM     30  C   UNL     1      -3.003  -3.222  -2.874  0.00  0.00    +0.005 A 
ATOM     31  C   UNL     1      -3.019  -1.942  -2.366  0.00  0.00    +0.026 A 
ATOM     32  C   UNL     1      -1.888  -1.139  -2.478  0.00  0.00    +0.047 A 
ATOM     33  N   UNL     1      -1.595   0.147  -2.084  0.00  0.00    -0.360 N 
ATOM     34  C   UNL     1      -0.314   0.463  -2.444  0.00  0.00    +0.087 A 
ATOM     35  C   UNL     1       0.257  -0.579  -3.068  0.00  0.00    -0.021 A 
ATOM     36  C   UNL     1      -0.741  -1.651  -3.112  0.00  0.00    +0.003 A 
ATOM     37  C   UNL     1      -0.745  -2.953  -3.615  0.00  0.00    +0.013 A 
ATOM     38  H   UNL     1      -2.207   0.741  -1.621  0.00  0.00    +0.165 HD
ENDBRANCH  27  35
ENDBRANCH  26  27
ENDBRANCH  22  26
ENDBRANCH   1  23
TORSDOF 5
