REMARK  Name = ZINC04182722
REMARK  10 active torsions:
REMARK  status: ('A' for Active; 'I' for Inactive)
REMARK    1  A    between atoms: C_1  and  C_2
REMARK    2  A    between atoms: C_2  and  C_4
REMARK    3  A    between atoms: C_2  and  N_14
REMARK    4  A    between atoms: N_14  and  C_15
REMARK    5  A    between atoms: C_15  and  N_17
REMARK    6  A    between atoms: N_17  and  C_18
REMARK    7  A    between atoms: C_18  and  C_19
REMARK    8  A    between atoms: C_19  and  C_20
REMARK    9  A    between atoms: C_23  and  S_26
REMARK   10  A    between atoms: S_26  and  N_29
REMARK                            x       y       z     vdW  Elec       q    Type
REMARK                         _______ _______ _______ _____ _____    ______ ____
ROOT
ATOM      1  C   UNL     1       0.006  -0.608  -2.358  0.00  0.00    +0.130 C 
ATOM      2  S   UNL     1      -1.661  -0.223  -2.417  0.00  0.00    -0.019 S 
ENDROOT
BRANCH   1   3
ATOM      3  N   UNL     1       0.688  -0.476  -1.203  0.00  0.00    -0.323 N 
ATOM      4  H   UNL     1       1.632  -0.695  -1.170  0.00  0.00    +0.148 HD
BRANCH   3   6
ATOM      5  C   UNL     1      -0.019   1.526   0.010  0.00  0.00    +0.028 C 
ATOM      6  C   UNL     1       0.002  -0.004   0.002  0.00  0.00    +0.075 C 
BRANCH   6   7
ATOM      7  C   UNL     1       0.742  -0.511   1.242  0.00  0.00    -0.010 C 
ATOM      8  C   UNL     1       0.763  -2.041   1.233  0.00  0.00    +0.012 C 
ATOM      9  C   UNL     1       1.503  -2.548   2.473  0.00  0.00    -0.010 C 
ATOM     10  C   UNL     1       0.787  -2.054   3.732  0.00  0.00    +0.007 C 
ATOM     11  C   UNL     1       0.766  -0.524   3.740  0.00  0.00    -0.010 C 
ATOM     12  C   UNL     1       0.026  -0.018   2.500  0.00  0.00    +0.012 C 
ATOM     13  C   UNL     1       2.201   0.005   3.729  0.00  0.00    +0.007 C 
ATOM     14  C   UNL     1       2.917  -0.488   2.470  0.00  0.00    -0.010 C 
ATOM     15  C   UNL     1       2.938  -2.018   2.462  0.00  0.00    +0.007 C 
ATOM     16  C   UNL     1       2.178   0.019   1.231  0.00  0.00    +0.012 C 
ENDBRANCH   6   7
ENDBRANCH   3   6
ENDBRANCH   1   3
BRANCH   1  17
ATOM     17  N   UNL     1       0.637  -1.043  -3.467  0.00  0.00    -0.326 N 
ATOM     18  H   UNL     1       1.582  -1.261  -3.434  0.00  0.00    +0.148 HD
BRANCH  17  19
ATOM     19  C   UNL     1      -0.104  -1.186  -4.723  0.00  0.00    +0.108 C 
BRANCH  19  20
ATOM     20  C   UNL     1       0.839  -1.692  -5.817  0.00  0.00    +0.054 C 
BRANCH  20  21
ATOM     21  C   UNL     1       0.077  -1.839  -7.109  0.00  0.00    -0.046 A 
ATOM     22  C   UNL     1      -0.548  -3.034  -7.410  0.00  0.00    +0.005 A 
ATOM     23  C   UNL     1      -1.248  -3.169  -8.595  0.00  0.00    +0.029 A 
ATOM     24  C   UNL     1      -1.322  -2.108  -9.478  0.00  0.00    +0.105 A 
ATOM     25  C   UNL     1      -0.697  -0.913  -9.177  0.00  0.00    +0.029 A 
ATOM     26  C   UNL     1      -0.002  -0.776  -7.990  0.00  0.00    +0.005 A 
BRANCH  24  27
ATOM     27  S   UNL     1      -2.212  -2.281 -10.989  0.00  0.00    +0.056 S 
ATOM     28  O   UNL     1      -1.673  -1.323 -11.890  0.00  0.00    -0.153 OA
ATOM     29  O   UNL     1      -2.245  -3.671 -11.284  0.00  0.00    -0.153 OA
BRANCH  27  30
ATOM     30  N   UNL     1      -3.775  -1.823 -10.691  0.00  0.00    -0.204 NA
ATOM     31  H   UNL     1      -4.034  -1.531  -9.803  0.00  0.00    +0.144 HD
ATOM     32  H   UNL     1      -4.432  -1.847 -11.405  0.00  0.00    +0.144 HD
ENDBRANCH  27  30
ENDBRANCH  24  27
ENDBRANCH  20  21
ENDBRANCH  19  20
ENDBRANCH  17  19
ENDBRANCH   1  17
TORSDOF 9
