REMARK  Name = ZINC36506417
REMARK  8 active torsions:
REMARK  status: ('A' for Active; 'I' for Inactive)
REMARK    1  A    between atoms: C_3  and  C_6
REMARK    2  A    between atoms: C_6  and  N_7
REMARK    3  A    between atoms: N_7  and  C_8
REMARK    4  A    between atoms: C_8  and  C_10
REMARK    5  A    between atoms: C_8  and  C_16
REMARK    6  A    between atoms: N_18  and  C_19
REMARK    7  A    between atoms: C_25  and  C_27
REMARK    8  A    between atoms: C_30  and  N_33
REMARK                            x       y       z     vdW  Elec       q    Type
REMARK                         _______ _______ _______ _____ _____    ______ ____
ROOT
ATOM      1  N   UNL     1       4.201   0.801   2.021  0.00  0.00    -0.278 N 
ATOM      2  C   UNL     1       5.378   1.455   1.951  0.00  0.00    +0.248 C 
ATOM      3  O   UNL     1       6.404   0.896   2.285  0.00  0.00    -0.270 OA
ENDROOT
BRANCH   2   4
ATOM      4  C   UNL     1       5.421   2.852   1.468  0.00  0.00    +0.037 A 
ATOM      5  C   UNL     1       4.537   3.277   0.475  0.00  0.00    +0.015 A 
ATOM      6  C   UNL     1       4.581   4.582   0.029  0.00  0.00    +0.033 A 
ATOM      7  C   UNL     1       5.500   5.468   0.563  0.00  0.00    +0.126 A 
ATOM      8  C   UNL     1       6.380   5.052   1.547  0.00  0.00    +0.033 A 
ATOM      9  C   UNL     1       6.341   3.752   2.006  0.00  0.00    +0.015 A 
BRANCH   7  10
ATOM     10  N   UNL     1       5.543   6.866   0.080  0.00  0.00    +0.056 N 
ATOM     11  O   UNL     1       4.776   7.232  -0.780  0.00  0.00    -0.126 OA
ATOM     12  O   UNL     1       6.345   7.642   0.544  0.00  0.00    -0.126 OA
ENDBRANCH   7  10
ENDBRANCH   2   4
BRANCH   1  13
ATOM     13  C   UNL     1       2.952   1.511   1.735  0.00  0.00    +0.183 C 
BRANCH  13  16
ATOM     14  C   UNL     1       1.079   0.390  -1.235  0.00  0.00    +0.041 A 
ATOM     15  C   UNL     1       1.135   0.751   0.131  0.00  0.00    +0.046 A 
ATOM     16  C   UNL     1       2.415   1.065   0.399  0.00  0.00    +0.122 A 
ATOM     17  O   UNL     1       3.134   0.914  -0.725  0.00  0.00    -0.466 OA
ATOM     18  C   UNL     1       2.329   0.505  -1.719  0.00  0.00    +0.195 A 
ENDBRANCH  13  16
ENDBRANCH   1  13
BRANCH   1  19
ATOM     19  C   UNL     1       4.172  -0.618   2.382  0.00  0.00    +0.166 C 
BRANCH  19  20
ATOM     20  C   UNL     1       2.752  -1.009   2.796  0.00  0.00    +0.019 C 
ATOM     21  C   UNL     1       2.681  -2.523   3.006  0.00  0.00    +0.006 C 
ATOM     22  C   UNL     1       1.261  -2.915   3.421  0.00  0.00    +0.000 C 
ATOM     23  C   UNL     1       0.895  -2.201   4.724  0.00  0.00    +0.000 C 
ATOM     24  C   UNL     1       0.966  -0.688   4.514  0.00  0.00    +0.000 C 
ATOM     25  C   UNL     1       2.386  -0.296   4.099  0.00  0.00    +0.006 C 
ENDBRANCH  19  20
BRANCH  19  26
ATOM     26  C   UNL     1       4.596  -1.447   1.197  0.00  0.00    +0.234 C 
ATOM     27  O   UNL     1       4.522  -0.986   0.077  0.00  0.00    -0.274 OA
ATOM     28  N   UNL     1       5.057  -2.700   1.381  0.00  0.00    -0.311 N 
ATOM     29  H   UNL     1       5.055  -3.092   2.269  0.00  0.00    +0.149 HD
BRANCH  28  30
ATOM     30  C   UNL     1       5.560  -3.470   0.241  0.00  0.00    +0.073 C 
ATOM     31  C   UNL     1       4.391  -4.161  -0.464  0.00  0.00    +0.022 C 
ATOM     32  C   UNL     1       4.917  -4.966  -1.654  0.00  0.00    +0.002 C 
ATOM     33  C   UNL     1       5.909  -6.020  -1.159  0.00  0.00    +0.000 C 
ATOM     34  C   UNL     1       7.078  -5.329  -0.454  0.00  0.00    +0.002 C 
ATOM     35  C   UNL     1       6.552  -4.525   0.737  0.00  0.00    +0.022 C 
ENDBRANCH  28  30
ENDBRANCH  19  26
ENDBRANCH   1  19
TORSDOF 8
