REMARK  Name = ZINC21138371
REMARK  17 active torsions:
REMARK  status: ('A' for Active; 'I' for Inactive)
REMARK    1  A    between atoms: C_1  and  C_2
REMARK    2  A    between atoms: C_6  and  C_33
REMARK    3  A    between atoms: C_7  and  N_8
REMARK    4  A    between atoms: C_9  and  C_11
REMARK    5  A    between atoms: C_11  and  S_12
REMARK    6  A    between atoms: S_12  and  C_13
REMARK    7  A    between atoms: N_23  and  C_24
REMARK    8  A    between atoms: C_24  and  C_25
REMARK    9  A    between atoms: C_25  and  N_26
REMARK   10  A    between atoms: N_26  and  C_27
REMARK   11  A    between atoms: N_26  and  C_30
REMARK   12  A    between atoms: C_27  and  C_28
REMARK   13  A    between atoms: C_27  and  C_29
REMARK   14  A    between atoms: C_30  and  C_31
REMARK   15  A    between atoms: C_30  and  C_32
REMARK   16  A    between atoms: C_33  and  C_34
REMARK   17  A    between atoms: C_33  and  C_35
REMARK                            x       y       z     vdW  Elec       q    Type
REMARK                         _______ _______ _______ _____ _____    ______ ____
ROOT
ATOM      1  C   UNL     1      -0.992  -2.227   0.069  0.00  0.00    +0.173 A 
ATOM      2  N   UNL     1      -0.839  -1.641  -1.093  0.00  0.00    -0.223 NA
ATOM      3  C   UNL     1       0.367  -1.558  -1.689  0.00  0.00    +0.079 A 
ATOM      4  C   UNL     1       0.531  -0.932  -2.929  0.00  0.00    +0.028 A 
ATOM      5  C   UNL     1       1.772  -0.871  -3.497  0.00  0.00    +0.002 A 
ATOM      6  C   UNL     1       2.877  -1.421  -2.861  0.00  0.00    +0.001 A 
ATOM      7  C   UNL     1       2.749  -2.040  -1.648  0.00  0.00    +0.015 A 
ATOM      8  C   UNL     1       1.494  -2.117  -1.045  0.00  0.00    +0.065 A 
ATOM      9  C   UNL     1       1.297  -2.769   0.257  0.00  0.00    +0.262 A 
ATOM     10  O   UNL     1       2.228  -3.269   0.860  0.00  0.00    -0.267 OA
ATOM     11  N   UNL     1       0.041  -2.793   0.759  0.00  0.00    -0.289 N 
ENDROOT
BRANCH   1  12
ATOM     12  S   UNL     1      -2.607  -2.287   0.772  0.00  0.00    -0.078 S 
BRANCH  12  13
ATOM     13  C   UNL     1      -3.543  -1.424  -0.514  0.00  0.00    +0.173 C 
BRANCH  13  15
ATOM     14  N   UNL     1      -5.886  -0.750  -0.927  0.00  0.00    -0.284 N 
ATOM     15  C   UNL     1      -4.995  -1.353  -0.117  0.00  0.00    +0.228 C 
ATOM     16  O   UNL     1      -5.360  -1.839   0.933  0.00  0.00    -0.275 OA
ATOM     17  H   UNL     1      -5.562  -0.346  -1.898  0.00  0.00    +0.155 HD
BRANCH  14  24
ATOM     18  C   UNL     1      -7.310  -3.135  -0.306  0.00  0.00    +0.045 C 
ATOM     19  C   UNL     1      -7.956  -1.776  -0.222  0.00  0.00    -0.029 A 
ATOM     20  C   UNL     1      -9.275  -1.661   0.171  0.00  0.00    +0.005 A 
ATOM     21  C   UNL     1      -9.871  -0.415   0.242  0.00  0.00    +0.001 A 
ATOM     22  C   UNL     1      -9.147   0.720  -0.074  0.00  0.00    +0.006 A 
ATOM     23  C   UNL     1      -7.826   0.612  -0.462  0.00  0.00    -0.023 A 
ATOM     24  C   UNL     1      -7.225  -0.638  -0.535  0.00  0.00    +0.040 A 
BRANCH  23  25
ATOM     25  C   UNL     1      -7.037   1.850  -0.806  0.00  0.00    +0.015 C 
ATOM     26  C   UNL     1      -7.708   2.573  -1.975  0.00  0.00    +0.012 C 
ATOM     27  C   UNL     1      -6.991   2.779   0.409  0.00  0.00    +0.012 C 
ENDBRANCH  23  25
ENDBRANCH  14  24
ENDBRANCH  13  15
ENDBRANCH  12  13
ENDBRANCH   1  12
BRANCH  11  28
ATOM     28  C   UNL     1      -0.213  -3.430   2.054  0.00  0.00    +0.109 C 
BRANCH  28  29
ATOM     29  C   UNL     1      -0.058  -2.396   3.171  0.00  0.00    -0.056 C 
BRANCH  29  30
ATOM     30  N   UNL     1      -0.312  -3.035   4.469  0.00  0.00    +0.384 N 
ATOM     31  H   UNL     1       0.321  -3.932   4.533  0.00  0.00    -0.081 HD
BRANCH  30  32
ATOM     32  C   UNL     1       0.055  -2.142   5.576  0.00  0.00    -0.074 C 
ATOM     33  C   UNL     1       1.552  -2.276   5.864  0.00  0.00    -0.014 C 
ATOM     34  C   UNL     1      -0.264  -0.696   5.192  0.00  0.00    -0.014 C 
ENDBRANCH  30  32
BRANCH  30  35
ATOM     35  C   UNL     1      -1.713  -3.462   4.580  0.00  0.00    -0.074 C 
ATOM     36  C   UNL     1      -1.873  -4.378   5.795  0.00  0.00    -0.014 C 
ATOM     37  C   UNL     1      -2.610  -2.234   4.747  0.00  0.00    -0.014 C 
ENDBRANCH  30  35
ENDBRANCH  29  30
ENDBRANCH  28  29
ENDBRANCH  11  28
TORSDOF 10
