REMARK  Name = ZINC40065906
REMARK  12 active torsions:
REMARK  status: ('A' for Active; 'I' for Inactive)
REMARK    1  A    between atoms: C_1  and  C_2
REMARK    2  A    between atoms: C_2  and  C_3
REMARK    3  A    between atoms: C_3  and  C_4
REMARK    4  A    between atoms: C_4  and  O_5
REMARK    5  A    between atoms: O_5  and  C_6
REMARK    6  A    between atoms: C_9  and  C_15
REMARK    7  A    between atoms: C_11  and  O_12
REMARK    8  A    between atoms: O_12  and  C_13
REMARK    9  A    between atoms: C_13  and  C_14
REMARK   10  A    between atoms: C_23  and  C_38
REMARK   11  A    between atoms: C_24  and  C_37
REMARK   12  A    between atoms: C_34  and  C_36
REMARK                            x       y       z     vdW  Elec       q    Type
REMARK                         _______ _______ _______ _____ _____    ______ ____
ROOT
ATOM      1  C   UNL     1       1.903  -8.101   2.992  0.00  0.00    +0.152 C 
ATOM      2  C   UNL     1       2.998  -8.626   2.122  0.00  0.00    +0.072 A 
ATOM      3  C   UNL     1       4.435  -8.335   2.096  0.00  0.00    +0.199 A 
ATOM      4  O   UNL     1       5.001  -7.690   2.961  0.00  0.00    -0.287 OA
ATOM      5  C   UNL     1       5.134  -8.902   0.915  0.00  0.00    +0.065 A 
ATOM      6  C   UNL     1       6.455  -8.550   0.641  0.00  0.00    +0.015 A 
ATOM      7  C   UNL     1       7.084  -9.076  -0.453  0.00  0.00    +0.004 A 
ATOM      8  C   UNL     1       6.412  -9.957  -1.289  0.00  0.00    -0.044 A 
ATOM      9  C   UNL     1       5.108 -10.317  -1.032  0.00  0.00    -0.005 A 
ATOM     10  C   UNL     1       4.445  -9.796   0.080  0.00  0.00    +0.143 A 
ATOM     11  O   UNL     1       3.168 -10.171   0.318  0.00  0.00    -0.449 OA
ATOM     12  C   UNL     1       2.442  -9.511   1.242  0.00  0.00    +0.199 A 
ATOM     13  C   UNL     1       0.995  -9.580   1.508  0.00  0.00    +0.289 C 
ATOM     14  O   UNL     1       0.207 -10.274   0.896  0.00  0.00    -0.266 OA
ATOM     15  N   UNL     1       0.670  -8.760   2.530  0.00  0.00    -0.230 N 
ATOM     16  C   UNL     1      -0.601  -8.571   3.055  0.00  0.00    +0.191 A 
ATOM     17  N   UNL     1      -1.008  -7.789   4.045  0.00  0.00    -0.125 NA
ATOM     18  N   UNL     1      -2.218  -7.737   4.398  0.00  0.00    -0.145 NA
ATOM     19  C   UNL     1      -3.153  -8.455   3.807  0.00  0.00    +0.101 A 
ATOM     20  S   UNL     1      -2.163  -9.308   2.583  0.00  0.00    -0.035 S 
ATOM     21  C   UNL     1      -4.633  -8.532   4.080  0.00  0.00    +0.075 C 
ATOM     22  C   UNL     1       4.396 -11.274  -1.953  0.00  0.00    +0.048 C 
ATOM     23  C   UNL     1       7.118 -10.527  -2.492  0.00  0.00    +0.044 C 
ENDROOT
BRANCH   1  27
ATOM     24  C   UNL     1       1.563  -3.862   2.537  0.00  0.00    +0.162 A 
ATOM     25  C   UNL     1       1.021  -4.710   1.584  0.00  0.00    +0.050 A 
ATOM     26  C   UNL     1       1.133  -6.079   1.734  0.00  0.00    +0.009 A 
ATOM     27  C   UNL     1       1.784  -6.606   2.833  0.00  0.00    -0.018 A 
ATOM     28  C   UNL     1       2.326  -5.766   3.788  0.00  0.00    +0.055 A 
ATOM     29  C   UNL     1       2.223  -4.393   3.641  0.00  0.00    +0.162 A 
BRANCH  24  30
ATOM     30  O   UNL     1       1.454  -2.514   2.391  0.00  0.00    -0.488 OA
BRANCH  30  31
ATOM     31  C   UNL     1       0.763  -2.041   1.233  0.00  0.00    +0.229 C 
BRANCH  31  32
ATOM     32  C   UNL     1       0.742  -0.511   1.242  0.00  0.00    +0.041 C 
BRANCH  32  34
ATOM     33  C   UNL     1      -0.019   1.526   0.010  0.00  0.00    +0.004 C 
ATOM     34  C   UNL     1       0.002  -0.004   0.002  0.00  0.00    -0.000 C 
ENDBRANCH  32  34
ENDBRANCH  31  32
ENDBRANCH  30  31
ENDBRANCH  24  30
BRANCH  29  35
ATOM     35  O   UNL     1       2.761  -3.565   4.576  0.00  0.00    -0.489 OA
BRANCH  35  36
ATOM     36  C   UNL     1       3.424  -4.180   5.682  0.00  0.00    +0.226 C 
ATOM     37  C   UNL     1       3.960  -3.097   6.622  0.00  0.00    +0.048 C 
ENDBRANCH  35  36
ENDBRANCH  29  35
ENDBRANCH   1  27
TORSDOF 7
