REMARK  Name = ZINC01161538
REMARK  5 active torsions:
REMARK  status: ('A' for Active; 'I' for Inactive)
REMARK    1  A    between atoms: C_1  and  O_2
REMARK    2  A    between atoms: O_2  and  C_3
REMARK    3  A    between atoms: C_6  and  C_9
REMARK    4  A    between atoms: C_17  and  C_18
REMARK    5  A    between atoms: C_19  and  C_20
REMARK                            x       y       z     vdW  Elec       q    Type
REMARK                         _______ _______ _______ _____ _____    ______ ____
ROOT
ATOM      1  C   UNL     1      -5.450   3.266   0.047  0.00  0.00    +0.183 A 
ATOM      2  N   UNL     1      -4.407   4.110   0.045  0.00  0.00    -0.200 NA
ATOM      3  C   UNL     1      -3.299   3.424   0.036  0.00  0.00    +0.200 A 
ATOM      4  N   UNL     1      -3.584   2.088   0.031  0.00  0.00    -0.169 N 
ATOM      5  N   UNL     1      -5.005   2.034   0.038  0.00  0.00    -0.141 NA
ATOM      6  C   UNL     1      -2.572   1.210   0.015  0.00  0.00    +0.288 A 
ATOM      7  O   UNL     1      -2.780   0.010   0.003  0.00  0.00    -0.265 OA
ATOM      8  C   UNL     1      -1.204   1.742   0.017  0.00  0.00    +0.082 A 
ATOM      9  C   UNL     1      -0.013   1.076   0.008  0.00  0.00    +0.020 C 
ATOM     10  S   UNL     1      -1.523   3.501   0.028  0.00  0.00    -0.044 S 
ENDROOT
BRANCH   1  14
ATOM     11  C   UNL     1      -9.547   4.409   0.074  0.00  0.00    +0.120 A 
ATOM     12  C   UNL     1      -8.556   5.382   0.073  0.00  0.00    +0.046 A 
ATOM     13  C   UNL     1      -7.227   5.014   0.064  0.00  0.00    +0.015 A 
ATOM     14  C   UNL     1      -6.879   3.665   0.056  0.00  0.00    +0.021 A 
ATOM     15  C   UNL     1      -7.876   2.690   0.051  0.00  0.00    +0.015 A 
ATOM     16  C   UNL     1      -9.203   3.064   0.066  0.00  0.00    +0.046 A 
BRANCH  11  18
ATOM     17  C   UNL     1     -11.823   3.722   0.083  0.00  0.00    +0.277 C 
ATOM     18  O   UNL     1     -10.856   4.774   0.083  0.00  0.00    -0.495 OA
ENDBRANCH  11  18
ENDBRANCH   1  14
BRANCH   9  19
ATOM     19  C   UNL     1       1.197   1.796   0.000  0.00  0.00    +0.002 C 
ATOM     20  C   UNL     1       2.379   1.135  -0.015  0.00  0.00    +0.008 C 
BRANCH  20  21
ATOM     21  C   UNL     1       3.642   1.887  -0.023  0.00  0.00    -0.025 A 
ATOM     22  C   UNL     1       3.628   3.287  -0.021  0.00  0.00    +0.008 A 
ATOM     23  C   UNL     1       4.816   3.985  -0.024  0.00  0.00    +0.001 A 
ATOM     24  C   UNL     1       6.022   3.305  -0.039  0.00  0.00    +0.000 A 
ATOM     25  C   UNL     1       6.046   1.921  -0.046  0.00  0.00    +0.001 A 
ATOM     26  C   UNL     1       4.866   1.208  -0.038  0.00  0.00    +0.008 A 
ENDBRANCH  20  21
ENDBRANCH   9  19
TORSDOF 4
