REMARK  Name = ZINC36633029
REMARK  12 active torsions:
REMARK  status: ('A' for Active; 'I' for Inactive)
REMARK    1  A    between atoms: C_1  and  C_2
REMARK    2  A    between atoms: C_2  and  O_3
REMARK    3  A    between atoms: O_3  and  C_4
REMARK    4  A    between atoms: C_4  and  C_6
REMARK    5  A    between atoms: C_10  and  N_11
REMARK    6  A    between atoms: C_12  and  C_14
REMARK    7  A    between atoms: C_17  and  S_20
REMARK    8  A    between atoms: S_20  and  N_23
REMARK    9  A    between atoms: N_23  and  C_24
REMARK   10  A    between atoms: N_23  and  C_25
REMARK   11  A    between atoms: C_25  and  C_26
REMARK   12  A    between atoms: C_33  and  C_37
REMARK                            x       y       z     vdW  Elec       q    Type
REMARK                         _______ _______ _______ _____ _____    ______ ____
ROOT
ATOM      1  N   UNL     1      -0.603  -2.454  -3.925  0.00  0.00    -0.275 N 
ATOM      2  C   UNL     1      -1.117  -2.782  -5.127  0.00  0.00    +0.249 C 
ATOM      3  O   UNL     1      -0.394  -3.226  -5.997  0.00  0.00    -0.270 OA
ATOM      4  H   UNL     1      -1.180  -2.100  -3.231  0.00  0.00    +0.156 HD
ENDROOT
BRANCH   1   9
ATOM      5  C   UNL     1       1.449  -2.344  -2.516  0.00  0.00    +0.091 A 
ATOM      6  C   UNL     1       2.875  -2.619  -2.515  0.00  0.00    -0.021 A 
ATOM      7  C   UNL     1       3.342  -3.118  -3.680  0.00  0.00    -0.004 A 
ATOM      8  S   UNL     1       1.922  -3.213  -4.730  0.00  0.00    -0.077 S 
ATOM      9  C   UNL     1       0.750  -2.624  -3.682  0.00  0.00    +0.087 A 
ATOM     10  C   UNL     1       4.756  -3.499  -3.993  0.00  0.00    +0.046 C 
ATOM     11  C   UNL     1       5.669  -2.888  -2.920  0.00  0.00    -0.009 C 
ATOM     12  C   UNL     1       5.082  -3.191  -1.538  0.00  0.00    +0.008 C 
ATOM     13  C   UNL     1       3.799  -2.383  -1.329  0.00  0.00    +0.037 C 
ATOM     14  C   UNL     1       7.068  -3.498  -3.029  0.00  0.00    +0.008 C 
BRANCH   5  15
ATOM     15  C   UNL     1       0.776  -1.800  -1.335  0.00  0.00    +0.342 C 
ATOM     16  O   UNL     1       0.312  -2.552  -0.499  0.00  0.00    -0.245 OA
BRANCH  15  17
ATOM     17  O   UNL     1       0.671  -0.465  -1.174  0.00  0.00    -0.461 OA
BRANCH  17  19
ATOM     18  C   UNL     1      -0.019   1.526   0.010  0.00  0.00    +0.048 C 
ATOM     19  C   UNL     1       0.002  -0.004   0.002  0.00  0.00    +0.229 C 
ENDBRANCH  17  19
ENDBRANCH  15  17
ENDBRANCH   5  15
ENDBRANCH   1   9
BRANCH   2  20
ATOM     20  C   UNL     1      -2.561  -2.601  -5.387  0.00  0.00    +0.037 A 
ATOM     21  C   UNL     1      -3.393  -2.086  -4.391  0.00  0.00    +0.015 A 
ATOM     22  C   UNL     1      -4.740  -1.919  -4.641  0.00  0.00    +0.029 A 
ATOM     23  C   UNL     1      -5.266  -2.261  -5.874  0.00  0.00    +0.106 A 
ATOM     24  C   UNL     1      -4.446  -2.773  -6.865  0.00  0.00    +0.029 A 
ATOM     25  C   UNL     1      -3.097  -2.940  -6.630  0.00  0.00    +0.015 A 
BRANCH  23  26
ATOM     26  S   UNL     1      -6.987  -2.045  -6.184  0.00  0.00    +0.061 S 
ATOM     27  O   UNL     1      -7.328  -2.949  -7.226  0.00  0.00    -0.153 OA
ATOM     28  O   UNL     1      -7.633  -2.063  -4.918  0.00  0.00    -0.153 OA
BRANCH  26  29
ATOM     29  N   UNL     1      -7.186  -0.519  -6.796  0.00  0.00    -0.177 NA
ATOM     30  C   UNL     1      -7.119  -0.296  -8.242  0.00  0.00    +0.131 C 
BRANCH  29  31
ATOM     31  C   UNL     1      -7.429   0.607  -5.891  0.00  0.00    +0.140 C 
BRANCH  31  32
ATOM     32  C   UNL     1      -6.104   1.302  -5.574  0.00  0.00    +0.134 C 
ATOM     33  C   UNL     1      -6.334   2.476  -4.590  0.00  0.00    +0.035 C 
ATOM     34  C   UNL     1      -4.932   2.588  -3.931  0.00  0.00    +0.031 C 
ATOM     35  C   UNL     1      -4.466   1.117  -3.899  0.00  0.00    +0.160 C 
ATOM     36  O   UNL     1      -5.220   0.401  -4.887  0.00  0.00    -0.375 OA
ENDBRANCH  31  32
ENDBRANCH  29  31
ENDBRANCH  26  29
ENDBRANCH  23  26
ENDBRANCH   2  20
TORSDOF 9
