REMARK  Name = ZINC38845272
REMARK  16 active torsions:
REMARK  status: ('A' for Active; 'I' for Inactive)
REMARK    1  A    between atoms: C_1  and  C_2
REMARK    2  A    between atoms: C_2  and  N_3
REMARK    3  A    between atoms: N_3  and  C_4
REMARK    4  A    between atoms: N_3  and  C_6
REMARK    5  A    between atoms: C_4  and  C_5
REMARK    6  A    between atoms: C_6  and  C_7
REMARK    7  A    between atoms: C_7  and  N_8
REMARK    8  A    between atoms: C_17  and  S_18
REMARK    9  A    between atoms: S_18  and  C_21
REMARK   10  A    between atoms: C_22  and  C_24
REMARK   11  A    between atoms: C_26  and  O_34
REMARK   12  A    between atoms: C_27  and  O_32
REMARK   13  A    between atoms: C_28  and  O_30
REMARK   14  A    between atoms: O_30  and  C_31
REMARK   15  A    between atoms: O_32  and  C_33
REMARK   16  A    between atoms: O_34  and  C_35
REMARK                            x       y       z     vdW  Elec       q    Type
REMARK                         _______ _______ _______ _____ _____    ______ ____
ROOT
ATOM      1  N   UNL     1       0.942  -3.246  -0.600  0.00  0.00    -0.248 N 
ATOM      2  C   UNL     1      -0.089  -3.932  -1.218  0.00  0.00    +0.168 A 
ATOM      3  N   UNL     1      -0.022  -4.874  -2.130  0.00  0.00    -0.222 NA
ATOM      4  C   UNL     1      -1.121  -5.462  -2.650  0.00  0.00    +0.105 A 
ATOM      5  C   UNL     1      -2.359  -4.997  -2.148  0.00  0.00    +0.043 A 
ATOM      6  S   UNL     1      -1.852  -3.766  -0.971  0.00  0.00    -0.052 S 
ATOM      7  C   UNL     1      -3.564  -5.493  -2.575  0.00  0.00    +0.017 A 
ATOM      8  C   UNL     1      -3.591  -6.489  -3.535  0.00  0.00    +0.003 A 
ATOM      9  C   UNL     1      -2.396  -6.969  -4.050  0.00  0.00    +0.029 A 
ATOM     10  C   UNL     1      -1.187  -6.479  -3.629  0.00  0.00    +0.114 A 
ATOM     11  C   UNL     1       2.222  -3.518  -0.925  0.00  0.00    +0.252 C 
ATOM     12  O   UNL     1       2.468  -4.300  -1.823  0.00  0.00    -0.270 OA
ENDROOT
BRANCH  11  13
ATOM     13  C   UNL     1       3.324  -2.865  -0.192  0.00  0.00    +0.044 A 
ATOM     14  C   UNL     1       4.257  -3.639   0.503  0.00  0.00    +0.062 A 
ATOM     15  C   UNL     1       5.288  -3.026   1.189  0.00  0.00    +0.166 A 
ATOM     16  C   UNL     1       5.397  -1.638   1.188  0.00  0.00    +0.204 A 
ATOM     17  C   UNL     1       4.469  -0.864   0.497  0.00  0.00    +0.166 A 
ATOM     18  C   UNL     1       3.439  -1.473  -0.196  0.00  0.00    +0.062 A 
BRANCH  17  19
ATOM     19  O   UNL     1       4.579   0.491   0.498  0.00  0.00    -0.491 OA
ATOM     20  C   UNL     1       3.591   1.223  -0.232  0.00  0.00    +0.277 C 
ENDBRANCH  17  19
BRANCH  16  21
ATOM     21  O   UNL     1       6.412  -1.037   1.864  0.00  0.00    -0.488 OA
ATOM     22  C   UNL     1       7.625  -0.808   1.144  0.00  0.00    +0.277 C 
ENDBRANCH  16  21
BRANCH  15  23
ATOM     23  O   UNL     1       6.197  -3.779   1.865  0.00  0.00    -0.491 OA
ATOM     24  C   UNL     1       6.090  -5.198   1.734  0.00  0.00    +0.277 C 
ENDBRANCH  15  23
ENDBRANCH  11  13
BRANCH  10  25
ATOM     25  S   UNL     1       0.301  -7.125  -4.316  0.00  0.00    -0.004 S 
ATOM     26  O   UNL     1       1.103  -7.463  -3.192  0.00  0.00    -0.170 OA
ATOM     27  O   UNL     1      -0.125  -8.126  -5.229  0.00  0.00    -0.170 OA
ATOM     28  C   UNL     1       1.041  -5.734  -5.215  0.00  0.00    +0.200 C 
ENDBRANCH  10  25
BRANCH   1  29
ATOM     29  C   UNL     1       0.643  -2.226   0.407  0.00  0.00    +0.097 C 
BRANCH  29  30
ATOM     30  C   UNL     1       0.725  -2.847   1.803  0.00  0.00    -0.059 C 
BRANCH  30  31
ATOM     31  N   UNL     1       0.368  -1.838   2.810  0.00  0.00    +0.380 N 
ATOM     32  H   UNL     1       0.923  -1.008   2.665  0.00  0.00    -0.082 HD
BRANCH  31  34
ATOM     33  C   UNL     1      -1.415  -0.413   3.695  0.00  0.00    -0.017 C 
ATOM     34  C   UNL     1      -1.056  -1.504   2.684  0.00  0.00    -0.082 C 
ENDBRANCH  31  34
BRANCH  31  35
ATOM     35  C   UNL     1       0.630  -2.373   4.153  0.00  0.00    -0.082 C 
ATOM     36  C   UNL     1       2.126  -2.652   4.308  0.00  0.00    -0.017 C 
ENDBRANCH  31  35
ENDBRANCH  30  31
ENDBRANCH  29  30
ENDBRANCH   1  29
TORSDOF 10
