REMARK  Name = ZINC42860055
REMARK  5 active torsions:
REMARK  status: ('A' for Active; 'I' for Inactive)
REMARK    1  A    between atoms: C_1  and  C_2
REMARK    2  A    between atoms: C_8  and  C_10
REMARK    3  A    between atoms: C_10  and  N_11
REMARK    4  A    between atoms: N_11  and  C_12
REMARK    5  A    between atoms: C_17  and  N_18
REMARK                            x       y       z     vdW  Elec       q    Type
REMARK                         _______ _______ _______ _____ _____    ______ ____
ROOT
ATOM      1  C   UNL     1       0.340  -0.057   4.961  0.00  0.00    +0.050 A 
ATOM      2  C   UNL     1      -0.847   0.640   5.104  0.00  0.00    +0.048 A 
ATOM      3  C   UNL     1      -1.308   0.985   6.373  0.00  0.00    +0.039 A 
ATOM      4  C   UNL     1      -0.562   0.620   7.486  0.00  0.00    -0.016 A 
ATOM      5  C   UNL     1       0.620  -0.075   7.350  0.00  0.00    +0.030 A 
ATOM      6  C   UNL     1       1.078  -0.423   6.087  0.00  0.00    +0.046 A 
ATOM      7  C   UNL     1      -1.317   1.132   8.691  0.00  0.00    +0.133 C 
ATOM      8  C   UNL     1      -2.539   1.805   8.103  0.00  0.00    +0.222 C 
ATOM      9  O   UNL     1      -3.424   2.358   8.720  0.00  0.00    -0.275 OA
ATOM     10  N   UNL     1      -2.457   1.676   6.768  0.00  0.00    -0.285 N 
ATOM     11  H   UNL     1      -3.119   2.023   6.150  0.00  0.00    +0.155 HD
ENDROOT
BRANCH   6  12
ATOM     12  N   UNL     1       2.277  -1.135   5.943  0.00  0.00    -0.357 N 
ATOM     13  H   UNL     1       2.596  -1.375   5.059  0.00  0.00    +0.142 HD
ATOM     14  H   UNL     1       2.788  -1.389   6.728  0.00  0.00    +0.142 HD
ENDBRANCH   6  12
BRANCH   1  15
ATOM     15  N   UNL     1       0.799  -0.401   3.684  0.00  0.00    -0.342 N 
ATOM     16  H   UNL     1       1.629  -0.893   3.583  0.00  0.00    +0.146 HD
BRANCH  15  17
ATOM     17  C   UNL     1       0.026  -0.018   2.500  0.00  0.00    +0.105 C 
BRANCH  17  24
ATOM     18  C   UNL     1      -0.019   1.526   0.010  0.00  0.00    +0.008 C 
ATOM     19  C   UNL     1       0.002  -0.004   0.002  0.00  0.00    -0.010 C 
ATOM     20  C   UNL     1       0.718  -0.497  -1.257  0.00  0.00    +0.003 C 
ATOM     21  C   UNL     1       0.739  -2.027  -1.265  0.00  0.00    +0.000 C 
ATOM     22  C   UNL     1       1.479  -2.534  -0.026  0.00  0.00    +0.000 C 
ATOM     23  C   UNL     1       0.763  -2.041   1.233  0.00  0.00    +0.005 C 
ATOM     24  C   UNL     1       0.742  -0.511   1.242  0.00  0.00    +0.009 C 
ENDBRANCH  17  24
ENDBRANCH  15  17
ENDBRANCH   1  15
TORSDOF 4
