REMARK  Name = ZINC03409039
REMARK  12 active torsions:
REMARK  status: ('A' for Active; 'I' for Inactive)
REMARK    1  A    between atoms: C_1  and  S_2
REMARK    2  A    between atoms: S_2  and  C_3
REMARK    3  A    between atoms: C_3  and  C_4
REMARK    4  A    between atoms: C_4  and  C_5
REMARK    5  A    between atoms: C_5  and  C_7
REMARK    6  A    between atoms: C_5  and  N_19
REMARK    7  A    between atoms: C_7  and  O_9
REMARK    8  A    between atoms: O_9  and  C_10
REMARK    9  A    between atoms: C_10  and  C_11
REMARK   10  A    between atoms: C_11  and  C_13
REMARK   11  A    between atoms: C_20  and  C_22
REMARK   12  A    between atoms: C_25  and  N_29
REMARK                            x       y       z     vdW  Elec       q    Type
REMARK                         _______ _______ _______ _____ _____    ______ ____
ROOT
ATOM      1  C   UNL     1      -0.013   1.086   0.008  0.00  0.00    +0.183 C 
ENDROOT
BRANCH   1   2
ATOM      2  N   UNL     1      -0.721   1.571  -1.179  0.00  0.00    -0.298 N 
ATOM      3  C   UNL     1      -0.620   0.902  -2.344  0.00  0.00    +0.246 C 
ATOM      4  O   UNL     1       0.059  -0.104  -2.411  0.00  0.00    -0.270 OA
ATOM      5  H   UNL     1      -1.263   2.374  -1.126  0.00  0.00    +0.150 HD
BRANCH   3   6
ATOM      6  C   UNL     1      -1.335   1.391  -3.542  0.00  0.00    +0.055 A 
ATOM      7  C   UNL     1      -2.116   2.547  -3.469  0.00  0.00    +0.017 A 
ATOM      8  C   UNL     1      -2.780   2.999  -4.590  0.00  0.00    +0.033 A 
ATOM      9  C   UNL     1      -2.674   2.310  -5.786  0.00  0.00    +0.128 A 
ATOM     10  C   UNL     1      -1.903   1.165  -5.867  0.00  0.00    +0.053 A 
ATOM     11  C   UNL     1      -1.228   0.704  -4.753  0.00  0.00    +0.055 A 
ATOM     12 CL   UNL     1      -0.255  -0.730  -4.857  0.00  0.00    -0.083 Cl
BRANCH   9  13
ATOM     13  N   UNL     1      -3.389   2.802  -6.985  0.00  0.00    +0.056 N 
ATOM     14  O   UNL     1      -4.069   3.811  -6.917  0.00  0.00    -0.126 OA
ATOM     15  O   UNL     1      -3.298   2.199  -8.039  0.00  0.00    -0.126 OA
ENDBRANCH   9  13
ENDBRANCH   3   6
ENDBRANCH   1   2
BRANCH   1  16
ATOM     16  C   UNL     1      -0.718   1.572   1.248  0.00  0.00    +0.328 C 
ATOM     17  O   UNL     1      -1.711   2.254   1.150  0.00  0.00    -0.249 OA
BRANCH  16  18
ATOM     18  O   UNL     1      -0.243   1.247   2.461  0.00  0.00    -0.455 OA
BRANCH  18  19
ATOM     19  C   UNL     1      -0.974   1.750   3.611  0.00  0.00    +0.312 C 
BRANCH  19  20
ATOM     20  C   UNL     1      -0.298   1.288   4.876  0.00  0.00    +0.207 C 
ATOM     21  O   UNL     1       0.701   0.601   4.815  0.00  0.00    -0.288 OA
BRANCH  20  22
ATOM     22  C   UNL     1      -0.828   1.653   6.132  0.00  0.00    +0.059 A 
ATOM     23  C   UNL     1      -0.364   1.336   7.405  0.00  0.00    +0.020 A 
ATOM     24  C   UNL     1      -1.075   1.826   8.467  0.00  0.00    +0.028 A 
ATOM     25  C   UNL     1      -2.182   2.586   8.232  0.00  0.00    +0.079 A 
ATOM     26  S   UNL     1      -2.262   2.648   6.502  0.00  0.00    -0.074 S 
ATOM     27 CL   UNL     1      -3.250   3.321   9.387  0.00  0.00    -0.076 Cl
ENDBRANCH  20  22
ENDBRANCH  19  20
ENDBRANCH  18  19
ENDBRANCH  16  18
ENDBRANCH   1  16
BRANCH   1  28
ATOM     28  C   UNL     1       1.423   1.615  -0.003  0.00  0.00    +0.044 C 
BRANCH  28  29
ATOM     29  C   UNL     1       2.176   1.022  -1.195  0.00  0.00    +0.071 C 
BRANCH  29  31
ATOM     30  C   UNL     1       4.625   0.862  -2.661  0.00  0.00    +0.084 C 
ATOM     31  S   UNL     1       3.878   1.650  -1.208  0.00  0.00    -0.164 S 
ENDBRANCH  29  31
ENDBRANCH  28  29
ENDBRANCH   1  28
TORSDOF 11
