REMARK  Name = ZINC48361659
REMARK  12 active torsions:
REMARK  status: ('A' for Active; 'I' for Inactive)
REMARK    1  A    between atoms: C_1  and  C_2
REMARK    2  A    between atoms: C_2  and  C_3
REMARK    3  A    between atoms: C_3  and  C_4
REMARK    4  A    between atoms: C_4  and  N_5
REMARK    5  A    between atoms: N_5  and  C_6
REMARK    6  A    between atoms: C_7  and  N_18
REMARK    7  A    between atoms: N_8  and  C_15
REMARK    8  A    between atoms: C_15  and  C_16
REMARK    9  A    between atoms: C_16  and  C_17
REMARK   10  A    between atoms: C_19  and  C_21
REMARK   11  A    between atoms: C_21  and  N_22
REMARK   12  A    between atoms: C_30  and  C_35
REMARK                            x       y       z     vdW  Elec       q    Type
REMARK                         _______ _______ _______ _____ _____    ______ ____
ROOT
ATOM      1  N   UNL     1       1.420  -2.502  -2.465  0.00  0.00    -0.266 N 
ATOM      2  C   UNL     1       0.627  -2.825  -3.508  0.00  0.00    +0.203 C 
ATOM      3  O   UNL     1       1.109  -3.319  -4.506  0.00  0.00    -0.277 OA
ENDROOT
BRANCH   1   4
ATOM      4  C   UNL     1       2.820  -2.633  -2.575  0.00  0.00    +0.140 A 
ATOM      5  C   UNL     1       3.501  -3.555  -1.807  0.00  0.00    +0.127 A 
ATOM      6  N   UNL     1       4.867  -3.660  -1.937  0.00  0.00    -0.280 N 
ATOM      7  C   UNL     1       5.530  -2.873  -2.803  0.00  0.00    +0.331 A 
ATOM      8  O   UNL     1       6.737  -2.980  -2.903  0.00  0.00    -0.246 OA
ATOM      9  N   UNL     1       4.883  -1.969  -3.560  0.00  0.00    -0.273 N 
ATOM     10  H   UNL     1       5.385  -1.413  -4.177  0.00  0.00    +0.173 HD
ATOM     11  C   UNL     1       3.546  -1.830  -3.475  0.00  0.00    +0.277 A 
ATOM     12  O   UNL     1       2.968  -1.011  -4.170  0.00  0.00    -0.266 OA
BRANCH   5  13
ATOM     13  N   UNL     1       2.823  -4.359  -0.922  0.00  0.00    -0.343 N 
ATOM     14  H   UNL     1       1.872  -4.231  -0.782  0.00  0.00    +0.144 HD
ATOM     15  H   UNL     1       3.296  -5.053  -0.437  0.00  0.00    +0.144 HD
ENDBRANCH   5  13
BRANCH   6  16
ATOM     16  C   UNL     1       5.602  -4.634  -1.127  0.00  0.00    +0.128 C 
BRANCH  16  17
ATOM     17  C   UNL     1       5.684  -5.964  -1.879  0.00  0.00    +0.018 C 
ATOM     18  C   UNL     1       6.453  -6.982  -1.034  0.00  0.00    +0.005 C 
ENDBRANCH  16  17
ENDBRANCH   6  16
ENDBRANCH   1   4
BRANCH   1  19
ATOM     19  C   UNL     1       0.826  -2.014  -1.218  0.00  0.00    +0.114 C 
BRANCH  19  20
ATOM     20  C   UNL     1       0.816  -0.484  -1.221  0.00  0.00    +0.019 C 
BRANCH  20  22
ATOM     21  C   UNL     1       0.185   1.555   0.078  0.00  0.00    +0.004 C 
ATOM     22  C   UNL     1       0.195   0.025   0.081  0.00  0.00    -0.002 C 
ENDBRANCH  20  22
ENDBRANCH  19  20
ENDBRANCH   1  19
BRANCH   2  23
ATOM     23  C   UNL     1      -0.857  -2.572  -3.434  0.00  0.00    +0.020 C 
BRANCH  23  24
ATOM     24  N   UNL     1      -1.486  -3.005  -4.678  0.00  0.00    +0.388 N 
ATOM     25  C   UNL     1      -1.277  -4.458  -4.803  0.00  0.00    -0.078 C 
ATOM     26  C   UNL     1      -1.655  -4.917  -6.212  0.00  0.00    -0.018 C 
ATOM     27  C   UNL     1      -3.126  -4.559  -6.456  0.00  0.00    +0.000 C 
ATOM     28  C   UNL     1      -3.301  -3.057  -6.226  0.00  0.00    -0.024 C 
ATOM     29  C   UNL     1      -2.925  -2.705  -4.780  0.00  0.00    -0.062 C 
ATOM     30  C   UNL     1      -3.245  -1.264  -4.433  0.00  0.00    -0.027 C 
ATOM     31  C   UNL     1      -4.551  -0.729  -5.016  0.00  0.00    +0.002 C 
ATOM     32  C   UNL     1      -4.774  -1.116  -6.470  0.00  0.00    +0.000 C 
ATOM     33  C   UNL     1      -4.733  -2.648  -6.550  0.00  0.00    +0.002 C 
ATOM     34  C   UNL     1      -3.425  -1.120  -2.902  0.00  0.00    +0.006 C 
ATOM     35  H   UNL     1      -1.017  -2.553  -5.459  0.00  0.00    -0.081 HD
ENDBRANCH  23  24
ENDBRANCH   2  23
TORSDOF 9
