REMARK  Name = ZINC40622690
REMARK  7 active torsions:
REMARK  status: ('A' for Active; 'I' for Inactive)
REMARK    1  A    between atoms: C_6  and  C_7
REMARK    2  A    between atoms: N_9  and  N_10
REMARK    3  A    between atoms: C_12  and  N_26
REMARK    4  A    between atoms: C_13  and  N_17
REMARK    5  A    between atoms: N_17  and  C_18
REMARK    6  A    between atoms: C_18  and  C_19
REMARK    7  A    between atoms: C_19  and  N_20
REMARK                            x       y       z     vdW  Elec       q    Type
REMARK                         _______ _______ _______ _____ _____    ______ ____
ROOT
ATOM      1  N   UNL     1      -2.446  -2.831   0.011  0.00  0.00    -0.246 N 
ATOM      2  C   UNL     1      -2.424  -4.217   0.004  0.00  0.00    +0.171 A 
ATOM      3  C   UNL     1      -3.612  -4.942   0.006  0.00  0.00    +0.206 A 
ATOM      4  C   UNL     1      -3.537  -6.331  -0.003  0.00  0.00    +0.154 A 
ATOM      5  N   UNL     1      -2.338  -6.913  -0.013  0.00  0.00    -0.218 NA
ATOM      6  C   UNL     1      -1.236  -6.191  -0.014  0.00  0.00    +0.225 A 
ATOM      7  N   UNL     1      -1.266  -4.874  -0.011  0.00  0.00    -0.217 NA
ATOM      8  H   UNL     1      -3.294  -2.359   0.022  0.00  0.00    +0.172 HD
ENDROOT
BRANCH   1  11
ATOM      9  C   UNL     1      -1.266  -0.763   0.011  0.00  0.00    +0.260 C 
ATOM     10  O   UNL     1      -2.328  -0.172   0.024  0.00  0.00    -0.269 OA
ATOM     11  N   UNL     1      -1.244  -2.111   0.003  0.00  0.00    -0.231 N 
ATOM     12  H   UNL     1      -0.397  -2.583  -0.008  0.00  0.00    +0.173 HD
BRANCH   9  18
ATOM     13  C   UNL     1      -0.017   1.392   0.010  0.00  0.00    +0.014 A 
ATOM     14  C   UNL     1       1.170   2.095   0.002  0.00  0.00    +0.016 A 
ATOM     15  C   UNL     1       2.378   1.419  -0.013  0.00  0.00    +0.018 A 
ATOM     16  C   UNL     1       2.403   0.034  -0.021  0.00  0.00    +0.016 A 
ATOM     17  C   UNL     1       1.224  -0.680  -0.014  0.00  0.00    +0.014 A 
ATOM     18  C   UNL     1       0.002  -0.004   0.002  0.00  0.00    +0.038 A 
ATOM     19 BR   UNL     1       4.000   2.390  -0.024  0.00  0.00    -0.050 Br
ENDBRANCH   9  18
ENDBRANCH   1  11
BRANCH   3  20
ATOM     20  N   UNL     1      -4.923  -4.253   0.017  0.00  0.00    +0.063 N 
ATOM     21  O   UNL     1      -5.463  -3.965  -1.025  0.00  0.00    -0.126 OA
ATOM     22  O   UNL     1      -5.452  -3.978   1.069  0.00  0.00    -0.126 OA
ENDBRANCH   3  20
BRANCH   4  23
ATOM     23  N   UNL     1      -4.691  -7.098  -0.001  0.00  0.00    -0.329 N 
ATOM     24  H   UNL     1      -5.560  -6.667   0.007  0.00  0.00    +0.147 HD
BRANCH  23  25
ATOM     25  C   UNL     1      -4.599  -8.560  -0.010  0.00  0.00    +0.084 C 
BRANCH  25  26
ATOM     26  C   UNL     1      -6.006  -9.160  -0.005  0.00  0.00    -0.060 C 
BRANCH  26  27
ATOM     27  N   UNL     1      -5.914 -10.627  -0.014  0.00  0.00    +0.381 N 
ATOM     28  C   UNL     1      -5.298 -11.069  -1.271  0.00  0.00    -0.079 C 
ATOM     29  C   UNL     1      -5.125 -12.589  -1.252  0.00  0.00    -0.019 C 
ATOM     30  C   UNL     1      -6.497 -13.251  -1.093  0.00  0.00    -0.004 C 
ATOM     31  C   UNL     1      -7.161 -12.726   0.183  0.00  0.00    -0.019 C 
ATOM     32  C   UNL     1      -7.259 -11.201   0.111  0.00  0.00    -0.079 C 
ATOM     33  H   UNL     1      -5.345 -10.931   0.762  0.00  0.00    -0.082 HD
ENDBRANCH  26  27
ENDBRANCH  25  26
ENDBRANCH  23  25
ENDBRANCH   4  23
TORSDOF 7
