REMARK  Name = ZINC40035508
REMARK  11 active torsions:
REMARK  status: ('A' for Active; 'I' for Inactive)
REMARK    1  A    between atoms: C_1  and  C_2
REMARK    2  A    between atoms: C_2  and  C_3
REMARK    3  A    between atoms: C_3  and  C_38
REMARK    4  A    between atoms: N_15  and  C_31
REMARK    5  A    between atoms: N_18  and  N_19
REMARK    6  A    between atoms: C_20  and  C_21
REMARK    7  A    between atoms: C_25  and  O_29
REMARK    8  A    between atoms: C_26  and  O_27
REMARK    9  A    between atoms: O_27  and  C_28
REMARK   10  A    between atoms: O_29  and  C_30
REMARK   11  A    between atoms: C_34  and  C_37
REMARK                            x       y       z     vdW  Elec       q    Type
REMARK                         _______ _______ _______ _____ _____    ______ ____
ROOT
ATOM      1  C   UNL     1      -1.159  -1.120  -0.646  0.00  0.00    +0.004 C 
ATOM      2  C   UNL     1      -0.913  -2.624  -0.742  0.00  0.00    +0.047 C 
ATOM      3  C   UNL     1      -0.552  -3.187   0.606  0.00  0.00    -0.037 A 
ATOM      4  C   UNL     1       0.363  -4.215   0.712  0.00  0.00    +0.004 A 
ATOM      5  C   UNL     1       0.686  -4.730   1.954  0.00  0.00    +0.000 A 
ATOM      6  C   UNL     1       0.098  -4.221   3.098  0.00  0.00    +0.001 A 
ATOM      7  C   UNL     1      -0.819  -3.192   3.007  0.00  0.00    +0.010 A 
ATOM      8  C   UNL     1      -1.145  -2.670   1.759  0.00  0.00    +0.004 A 
ATOM      9  C   UNL     1      -2.116  -1.560   1.629  0.00  0.00    +0.084 A 
ATOM     10  C   UNL     1      -2.126  -0.811   0.461  0.00  0.00    +0.050 A 
ATOM     11  C   UNL     1      -3.051   0.233   0.337  0.00  0.00    +0.264 A 
ATOM     12  O   UNL     1      -3.092   0.912  -0.676  0.00  0.00    -0.267 OA
ATOM     13  N   UNL     1      -3.898   0.473   1.362  0.00  0.00    -0.248 N 
ATOM     14  C   UNL     1      -3.842  -0.290   2.491  0.00  0.00    +0.223 A 
ATOM     15  N   UNL     1      -2.975  -1.274   2.613  0.00  0.00    -0.214 NA
ATOM     16  N   UNL     1      -4.708  -0.028   3.521  0.00  0.00    -0.206 N 
ATOM     17  C   UNL     1      -1.733  -0.618  -1.972  0.00  0.00    +0.016 C 
ATOM     18  H   UNL     1      -5.403   0.640   3.412  0.00  0.00    +0.177 HD
ENDROOT
BRANCH  13  19
ATOM     19  C   UNL     1      -4.836   1.508   1.264  0.00  0.00    +0.053 A 
ATOM     20  C   UNL     1      -4.702   2.644   2.053  0.00  0.00    +0.026 A 
ATOM     21  C   UNL     1      -5.629   3.664   1.954  0.00  0.00    +0.005 A 
ATOM     22  C   UNL     1      -6.688   3.555   1.072  0.00  0.00    -0.050 A 
ATOM     23  C   UNL     1      -6.824   2.425   0.286  0.00  0.00    +0.005 A 
ATOM     24  C   UNL     1      -5.898   1.405   0.376  0.00  0.00    +0.026 A 
ATOM     25  C   UNL     1      -7.697   4.669   0.968  0.00  0.00    +0.044 C 
ENDBRANCH  13  19
BRANCH   1  27
ATOM     26  C   UNL     1      -0.068   1.101  -0.301  0.00  0.00    +0.005 C 
ATOM     27  C   UNL     1       0.168  -0.409  -0.370  0.00  0.00    +0.008 C 
ENDBRANCH   1  27
BRANCH  16  28
ATOM     28  N   UNL     1      -4.588  -0.723   4.731  0.00  0.00    -0.187 NA
ATOM     29  C   UNL     1      -5.420  -0.488   5.699  0.00  0.00    +0.142 C 
BRANCH  29  30
ATOM     30  C   UNL     1      -5.255  -1.171   6.995  0.00  0.00    +0.040 A 
ATOM     31  C   UNL     1      -6.205  -0.999   8.006  0.00  0.00    +0.013 A 
ATOM     32  C   UNL     1      -6.046  -1.640   9.216  0.00  0.00    +0.004 A 
ATOM     33  C   UNL     1      -4.950  -2.455   9.437  0.00  0.00    +0.049 A 
ATOM     34  C   UNL     1      -4.000  -2.635   8.444  0.00  0.00    +0.162 A 
ATOM     35  C   UNL     1      -4.149  -2.001   7.217  0.00  0.00    +0.170 A 
BRANCH  35  36
ATOM     36  O   UNL     1      -3.223  -2.180   6.238  0.00  0.00    -0.491 OA
ATOM     37  C   UNL     1      -2.059  -1.352   6.287  0.00  0.00    +0.277 C 
ENDBRANCH  35  36
BRANCH  34  38
ATOM     38  O   UNL     1      -2.925  -3.437   8.669  0.00  0.00    -0.491 OA
ATOM     39  C   UNL     1      -2.838  -4.062   9.951  0.00  0.00    +0.277 C 
ENDBRANCH  34  38
ENDBRANCH  29  30
ENDBRANCH  16  28
TORSDOF 6
