REMARK  Name = ZINC05529407
REMARK  8 active torsions:
REMARK  status: ('A' for Active; 'I' for Inactive)
REMARK    1  A    between atoms: C_1  and  C_2
REMARK    2  A    between atoms: C_9  and  N_17
REMARK    3  A    between atoms: C_10  and  C_11
REMARK    4  A    between atoms: C_11  and  O_13
REMARK    5  A    between atoms: O_13  and  C_14
REMARK    6  A    between atoms: C_14  and  C_15
REMARK    7  A    between atoms: C_14  and  C_16
REMARK    8  A    between atoms: N_20  and  C_21
REMARK                            x       y       z     vdW  Elec       q    Type
REMARK                         _______ _______ _______ _____ _____    ______ ____
ROOT
ATOM      1  C   UNL     1       4.196  11.928  -0.846  0.00  0.00    +0.008 C 
ATOM      2  C   UNL     1       4.667  10.487  -1.053  0.00  0.00    -0.009 C 
ATOM      3  C   UNL     1       5.957  10.247  -0.264  0.00  0.00    +0.008 C 
ATOM      4  C   UNL     1       6.565   8.900  -0.659  0.00  0.00    +0.037 C 
ATOM      5  C   UNL     1       5.496   7.822  -0.526  0.00  0.00    -0.021 A 
ATOM      6  C   UNL     1       4.185   8.144  -0.481  0.00  0.00    -0.004 A 
ATOM      7  S   UNL     1       3.342   6.594  -0.333  0.00  0.00    -0.077 S 
ATOM      8  C   UNL     1       4.711   5.531  -0.322  0.00  0.00    +0.087 A 
ATOM      9  C   UNL     1       5.787   6.401  -0.441  0.00  0.00    +0.091 A 
ATOM     10  C   UNL     1       3.590   9.517  -0.547  0.00  0.00    +0.046 C 
ENDROOT
BRANCH   8  11
ATOM     11  N   UNL     1       4.726   4.149  -0.225  0.00  0.00    -0.263 N 
ATOM     12  C   UNL     1       3.569   3.468  -0.116  0.00  0.00    +0.308 C 
ATOM     13  O   UNL     1       2.510   4.066  -0.102  0.00  0.00    -0.252 OA
ATOM     14  N   UNL     1       3.584   2.123  -0.021  0.00  0.00    -0.269 N 
ATOM     15  H   UNL     1       5.571   3.672  -0.236  0.00  0.00    +0.157 HD
ATOM     16  H   UNL     1       4.429   1.652   0.045  0.00  0.00    +0.156 HD
BRANCH  14  17
ATOM     17  C   UNL     1       2.381   1.408  -0.020  0.00  0.00    +0.035 A 
ATOM     18  C   UNL     1       2.268   0.238   0.719  0.00  0.00    +0.023 A 
ATOM     19  C   UNL     1       1.080  -0.465   0.719  0.00  0.00    +0.002 A 
ATOM     20  C   UNL     1       0.003  -0.005  -0.016  0.00  0.00    +0.000 A 
ATOM     21  C   UNL     1       0.112   1.160  -0.753  0.00  0.00    +0.002 A 
ATOM     22  C   UNL     1       1.298   1.868  -0.757  0.00  0.00    +0.023 A 
ENDBRANCH  14  17
ENDBRANCH   8  11
BRANCH   9  23
ATOM     23  C   UNL     1       7.164   5.904  -0.478  0.00  0.00    +0.342 C 
ATOM     24  O   UNL     1       7.680   5.623  -1.543  0.00  0.00    -0.245 OA
BRANCH  23  25
ATOM     25  O   UNL     1       7.860   5.758   0.668  0.00  0.00    -0.458 OA
BRANCH  25  26
ATOM     26  C   UNL     1       9.219   5.261   0.555  0.00  0.00    +0.171 C 
ATOM     27  C   UNL     1      10.182   6.439   0.394  0.00  0.00    +0.052 C 
ATOM     28  C   UNL     1       9.582   4.476   1.818  0.00  0.00    +0.052 C 
ENDBRANCH  25  26
ENDBRANCH  23  25
ENDBRANCH   9  23
TORSDOF 5
