REMARK  Name = ZINC40728536
REMARK  7 active torsions:
REMARK  status: ('A' for Active; 'I' for Inactive)
REMARK    1  A    between atoms: C_4  and  C_7
REMARK    2  A    between atoms: C_7  and  N_8
REMARK    3  A    between atoms: C_15  and  N_39
REMARK    4  A    between atoms: C_16  and  N_20
REMARK    5  A    between atoms: N_23  and  C_26
REMARK    6  A    between atoms: C_26  and  C_27
REMARK    7  A    between atoms: C_26  and  C_33
REMARK                            x       y       z     vdW  Elec       q    Type
REMARK                         _______ _______ _______ _____ _____    ______ ____
ROOT
ATOM      1  N   UNL     1       3.486  -0.431   2.162  0.00  0.00    +0.384 N 
ATOM      2  C   UNL     1       3.517  -0.687   3.607  0.00  0.00    -0.059 C 
ATOM      3  C   UNL     1       4.758  -1.518   3.951  0.00  0.00    +0.088 C 
ATOM      4  N   UNL     1       5.945  -0.822   3.432  0.00  0.00    -0.317 N 
ATOM      5  C   UNL     1       5.932  -0.382   2.028  0.00  0.00    +0.088 C 
ATOM      6  C   UNL     1       4.636   0.396   1.775  0.00  0.00    -0.059 C 
ATOM      7  C   UNL     1       7.047  -0.586   4.244  0.00  0.00    +0.147 A 
ATOM      8  C   UNL     1       8.068  -1.532   4.347  0.00  0.00    +0.106 A 
ATOM      9  C   UNL     1       9.153  -1.245   5.176  0.00  0.00    +0.147 A 
ATOM     10  N   UNL     1       9.173  -0.087   5.834  0.00  0.00    -0.219 NA
ATOM     11  C   UNL     1       8.188   0.779   5.709  0.00  0.00    +0.225 A 
ATOM     12  N   UNL     1       7.149   0.549   4.933  0.00  0.00    -0.219 NA
ATOM     13  H   UNL     1       3.523  -1.310   1.666  0.00  0.00    -0.081 HD
ENDROOT
BRANCH   9  14
ATOM     14  N   UNL     1      10.196  -2.153   5.315  0.00  0.00    -0.311 N 
ATOM     15  C   UNL     1      11.369  -2.095   4.430  0.00  0.00    +0.122 C 
ATOM     16  C   UNL     1      12.633  -2.091   5.296  0.00  0.00    +0.104 C 
ATOM     17  N   UNL     1      12.600  -3.240   6.210  0.00  0.00    -0.289 NA
ATOM     18  C   UNL     1      11.467  -3.149   7.141  0.00  0.00    +0.104 C 
ATOM     19  C   UNL     1      10.158  -3.193   6.354  0.00  0.00    +0.122 C 
BRANCH  17  20
ATOM     20  C   UNL     1      13.870  -3.370   6.938  0.00  0.00    +0.117 C 
BRANCH  20  21
ATOM     21  C   UNL     1      13.799  -4.558   7.864  0.00  0.00    -0.026 A 
ATOM     22  C   UNL     1      13.189  -5.725   7.444  0.00  0.00    +0.005 A 
ATOM     23  C   UNL     1      13.124  -6.814   8.293  0.00  0.00    +0.000 A 
ATOM     24  C   UNL     1      13.668  -6.736   9.562  0.00  0.00    +0.000 A 
ATOM     25  C   UNL     1      14.279  -5.568   9.980  0.00  0.00    +0.000 A 
ATOM     26  C   UNL     1      14.348  -4.481   9.130  0.00  0.00    +0.005 A 
ENDBRANCH  20  21
BRANCH  20  27
ATOM     27  C   UNL     1      14.994  -3.567   5.955  0.00  0.00    -0.026 A 
ATOM     28  C   UNL     1      14.810  -4.371   4.845  0.00  0.00    +0.005 A 
ATOM     29  C   UNL     1      15.842  -4.551   3.943  0.00  0.00    +0.000 A 
ATOM     30  C   UNL     1      17.058  -3.927   4.150  0.00  0.00    +0.000 A 
ATOM     31  C   UNL     1      17.242  -3.123   5.259  0.00  0.00    +0.000 A 
ATOM     32  C   UNL     1      16.209  -2.939   6.159  0.00  0.00    +0.005 A 
ENDBRANCH  20  27
ENDBRANCH  17  20
ENDBRANCH   9  14
BRANCH   8  33
ATOM     33  N   UNL     1       8.005  -2.741   3.635  0.00  0.00    -0.353 N 
ATOM     34  H   UNL     1       7.292  -2.890   2.994  0.00  0.00    +0.143 HD
ATOM     35  H   UNL     1       8.674  -3.428   3.784  0.00  0.00    +0.143 HD
ENDBRANCH   8  33
BRANCH   1  36
ATOM     36  C   UNL     1       2.242   0.271   1.817  0.00  0.00    -0.043 C 
BRANCH  36  40
ATOM     37  C   UNL     1      -1.097  -2.270   2.617  0.00  0.00    +0.000 A 
ATOM     38  C   UNL     1      -0.620  -1.425   3.602  0.00  0.00    +0.000 A 
ATOM     39  C   UNL     1       0.461  -0.603   3.343  0.00  0.00    +0.002 A 
ATOM     40  C   UNL     1       1.065  -0.626   2.099  0.00  0.00    -0.064 A 
ATOM     41  C   UNL     1       0.588  -1.472   1.115  0.00  0.00    +0.002 A 
ATOM     42  C   UNL     1      -0.494  -2.293   1.374  0.00  0.00    +0.000 A 
ENDBRANCH  36  40
ENDBRANCH   1  36
TORSDOF 7
