REMARK  Name = ZINC04651490
REMARK  6 active torsions:
REMARK  status: ('A' for Active; 'I' for Inactive)
REMARK    1  A    between atoms: C_1  and  C_2
REMARK    2  A    between atoms: C_3  and  C_27
REMARK    3  A    between atoms: C_5  and  C_25
REMARK    4  A    between atoms: C_7  and  C_10
REMARK    5  A    between atoms: N_12  and  C_13
REMARK    6  A    between atoms: C_14  and  C_22
REMARK                            x       y       z     vdW  Elec       q    Type
REMARK                         _______ _______ _______ _____ _____    ______ ____
ROOT
ATOM      1  C   UNL     1       6.018   0.983  -3.697  0.00  0.00    +0.222 C 
ATOM      2  O   UNL     1       6.186   1.835  -2.851  0.00  0.00    -0.275 OA
ATOM      3  N   UNL     1       4.903   0.225  -3.678  0.00  0.00    -0.279 N 
ATOM      4  H   UNL     1       4.769  -0.457  -4.354  0.00  0.00    +0.155 HD
ENDROOT
BRANCH   3   5
ATOM      5  C   UNL     1       3.949   0.420  -2.690  0.00  0.00    +0.084 A 
ATOM      6  C   UNL     1       2.750  -0.253  -2.505  0.00  0.00    +0.068 A 
ATOM      7  C   UNL     1       1.921   0.148  -1.381  0.00  0.00    -0.023 A 
ATOM      8  C   UNL     1       2.421   1.151  -0.627  0.00  0.00    -0.004 A 
ATOM      9  S   UNL     1       3.966   1.563  -1.388  0.00  0.00    -0.077 S 
ATOM     10  C   UNL     1       1.794   1.770   0.584  0.00  0.00    +0.043 C 
ATOM     11  C   UNL     1       0.317   1.352   0.630  0.00  0.00    +0.005 C 
ATOM     12  C   UNL     1       0.225  -0.160   0.405  0.00  0.00    +0.005 C 
ATOM     13  C   UNL     1       0.580  -0.492  -1.046  0.00  0.00    +0.037 C 
BRANCH   6  14
ATOM     14  C   UNL     1       2.334  -1.328  -3.411  0.00  0.00    +0.244 C 
ATOM     15  O   UNL     1       1.672  -1.069  -4.399  0.00  0.00    -0.270 OA
ATOM     16  N   UNL     1       2.684  -2.603  -3.150  0.00  0.00    -0.325 N 
ATOM     17  H   UNL     1       3.212  -2.809  -2.362  0.00  0.00    +0.145 HD
ATOM     18  H   UNL     1       2.409  -3.314  -3.749  0.00  0.00    +0.145 HD
ENDBRANCH   6  14
ENDBRANCH   3   5
BRANCH   1  24
ATOM     19  C   UNL     1       8.758   4.202  -4.228  0.00  0.00    +0.039 C 
ATOM     20  C   UNL     1       8.451   2.728  -4.144  0.00  0.00    -0.073 C 
ATOM     21  C   UNL     1       8.932   2.064  -3.142  0.00  0.00    -0.073 C 
ATOM     22  C   UNL     1       8.704   0.598  -2.918  0.00  0.00    +0.046 C 
ATOM     23  C   UNL     1       8.214  -0.062  -4.208  0.00  0.00    +0.118 C 
ATOM     24  C   UNL     1       7.055   0.770  -4.770  0.00  0.00    +0.093 C 
ATOM     25  C   UNL     1       7.606   2.123  -5.226  0.00  0.00    +0.044 C 
ATOM     26  C   UNL     1       9.774   2.810  -2.139  0.00  0.00    +0.039 C 
BRANCH  23  27
ATOM     27  C   UNL     1       7.737  -1.460  -3.912  0.00  0.00    +0.360 C 
ATOM     28  O   UNL     1       6.587  -1.764  -4.126  0.00  0.00    -0.246 OA
ATOM     29  O   UNL     1       8.589  -2.368  -3.410  0.00  0.00    -0.246 OA
ENDBRANCH  23  27
ENDBRANCH   1  24
TORSDOF 4
