REMARK  Name = ZINC00888007
REMARK  15 active torsions:
REMARK  status: ('A' for Active; 'I' for Inactive)
REMARK    1  A    between atoms: C_1  and  C_2
REMARK    2  A    between atoms: C_2  and  C_3
REMARK    3  A    between atoms: C_2  and  C_4
REMARK    4  A    between atoms: C_4  and  C_5
REMARK    5  A    between atoms: C_5  and  C_7
REMARK    6  A    between atoms: C_5  and  N_18
REMARK    7  A    between atoms: N_9  and  C_10
REMARK    8  A    between atoms: C_10  and  C_11
REMARK    9  A    between atoms: N_18  and  C_34
REMARK   10  A    between atoms: C_19  and  C_21
REMARK   11  A    between atoms: C_21  and  N_22
REMARK   12  A    between atoms: C_24  and  C_27
REMARK   13  A    between atoms: C_34  and  C_35
REMARK   14  A    between atoms: C_34  and  C_36
REMARK   15  A    between atoms: C_34  and  C_37
REMARK                            x       y       z     vdW  Elec       q    Type
REMARK                         _______ _______ _______ _____ _____    ______ ____
ROOT
ATOM      1  N   UNL     1       0.975   6.785   2.838  0.00  0.00    -0.283 N 
ATOM      2  C   UNL     1       2.313   6.865   2.980  0.00  0.00    +0.240 C 
ATOM      3  O   UNL     1       2.961   5.863   3.194  0.00  0.00    -0.273 OA
ENDROOT
BRANCH   1   4
ATOM      4  C   UNL     1       0.205   7.973   2.460  0.00  0.00    +0.030 C 
ATOM      5  C   UNL     1      -1.290   7.678   2.600  0.00  0.00    +0.031 C 
ATOM      6  C   UNL     1       0.583   9.138   3.377  0.00  0.00    +0.031 C 
ATOM      7  C   UNL     1       0.519   8.343   1.009  0.00  0.00    +0.031 C 
ENDBRANCH   1   4
BRANCH   1   8
ATOM      8  C   UNL     1       0.290   5.509   3.063  0.00  0.00    +0.163 C 
BRANCH   8   9
ATOM      9  C   UNL     1      -0.494   5.137   1.831  0.00  0.00    +0.234 C 
ATOM     10  O   UNL     1      -0.456   5.848   0.849  0.00  0.00    -0.274 OA
ATOM     11  N   UNL     1      -1.238   4.013   1.820  0.00  0.00    -0.310 N 
ATOM     12  H   UNL     1      -1.269   3.444   2.605  0.00  0.00    +0.149 HD
BRANCH  11  13
ATOM     13  C   UNL     1      -2.001   3.651   0.623  0.00  0.00    +0.139 C 
BRANCH  13  14
ATOM     14  C   UNL     1      -2.741   2.361   0.869  0.00  0.00    -0.030 A 
ATOM     15  C   UNL     1      -4.020   2.388   1.393  0.00  0.00    +0.008 A 
ATOM     16  C   UNL     1      -4.699   1.207   1.620  0.00  0.00    +0.038 A 
ATOM     17  C   UNL     1      -4.099  -0.005   1.322  0.00  0.00    +0.123 A 
ATOM     18  C   UNL     1      -2.818  -0.031   0.797  0.00  0.00    +0.038 A 
ATOM     19  C   UNL     1      -2.140   1.152   0.571  0.00  0.00    +0.008 A 
ATOM     20  F   UNL     1      -4.762  -1.161   1.544  0.00  0.00    -0.205 F 
ENDBRANCH  13  14
ENDBRANCH  11  13
ENDBRANCH   8   9
BRANCH   8  21
ATOM     21  C   UNL     1      -0.663   5.645   4.252  0.00  0.00    +0.035 C 
BRANCH  21  23
ATOM     22  C   UNL     1      -0.838   6.313   6.653  0.00  0.00    +0.007 C 
ATOM     23  C   UNL     1       0.128   6.056   5.495  0.00  0.00    -0.015 C 
ATOM     24  C   UNL     1       1.097   4.936   5.878  0.00  0.00    +0.007 C 
ENDBRANCH  21  23
ENDBRANCH   8  21
ENDBRANCH   1   8
BRANCH   2  25
ATOM     25  C   UNL     1       3.003   8.200   2.871  0.00  0.00    +0.264 C 
BRANCH  25  26
ATOM     26  N   UNL     1       4.454   8.003   2.895  0.00  0.00    -0.154 N 
ATOM     27  N   UNL     1       5.188   7.996   3.955  0.00  0.00    -0.130 NA
ATOM     28  C   UNL     1       6.435   7.788   3.581  0.00  0.00    +0.205 A 
ATOM     29  N   UNL     1       6.422   7.679   2.245  0.00  0.00    -0.108 NA
ATOM     30  N   UNL     1       5.198   7.815   1.861  0.00  0.00    -0.045 NA
BRANCH  28  31
ATOM     31  C   UNL     1       7.623   7.699   4.466  0.00  0.00    +0.023 A 
ATOM     32  C   UNL     1       7.479   7.839   5.845  0.00  0.00    +0.013 A 
ATOM     33  C   UNL     1       8.586   7.749   6.665  0.00  0.00    +0.021 A 
ATOM     34  C   UNL     1       9.839   7.532   6.118  0.00  0.00    +0.041 A 
ATOM     35  C   UNL     1       9.987   7.397   4.748  0.00  0.00    +0.021 A 
ATOM     36  C   UNL     1       8.886   7.479   3.921  0.00  0.00    +0.013 A 
ATOM     37 CL   UNL     1      11.228   7.428   7.153  0.00  0.00    -0.084 Cl
ENDBRANCH  28  31
ENDBRANCH  25  26
ENDBRANCH   2  25
TORSDOF 10
