REMARK  Name = ZINC13640424
REMARK  7 active torsions:
REMARK  status: ('A' for Active; 'I' for Inactive)
REMARK    1  A    between atoms: C_1  and  C_2
REMARK    2  A    between atoms: C_2  and  C_3
REMARK    3  A    between atoms: C_2  and  C_4
REMARK    4  A    between atoms: N_6  and  C_7
REMARK    5  A    between atoms: C_20  and  C_23
REMARK    6  A    between atoms: C_26  and  O_30
REMARK    7  A    between atoms: C_28  and  O_29
REMARK                            x       y       z     vdW  Elec       q    Type
REMARK                         _______ _______ _______ _____ _____    ______ ____
ROOT
ATOM      1  C   UNL     1       1.894   1.010   3.885  0.00  0.00    +0.034 A 
ATOM      2  C   UNL     1       1.201   0.198   4.774  0.00  0.00    +0.025 A 
ATOM      3  C   UNL     1       1.798  -0.207   5.949  0.00  0.00    +0.025 A 
ATOM      4  C   UNL     1       3.089   0.202   6.260  0.00  0.00    +0.031 A 
ATOM      5  C   UNL     1       3.787   1.012   5.358  0.00  0.00    -0.018 A 
ATOM      6  C   UNL     1       3.188   1.416   4.185  0.00  0.00    +0.029 A 
ATOM      7  C   UNL     1       5.174   1.388   5.709  0.00  0.00    +0.049 C 
ATOM      8  C   UNL     1       5.840   2.622   5.191  0.00  0.00    -0.023 C 
ATOM      9  C   UNL     1       6.684   3.079   6.108  0.00  0.00    -0.030 C 
ATOM     10  C   UNL     1       6.650   2.182   7.346  0.00  0.00    +0.033 C 
ATOM     11  C   UNL     1       5.240   1.582   7.254  0.00  0.00    +0.029 C 
ATOM     12  C   UNL     1       5.036   0.199   7.846  0.00  0.00    +0.108 C 
ATOM     13  N   UNL     1       3.657  -0.191   7.481  0.00  0.00    -0.336 N 
ATOM     14  H   UNL     1       3.135  -0.729   8.097  0.00  0.00    +0.147 HD
ENDROOT
BRANCH  12  15
ATOM     15  C   UNL     1       6.025  -0.771   7.254  0.00  0.00    +0.015 A 
ATOM     16  C   UNL     1       5.691  -1.498   6.128  0.00  0.00    +0.012 A 
ATOM     17  C   UNL     1       6.597  -2.385   5.580  0.00  0.00    +0.046 A 
ATOM     18  C   UNL     1       7.843  -2.557   6.167  0.00  0.00    +0.120 A 
ATOM     19  C   UNL     1       8.180  -1.833   7.301  0.00  0.00    +0.091 A 
ATOM     20  C   UNL     1       7.270  -0.939   7.845  0.00  0.00    +0.125 A 
BRANCH  20  21
ATOM     21  O   UNL     1       7.597  -0.228   8.956  0.00  0.00    -0.506 OA
ATOM     22  H   UNL     1       7.363  -0.665   9.786  0.00  0.00    +0.292 HD
ENDBRANCH  20  21
BRANCH  18  23
ATOM     23  O   UNL     1       8.733  -3.433   5.631  0.00  0.00    -0.507 OA
ATOM     24  H   UNL     1       8.663  -4.330   5.985  0.00  0.00    +0.292 HD
ENDBRANCH  18  23
ENDBRANCH  12  15
BRANCH   1  27
ATOM     25  C   UNL     1       0.420   0.607   2.059  0.00  0.00    +0.220 C 
ATOM     26  O   UNL     1       0.237  -0.519   2.470  0.00  0.00    -0.275 OA
ATOM     27  N   UNL     1       1.288   1.422   2.691  0.00  0.00    -0.285 N 
ATOM     28  H   UNL     1       1.492   2.294   2.319  0.00  0.00    +0.155 HD
BRANCH  25  30
ATOM     29  C   UNL     1       0.682   1.480  -0.247  0.00  0.00    +0.017 C 
ATOM     30  C   UNL     1      -0.322   1.094   0.841  0.00  0.00    +0.069 C 
ATOM     31  C   UNL     1      -1.235  -0.018   0.321  0.00  0.00    +0.017 C 
ENDBRANCH  25  30
ENDBRANCH   1  27
TORSDOF 5
