REMARK  Name = ZINC09726933
REMARK  4 active torsions:
REMARK  status: ('A' for Active; 'I' for Inactive)
REMARK    1  A    between atoms: C_3  and  C_6
REMARK    2  A    between atoms: C_15  and  C_17
REMARK    3  A    between atoms: C_17  and  N_55
REMARK    4  A    between atoms: C_21  and  C_23
REMARK                            x       y       z     vdW  Elec       q    Type
REMARK                         _______ _______ _______ _____ _____    ______ ____
ROOT
ATOM      1  C   UNL     1      -2.280  -0.715  -2.208  0.00  0.00    -0.002 C 
ENDROOT
BRANCH   1  11
ATOM      2  C   UNL     1      -5.485   2.601  -5.560  0.00  0.00    +0.039 A 
ATOM      3  C   UNL     1      -6.002   3.664  -4.894  0.00  0.00    +0.059 A 
ATOM      4  S   UNL     1      -5.378   3.458  -3.238  0.00  0.00    -0.076 S 
ATOM      5  C   UNL     1      -4.447   1.966  -3.473  0.00  0.00    +0.116 A 
ATOM      6  C   UNL     1      -4.641   1.661  -4.830  0.00  0.00    +0.083 A 
ATOM      7  C   UNL     1      -3.986   0.478  -5.299  0.00  0.00    +0.260 A 
ATOM      8  O   UNL     1      -4.095   0.131  -6.463  0.00  0.00    -0.267 OA
ATOM      9  N   UNL     1      -3.248  -0.245  -4.437  0.00  0.00    -0.312 N 
ATOM     10  H   UNL     1      -2.802  -1.048  -4.750  0.00  0.00    +0.170 HD
ATOM     11  C   UNL     1      -3.116   0.126  -3.138  0.00  0.00    +0.094 A 
ATOM     12  N   UNL     1      -3.706   1.197  -2.679  0.00  0.00    -0.229 NA
BRANCH   2  15
ATOM     13  C   UNL     1      -6.803   2.184  -8.952  0.00  0.00    +0.042 A 
ATOM     14  C   UNL     1      -7.000   2.421  -7.576  0.00  0.00    +0.050 A 
ATOM     15  C   UNL     1      -5.770   2.399  -6.995  0.00  0.00    +0.136 A 
ATOM     16  O   UNL     1      -4.856   2.167  -7.957  0.00  0.00    -0.463 OA
ATOM     17  C   UNL     1      -5.479   2.032  -9.141  0.00  0.00    +0.196 A 
ENDBRANCH   2  15
ENDBRANCH   1  11
BRANCH   1  22
ATOM     18  C   UNL     1      -3.617  -0.237  -0.242  0.00  0.00    -0.077 C 
ATOM     19  C   UNL     1      -3.428  -0.982   1.097  0.00  0.00    -0.020 C 
ATOM     20  C   UNL     1      -1.931  -0.740   1.423  0.00  0.00    -0.013 C 
ATOM     21  C   UNL     1      -1.294  -0.773   0.011  0.00  0.00    -0.037 C 
ATOM     22  N   UNL     1      -2.286  -0.103  -0.854  0.00  0.00    +0.389 N 
ATOM     23  H   UNL     1      -2.048   0.893  -0.935  0.00  0.00    -0.080 HD
BRANCH  21  24
ATOM     24  C   UNL     1       0.002  -0.004   0.002  0.00  0.00    -0.057 A 
ATOM     25  C   UNL     1      -0.017   1.378   0.010  0.00  0.00    +0.006 A 
ATOM     26  C   UNL     1       1.169   2.091   0.002  0.00  0.00    +0.049 A 
ATOM     27  C   UNL     1       2.377   1.413  -0.013  0.00  0.00    +0.162 A 
ATOM     28  C   UNL     1       2.396   0.026  -0.021  0.00  0.00    +0.162 A 
ATOM     29  C   UNL     1       1.207  -0.684  -0.013  0.00  0.00    +0.051 A 
ATOM     30  O   UNL     1       3.591  -0.632  -0.038  0.00  0.00    -0.488 OA
ATOM     31  C   UNL     1       4.380  -0.524   1.149  0.00  0.00    +0.232 C 
ATOM     32  C   UNL     1       5.208   0.751   1.132  0.00  0.00    +0.082 C 
ATOM     33  C   UNL     1       4.345   2.002   1.164  0.00  0.00    +0.232 C 
ATOM     34  O   UNL     1       3.554   2.104  -0.021  0.00  0.00    -0.488 OA
ENDBRANCH  21  24
ENDBRANCH   1  22
TORSDOF 4
