REMARK  Name = ZINC40397545
REMARK  5 active torsions:
REMARK  status: ('A' for Active; 'I' for Inactive)
REMARK    1  A    between atoms: C_1  and  C_2
REMARK    2  A    between atoms: C_2  and  C_3
REMARK    3  A    between atoms: C_4  and  C_27
REMARK    4  A    between atoms: N_14  and  N_17
REMARK    5  A    between atoms: C_18  and  C_20
REMARK                            x       y       z     vdW  Elec       q    Type
REMARK                         _______ _______ _______ _____ _____    ______ ____
ROOT
ATOM      1  C   UNL     1      -1.412  -0.526   0.013  0.00  0.00    +0.073 A 
ATOM      2  C   UNL     1      -2.168  -0.809   1.158  0.00  0.00    +0.049 A 
ATOM      3  C   UNL     1      -3.417  -1.267   0.729  0.00  0.00    +0.164 A 
ATOM      4  N   UNL     1      -4.504  -1.670   1.402  0.00  0.00    -0.235 NA
ATOM      5  C   UNL     1      -5.593  -2.069   0.789  0.00  0.00    +0.128 A 
ATOM      6  C   UNL     1      -5.634  -2.078  -0.619  0.00  0.00    +0.085 A 
ATOM      7  C   UNL     1      -4.503  -1.659  -1.340  0.00  0.00    +0.083 A 
ATOM      8  N   UNL     1      -3.391  -1.252  -0.643  0.00  0.00    -0.213 N 
ATOM      9  N   UNL     1      -2.137  -0.783  -1.046  0.00  0.00    -0.169 NA
ATOM     10  C   UNL     1      -4.549  -1.669  -2.742  0.00  0.00    +0.048 A 
ATOM     11  C   UNL     1      -5.667  -2.077  -3.380  0.00  0.00    +0.114 A 
ATOM     12  N   UNL     1      -6.777  -2.488  -2.712  0.00  0.00    -0.231 N 
ATOM     13  C   UNL     1      -6.817  -2.510  -1.362  0.00  0.00    +0.279 A 
ATOM     14  O   UNL     1      -7.818  -2.881  -0.776  0.00  0.00    -0.265 OA
ENDROOT
BRANCH   2  15
ATOM     15  C   UNL     1      -1.725  -0.652   2.563  0.00  0.00    -0.012 A 
ATOM     16  C   UNL     1      -0.681  -1.432   3.059  0.00  0.00    +0.010 A 
ATOM     17  C   UNL     1      -0.273  -1.282   4.369  0.00  0.00    +0.020 A 
ATOM     18  C   UNL     1      -0.898  -0.358   5.189  0.00  0.00    +0.041 A 
ATOM     19  C   UNL     1      -1.935   0.419   4.702  0.00  0.00    +0.020 A 
ATOM     20  C   UNL     1      -2.348   0.281   3.393  0.00  0.00    +0.010 A 
ATOM     21 CL   UNL     1      -0.380  -0.175   6.836  0.00  0.00    -0.084 Cl
ENDBRANCH   2  15
BRANCH  12  22
ATOM     22  N   UNL     1      -7.903  -2.897  -3.438  0.00  0.00    -0.216 N 
ATOM     23  C   UNL     1      -7.909  -4.097  -4.051  0.00  0.00    +0.262 C 
ATOM     24  O   UNL     1      -6.938  -4.824  -3.974  0.00  0.00    -0.268 OA
ATOM     25  H   UNL     1      -8.677  -2.317  -3.499  0.00  0.00    +0.176 HD
BRANCH  23  26
ATOM     26  C   UNL     1      -9.096  -4.529  -4.817  0.00  0.00    +0.038 A 
ATOM     27  C   UNL     1     -10.211  -3.693  -4.912  0.00  0.00    +0.016 A 
ATOM     28  C   UNL     1     -11.316  -4.100  -5.628  0.00  0.00    +0.039 A 
ATOM     29  C   UNL     1     -11.323  -5.338  -6.253  0.00  0.00    +0.123 A 
ATOM     30  C   UNL     1     -10.219  -6.172  -6.162  0.00  0.00    +0.039 A 
ATOM     31  C   UNL     1      -9.106  -5.772  -5.454  0.00  0.00    +0.016 A 
ATOM     32  F   UNL     1     -12.409  -5.733  -6.952  0.00  0.00    -0.205 F 
ENDBRANCH  23  26
ENDBRANCH  12  22
BRANCH   1  34
ATOM     33  C   UNL     1      -0.019   1.526   0.010  0.00  0.00    +0.010 C 
ATOM     34  C   UNL     1       0.002  -0.004   0.002  0.00  0.00    +0.054 C 
ENDBRANCH   1  34
TORSDOF 4
