REMARK  Name = ZINC09189749
REMARK  5 active torsions:
REMARK  status: ('A' for Active; 'I' for Inactive)
REMARK    1  A    between atoms: C_4  and  N_7
REMARK    2  A    between atoms: C_8  and  C_26
REMARK    3  A    between atoms: C_11  and  S_12
REMARK    4  A    between atoms: S_12  and  C_13
REMARK    5  A    between atoms: C_13  and  C_14
REMARK                            x       y       z     vdW  Elec       q    Type
REMARK                         _______ _______ _______ _____ _____    ______ ____
ROOT
ATOM      1  N   UNL     1      -1.088  -0.830   0.013  0.00  0.00    -0.268 N 
ATOM      2  C   UNL     1      -0.581  -2.114  -0.003  0.00  0.00    +0.205 A 
ATOM      3  N   UNL     1       0.730  -2.008  -0.015  0.00  0.00    -0.125 NA
ATOM      4  N   UNL     1       1.071  -0.769  -0.012  0.00  0.00    -0.122 NA
ATOM      5  C   UNL     1       0.002  -0.004   0.002  0.00  0.00    +0.197 A 
ENDROOT
BRANCH   2   6
ATOM      6  C   UNL     1      -1.359  -3.362  -0.002  0.00  0.00    +0.174 A 
ATOM      7  C   UNL     1      -0.857  -4.594   0.270  0.00  0.00    +0.061 A 
ATOM      8  C   UNL     1      -1.983  -5.524   0.157  0.00  0.00    +0.021 A 
ATOM      9  C   UNL     1      -2.125  -6.904   0.316  0.00  0.00    +0.011 A 
ATOM     10  C   UNL     1      -3.348  -7.484   0.129  0.00  0.00    +0.001 A 
ATOM     11  C   UNL     1      -4.447  -6.712  -0.218  0.00  0.00    +0.004 A 
ATOM     12  C   UNL     1      -4.327  -5.347  -0.378  0.00  0.00    +0.047 A 
ATOM     13  C   UNL     1      -3.094  -4.735  -0.193  0.00  0.00    +0.136 A 
ATOM     14  O   UNL     1      -2.675  -3.456  -0.277  0.00  0.00    -0.452 OA
ENDBRANCH   2   6
BRANCH   1  18
ATOM     15  C   UNL     1      -5.102   0.293   0.079  0.00  0.00    +0.000 A 
ATOM     16  C   UNL     1      -4.317   0.600  -1.018  0.00  0.00    +0.002 A 
ATOM     17  C   UNL     1      -2.987   0.229  -1.042  0.00  0.00    +0.026 A 
ATOM     18  C   UNL     1      -2.438  -0.453   0.035  0.00  0.00    +0.051 A 
ATOM     19  C   UNL     1      -3.230  -0.765   1.132  0.00  0.00    +0.026 A 
ATOM     20  C   UNL     1      -4.558  -0.386   1.153  0.00  0.00    +0.002 A 
ENDBRANCH   1  18
BRANCH   5  21
ATOM     21  S   UNL     1      -0.022   1.758   0.012  0.00  0.00    -0.078 S 
BRANCH  21  22
ATOM     22  C   UNL     1       1.756   2.096  -0.004  0.00  0.00    +0.151 C 
BRANCH  22  23
ATOM     23  C   UNL     1       1.984   3.586   0.002  0.00  0.00    +0.121 A 
ATOM     24  N   UNL     1       3.264   4.042  -0.002  0.00  0.00    -0.310 N 
ATOM     25  H   UNL     1       3.999   3.410  -0.009  0.00  0.00    +0.170 HD
ATOM     26  C   UNL     1       3.521   5.371  -0.002  0.00  0.00    +0.259 A 
ATOM     27  O   UNL     1       4.663   5.794  -0.010  0.00  0.00    -0.267 OA
ATOM     28  C   UNL     1       2.369   6.284   0.014  0.00  0.00    +0.065 A 
ATOM     29  C   UNL     1       2.525   7.668   0.021  0.00  0.00    +0.015 A 
ATOM     30  C   UNL     1       1.410   8.477   0.036  0.00  0.00    +0.001 A 
ATOM     31  C   UNL     1       0.136   7.924   0.045  0.00  0.00    +0.002 A 
ATOM     32  C   UNL     1      -0.040   6.559   0.039  0.00  0.00    +0.028 A 
ATOM     33  C   UNL     1       1.075   5.718   0.023  0.00  0.00    +0.078 A 
ATOM     34  N   UNL     1       0.947   4.367   0.017  0.00  0.00    -0.233 NA
ENDBRANCH  22  23
ENDBRANCH  21  22
ENDBRANCH   5  21
TORSDOF 5
