REMARK  Name = ZINC59794573
REMARK  10 active torsions:
REMARK  status: ('A' for Active; 'I' for Inactive)
REMARK    1  A    between atoms: C_1  and  C_2
REMARK    2  A    between atoms: C_2  and  C_3
REMARK    3  A    between atoms: C_3  and  C_5
REMARK    4  A    between atoms: C_3  and  S_6
REMARK    5  A    between atoms: S_6  and  C_7
REMARK    6  A    between atoms: C_13  and  C_15
REMARK    7  A    between atoms: C_15  and  S_16
REMARK    8  A    between atoms: S_16  and  C_17
REMARK    9  A    between atoms: C_20  and  C_28
REMARK   10  A    between atoms: N_21  and  C_22
REMARK                            x       y       z     vdW  Elec       q    Type
REMARK                         _______ _______ _______ _____ _____    ______ ____
ROOT
ATOM      1  C   UNL     1     -12.349  -3.616   0.401  0.00  0.00    +0.197 A 
ATOM      2  N   UNL     1     -12.965  -3.290  -0.714  0.00  0.00    -0.122 NA
ATOM      3  N   UNL     1     -14.199  -3.644  -0.657  0.00  0.00    -0.128 NA
ATOM      4  C   UNL     1     -14.449  -4.219   0.497  0.00  0.00    +0.169 A 
ATOM      5  N   UNL     1     -13.270  -4.224   1.210  0.00  0.00    -0.270 N 
ENDROOT
BRANCH   4   6
ATOM      6  C   UNL     1     -15.748  -4.763   0.945  0.00  0.00    +0.021 A 
ATOM      7  C   UNL     1     -15.959  -5.054   2.294  0.00  0.00    +0.012 A 
ATOM      8  C   UNL     1     -17.174  -5.561   2.706  0.00  0.00    +0.002 A 
ATOM      9  C   UNL     1     -18.184  -5.781   1.786  0.00  0.00    +0.020 A 
ATOM     10  C   UNL     1     -17.982  -5.494   0.446  0.00  0.00    +0.042 A 
ATOM     11  C   UNL     1     -16.772  -4.981   0.022  0.00  0.00    +0.031 A 
ATOM     12 CL   UNL     1     -19.255  -5.773  -0.701  0.00  0.00    -0.084 Cl
ENDBRANCH   4   6
BRANCH   5  13
ATOM     13  C   UNL     1     -13.058  -4.742   2.495  0.00  0.00    +0.051 A 
ATOM     14  C   UNL     1     -13.175  -6.106   2.724  0.00  0.00    +0.026 A 
ATOM     15  C   UNL     1     -12.967  -6.612   3.992  0.00  0.00    +0.002 A 
ATOM     16  C   UNL     1     -12.641  -5.762   5.032  0.00  0.00    +0.000 A 
ATOM     17  C   UNL     1     -12.524  -4.403   4.808  0.00  0.00    +0.002 A 
ATOM     18  C   UNL     1     -12.725  -3.891   3.541  0.00  0.00    +0.026 A 
ENDBRANCH   5  13
BRANCH   1  19
ATOM     19  S   UNL     1     -10.652  -3.331   0.779  0.00  0.00    -0.076 S 
BRANCH  19  20
ATOM     20  C   UNL     1     -10.007  -2.498  -0.698  0.00  0.00    +0.173 C 
BRANCH  20  27
ATOM     21  C   UNL     1      -3.926  -0.602  -1.300  0.00  0.00    +0.160 A 
ATOM     22  N   UNL     1      -4.488  -1.214  -0.269  0.00  0.00    -0.133 NA
ATOM     23  N   UNL     1      -5.707  -1.539  -0.270  0.00  0.00    -0.125 NA
ATOM     24  C   UNL     1      -6.498  -1.290  -1.300  0.00  0.00    +0.189 A 
ATOM     25  S   UNL     1      -5.337  -0.480  -2.396  0.00  0.00    -0.024 S 
ATOM     26  N   UNL     1      -7.850  -1.572  -1.479  0.00  0.00    -0.263 N 
ATOM     27  C   UNL     1      -8.544  -2.193  -0.505  0.00  0.00    +0.229 C 
ATOM     28  O   UNL     1      -7.991  -2.506   0.528  0.00  0.00    -0.275 OA
ATOM     29  H   UNL     1      -8.293  -1.321  -2.305  0.00  0.00    +0.157 HD
BRANCH  21  30
ATOM     30  S   UNL     1      -2.265  -0.057  -1.527  0.00  0.00    -0.094 S 
BRANCH  30  31
ATOM     31  C   UNL     1      -1.433  -0.534   0.013  0.00  0.00    +0.050 C 
ATOM     32  C   UNL     1      -1.413  -2.059   0.130  0.00  0.00    +0.019 C 
BRANCH  31  34
ATOM     33  C   UNL     1      -0.019   1.526   0.010  0.00  0.00    +0.005 C 
ATOM     34  C   UNL     1       0.002  -0.004   0.002  0.00  0.00    +0.011 C 
ENDBRANCH  31  34
ENDBRANCH  30  31
ENDBRANCH  21  30
ENDBRANCH  20  27
ENDBRANCH  19  20
ENDBRANCH   1  19
TORSDOF 8
