REMARK  Name = ZINC61088460
REMARK  5 active torsions:
REMARK  status: ('A' for Active; 'I' for Inactive)
REMARK    1  A    between atoms: C_1  and  C_2
REMARK    2  A    between atoms: C_3  and  C_8
REMARK    3  A    between atoms: C_8  and  N_9
REMARK    4  A    between atoms: C_10  and  C_12
REMARK    5  A    between atoms: C_14  and  N_20
REMARK                            x       y       z     vdW  Elec       q    Type
REMARK                         _______ _______ _______ _____ _____    ______ ____
ROOT
ATOM      1  N   UNL     1       1.347   0.058  -2.960  0.00  0.00    -0.307 N 
ATOM      2  C   UNL     1       1.576   0.520  -4.206  0.00  0.00    +0.245 C 
ATOM      3  O   UNL     1       0.661   0.603  -5.001  0.00  0.00    -0.270 OA
ATOM      4  H   UNL     1       2.077  -0.009  -2.325  0.00  0.00    +0.149 HD
ENDROOT
BRANCH   2   5
ATOM      5  C   UNL     1       2.940   0.924  -4.604  0.00  0.00    +0.053 A 
ATOM      6  C   UNL     1       3.994   0.824  -3.693  0.00  0.00    +0.039 A 
ATOM      7  C   UNL     1       5.269   1.204  -4.072  0.00  0.00    +0.061 A 
ATOM      8  C   UNL     1       5.499   1.685  -5.359  0.00  0.00    +0.145 A 
ATOM      9  C   UNL     1       4.455   1.785  -6.262  0.00  0.00    +0.056 A 
ATOM     10  C   UNL     1       3.180   1.403  -5.894  0.00  0.00    +0.033 A 
ATOM     11 BR   UNL     1       1.758   1.534  -7.134  0.00  0.00    -0.049 Br
ATOM     12  F   UNL     1       6.745   2.055  -5.727  0.00  0.00    -0.204 F 
BRANCH   7  13
ATOM     13  N   UNL     1       6.328   1.105  -3.163  0.00  0.00    -0.356 N 
ATOM     14  H   UNL     1       6.168   0.770  -2.267  0.00  0.00    +0.142 HD
ATOM     15  H   UNL     1       7.222   1.371  -3.429  0.00  0.00    +0.142 HD
ENDBRANCH   7  13
ENDBRANCH   2   5
BRANCH   1  16
ATOM     16  C   UNL     1      -0.006  -0.343  -2.566  0.00  0.00    +0.143 C 
BRANCH  16  19
ATOM     17  C   UNL     1      -0.018   1.503   0.010  0.00  0.00    +0.068 C 
ATOM     18  C   UNL     1       0.002  -0.004   0.002  0.00  0.00    +0.064 A 
ATOM     19  C   UNL     1       0.008  -0.818  -1.135  0.00  0.00    +0.010 A 
ATOM     20  C   UNL     1       0.028  -2.107  -0.725  0.00  0.00    +0.110 A 
ATOM     21  N   UNL     1       0.034  -2.109   0.625  0.00  0.00    -0.284 N 
ATOM     22  H   UNL     1       0.048  -2.894   1.194  0.00  0.00    +0.188 HD
ATOM     23  N   UNL     1       0.023  -0.777   1.058  0.00  0.00    -0.179 NA
ENDBRANCH  16  19
ENDBRANCH   1  16
TORSDOF 4
