REMARK  Name = ZINC53045091
REMARK  5 active torsions:
REMARK  status: ('A' for Active; 'I' for Inactive)
REMARK    1  A    between atoms: C_4  and  N_19
REMARK    2  A    between atoms: C_7  and  N_11
REMARK    3  A    between atoms: N_11  and  C_12
REMARK    4  A    between atoms: C_12  and  C_17
REMARK    5  A    between atoms: C_17  and  O_18
REMARK                            x       y       z     vdW  Elec       q    Type
REMARK                         _______ _______ _______ _____ _____    ______ ____
ROOT
ATOM      1  C   UNL     1       0.351   1.740   0.276  0.00  0.00    +0.020 A 
ATOM      2  C   UNL     1       1.579   2.337   0.335  0.00  0.00    +0.013 A 
ATOM      3  C   UNL     1       2.719   1.516   0.286  0.00  0.00    +0.023 A 
ATOM      4  C   UNL     1       4.018   2.063   0.343  0.00  0.00    +0.034 A 
ATOM      5  C   UNL     1       5.112   1.228   0.292  0.00  0.00    +0.025 A 
ATOM      6  C   UNL     1       4.950  -0.151   0.185  0.00  0.00    +0.027 A 
ATOM      7  C   UNL     1       3.695  -0.713   0.128  0.00  0.00    +0.054 A 
ATOM      8  C   UNL     1       2.553   0.114   0.178  0.00  0.00    +0.093 A 
ATOM      9  N   UNL     1       1.323  -0.407   0.125  0.00  0.00    -0.253 NA
ATOM     10  C   UNL     1       0.257   0.355   0.170  0.00  0.00    +0.111 A 
ENDROOT
BRANCH   4  11
ATOM     11  N   UNL     1       4.194   3.445   0.449  0.00  0.00    -0.357 N 
ATOM     12  H   UNL     1       3.422   4.031   0.484  0.00  0.00    +0.142 HD
ATOM     13  H   UNL     1       5.088   3.818   0.488  0.00  0.00    +0.142 HD
ENDBRANCH   4  11
BRANCH   7  14
ATOM     14  N   UNL     1       3.552  -2.101   0.020  0.00  0.00    -0.334 N 
ATOM     15  H   UNL     1       2.671  -2.503   0.072  0.00  0.00    +0.147 HD
BRANCH  14  16
ATOM     16  C   UNL     1       4.733  -2.946  -0.171  0.00  0.00    +0.055 C 
ATOM     17  C   UNL     1       4.329  -4.441  -0.209  0.00  0.00    +0.028 C 
ATOM     18  C   UNL     1       4.186  -4.794   1.292  0.00  0.00    +0.002 C 
ATOM     19  C   UNL     1       5.328  -4.014   1.975  0.00  0.00    +0.002 C 
ATOM     20  C   UNL     1       5.676  -2.839   1.045  0.00  0.00    +0.028 C 
BRANCH  16  21
ATOM     21  C   UNL     1       5.468  -2.554  -1.455  0.00  0.00    +0.181 C 
BRANCH  21  22
ATOM     22  O   UNL     1       4.558  -2.597  -2.556  0.00  0.00    -0.393 OA
ATOM     23  H   UNL     1       4.956  -2.359  -3.405  0.00  0.00    +0.209 HD
ENDBRANCH  21  22
ENDBRANCH  16  21
ENDBRANCH  14  16
ENDBRANCH   7  14
TORSDOF 5
