REMARK  Name = ZINC49601448
REMARK  14 active torsions:
REMARK  status: ('A' for Active; 'I' for Inactive)
REMARK    1  A    between atoms: C_1  and  C_2
REMARK    2  A    between atoms: C_2  and  O_4
REMARK    3  A    between atoms: O_4  and  C_5
REMARK    4  A    between atoms: C_9  and  C_43
REMARK    5  A    between atoms: C_9  and  C_44
REMARK    6  A    between atoms: C_12  and  C_42
REMARK    7  A    between atoms: C_16  and  C_41
REMARK    8  A    between atoms: C_18  and  O_40
REMARK    9  A    between atoms: C_23  and  O_36
REMARK   10  A    between atoms: C_25  and  O_27
REMARK   11  A    between atoms: O_27  and  C_28
REMARK   12  A    between atoms: C_28  and  C_30
REMARK   13  A    between atoms: O_36  and  C_37
REMARK   14  A    between atoms: C_37  and  C_39
REMARK                            x       y       z     vdW  Elec       q    Type
REMARK                         _______ _______ _______ _____ _____    ______ ____
ROOT
ATOM      1  C   UNL     1      -0.768  -1.162  -0.586  0.00  0.00    +0.183 C 
ATOM      2  C   UNL     1      -0.123  -0.898   0.775  0.00  0.00    +0.046 C 
ATOM      3  C   UNL     1       0.446  -2.193   1.337  0.00  0.00    +0.010 C 
ATOM      4  C   UNL     1      -0.631  -3.268   1.470  0.00  0.00    -0.028 C 
ATOM      5  C   UNL     1      -1.385  -3.474   0.155  0.00  0.00    +0.049 C 
ATOM      6  C   UNL     1      -1.909  -2.172  -0.442  0.00  0.00    +0.018 C 
ATOM      7  C   UNL     1      -2.552  -2.431  -1.797  0.00  0.00    -0.013 C 
ATOM      8  C   UNL     1      -3.723  -3.424  -1.718  0.00  0.00    +0.008 C 
ATOM      9  C   UNL     1      -4.718  -2.989  -2.816  0.00  0.00    +0.010 C 
ATOM     10  C   UNL     1      -4.092  -1.756  -3.504  0.00  0.00    -0.006 C 
ATOM     11  C   UNL     1      -3.191  -1.149  -2.382  0.00  0.00    +0.017 C 
ATOM     12  C   UNL     1      -3.140  -2.218  -4.613  0.00  0.00    +0.121 C 
ATOM     13  C   UNL     1      -2.263  -3.356  -4.098  0.00  0.00    +0.039 C 
ATOM     14  C   UNL     1      -1.532  -2.947  -2.807  0.00  0.00    +0.043 C 
ATOM     15  C   UNL     1      -0.797  -4.166  -2.289  0.00  0.00    +0.221 C 
ATOM     16  C   UNL     1      -0.487  -4.230  -0.813  0.00  0.00    +0.222 C 
ATOM     17  C   UNL     1      -5.144  -0.762  -4.004  0.00  0.00    +0.014 C 
ATOM     18  C   UNL     1      -2.995  -1.545   0.445  0.00  0.00    +0.016 C 
ATOM     19  C   UNL     1      -1.561  -2.945   2.641  0.00  0.00    +0.011 C 
ATOM     20  C   UNL     1       0.094  -4.569   1.879  0.00  0.00    +0.011 C 
ENDROOT
BRANCH  12  21
ATOM     21  O   UNL     1      -3.894  -2.664  -5.742  0.00  0.00    -0.391 OA
ATOM     22  H   UNL     1      -3.351  -2.971  -6.481  0.00  0.00    +0.210 HD
ENDBRANCH  12  21
BRANCH   1  23
ATOM     23  O   UNL     1      -1.270   0.082  -1.084  0.00  0.00    -0.461 OA
BRANCH  23  25
ATOM     24  C   UNL     1      -0.885   2.154  -2.370  0.00  0.00    +0.136 C 
ATOM     25  C   UNL     1      -0.427   0.831  -1.812  0.00  0.00    +0.304 C 
ATOM     26  O   UNL     1       0.698   0.444  -2.021  0.00  0.00    -0.251 OA
ENDBRANCH  23  25
ENDBRANCH   1  23
BRANCH  16  27
ATOM     27  O   UNL     1      -0.534  -5.640  -0.483  0.00  0.00    -0.454 OA
BRANCH  27  28
ATOM     28  C   UNL     1       0.555  -6.375  -0.781  0.00  0.00    +0.340 C 
ATOM     29  O   UNL     1       1.543  -5.838  -1.242  0.00  0.00    -0.245 OA
BRANCH  28  30
ATOM     30  C   UNL     1       0.549  -7.833  -0.547  0.00  0.00    +0.059 A 
ATOM     31  C   UNL     1      -0.586  -8.455  -0.023  0.00  0.00    +0.015 A 
ATOM     32  C   UNL     1      -0.585  -9.817   0.193  0.00  0.00    +0.001 A 
ATOM     33  C   UNL     1       0.537 -10.568  -0.109  0.00  0.00    +0.000 A 
ATOM     34  C   UNL     1       1.666  -9.959  -0.628  0.00  0.00    +0.001 A 
ATOM     35  C   UNL     1       1.676  -8.598  -0.855  0.00  0.00    +0.015 A 
ENDBRANCH  28  30
ENDBRANCH  27  28
ENDBRANCH  16  27
BRANCH  15  36
ATOM     36  O   UNL     1      -1.493  -5.363  -2.672  0.00  0.00    -0.457 OA
BRANCH  36  37
ATOM     37  C   UNL     1      -1.036  -6.015  -3.752  0.00  0.00    +0.304 C 
ATOM     38  O   UNL     1      -0.044  -5.622  -4.320  0.00  0.00    -0.251 OA
ATOM     39  C   UNL     1      -1.759  -7.237  -4.258  0.00  0.00    +0.136 C 
ENDBRANCH  36  37
ENDBRANCH  15  36
TORSDOF 8
