REMARK  Name = ZINC21302087
REMARK  9 active torsions:
REMARK  status: ('A' for Active; 'I' for Inactive)
REMARK    1  A    between atoms: C_13  and  C_14
REMARK    2  A    between atoms: C_14  and  O_15
REMARK    3  A    between atoms: O_15  and  C_16
REMARK    4  A    between atoms: C_16  and  C_18
REMARK    5  A    between atoms: C_18  and  C_20
REMARK    6  A    between atoms: C_18  and  C_27
REMARK    7  A    between atoms: C_27  and  C_29
REMARK    8  A    between atoms: C_27  and  N_33
REMARK    9  A    between atoms: C_29  and  C_30
REMARK                            x       y       z     vdW  Elec       q    Type
REMARK                         _______ _______ _______ _____ _____    ______ ____
ROOT
ATOM      1  C   UNL     1      -2.356   7.064   2.355  0.00  0.00    +0.313 C 
ATOM      2  O   UNL     1      -1.938   7.736   3.268  0.00  0.00    -0.250 OA
ENDROOT
BRANCH   1   3
ATOM      3  O   UNL     1      -1.504   6.554   1.452  0.00  0.00    -0.463 OA
BRANCH   3   4
ATOM      4  C   UNL     1      -0.087   6.767   1.689  0.00  0.00    +0.245 C 
BRANCH   4  17
ATOM      5  C   UNL     1       0.893   1.964   0.395  0.00  0.00    +0.001 A 
ATOM      6  C   UNL     1      -0.365   2.520   0.242  0.00  0.00    +0.000 A 
ATOM      7  C   UNL     1      -0.524   3.894   0.272  0.00  0.00    +0.005 A 
ATOM      8  C   UNL     1       0.572   4.713   0.442  0.00  0.00    -0.029 A 
ATOM      9  C   UNL     1       1.843   4.163   0.591  0.00  0.00    -0.014 A 
ATOM     10  C   UNL     1       1.995   2.776   0.565  0.00  0.00    +0.009 A 
ATOM     11  C   UNL     1       2.836   5.253   0.756  0.00  0.00    -0.014 A 
ATOM     12  C   UNL     1       4.220   5.216   0.934  0.00  0.00    +0.009 A 
ATOM     13  C   UNL     1       4.930   6.392   1.065  0.00  0.00    +0.001 A 
ATOM     14  C   UNL     1       4.275   7.610   1.020  0.00  0.00    +0.000 A 
ATOM     15  C   UNL     1       2.904   7.654   0.842  0.00  0.00    +0.005 A 
ATOM     16  C   UNL     1       2.187   6.483   0.711  0.00  0.00    -0.029 A 
ATOM     17  C   UNL     1       0.716   6.214   0.510  0.00  0.00    +0.088 C 
ENDBRANCH   4  17
ENDBRANCH   3   4
ENDBRANCH   1   3
BRANCH   1  18
ATOM     18  C   UNL     1      -3.834   6.798   2.231  0.00  0.00    +0.114 C 
BRANCH  18  19
ATOM     19  C   UNL     1      -4.491   7.942   1.504  0.00  0.00    -0.035 A 
ATOM     20  C   UNL     1      -4.430   9.220   2.027  0.00  0.00    +0.005 A 
ATOM     21  C   UNL     1      -5.028  10.271   1.358  0.00  0.00    +0.015 A 
ATOM     22  C   UNL     1      -5.698  10.042   0.170  0.00  0.00    +0.018 A 
ATOM     23  C   UNL     1      -5.764   8.762  -0.351  0.00  0.00    +0.015 A 
ATOM     24  C   UNL     1      -5.160   7.713   0.316  0.00  0.00    +0.005 A 
ATOM     25 BR   UNL     1      -6.523  11.478  -0.743  0.00  0.00    -0.050 Br
ENDBRANCH  18  19
BRANCH  18  26
ATOM     26  C   UNL     1      -4.447   6.661   3.626  0.00  0.00    -0.046 C 
BRANCH  26  27
ATOM     27  N   UNL     1      -5.902   6.497   3.508  0.00  0.00    +0.381 N 
ATOM     28  H   UNL     1      -6.343   6.399   4.511  0.00  0.00    -0.090 HD
ATOM     29  H   UNL     1      -6.123   5.594   2.921  0.00  0.00    -0.090 HD
ATOM     30  H   UNL     1      -6.330   7.377   3.004  0.00  0.00    -0.090 HD
ENDBRANCH  26  27
BRANCH  26  31
ATOM     31  C   UNL     1      -3.852   5.438   4.327  0.00  0.00    +0.110 C 
BRANCH  31  32
ATOM     32  C   UNL     1      -4.342   5.387   5.751  0.00  0.00    +0.354 C 
ATOM     33  O   UNL     1      -5.091   6.241   6.163  0.00  0.00    -0.246 OA
ATOM     34  O   UNL     1      -3.947   4.393   6.562  0.00  0.00    -0.246 OA
ENDBRANCH  31  32
ENDBRANCH  26  31
ENDBRANCH  18  26
ENDBRANCH   1  18
TORSDOF 9
