REMARK  Name = ZINC40968959
REMARK  15 active torsions:
REMARK  status: ('A' for Active; 'I' for Inactive)
REMARK    1  A    between atoms: C_1  and  C_2
REMARK    2  A    between atoms: C_2  and  O_3
REMARK    3  A    between atoms: O_3  and  C_4
REMARK    4  A    between atoms: C_4  and  C_6
REMARK    5  A    between atoms: C_13  and  C_15
REMARK    6  A    between atoms: N_18  and  C_21
REMARK    7  A    between atoms: C_21  and  C_22
REMARK    8  A    between atoms: C_23  and  C_39
REMARK    9  A    between atoms: C_25  and  C_27
REMARK   10  A    between atoms: C_29  and  O_37
REMARK   11  A    between atoms: C_30  and  O_35
REMARK   12  A    between atoms: C_31  and  O_33
REMARK   13  A    between atoms: O_33  and  C_34
REMARK   14  A    between atoms: O_35  and  C_36
REMARK   15  A    between atoms: O_37  and  C_38
REMARK                            x       y       z     vdW  Elec       q    Type
REMARK                         _______ _______ _______ _____ _____    ______ ____
ROOT
ATOM      1  C   UNL     1      -6.006  -5.910   0.701  0.00  0.00    +0.072 C 
ATOM      2  C   UNL     1      -6.957  -4.711   0.763  0.00  0.00    -0.006 C 
ATOM      3  C   UNL     1      -8.402  -5.212   0.771  0.00  0.00    -0.078 C 
ATOM      4  N   UNL     1      -8.619  -6.071   1.942  0.00  0.00    +0.383 N 
ATOM      5  C   UNL     1      -7.762  -7.260   1.853  0.00  0.00    -0.078 C 
ATOM      6  C   UNL     1      -6.292  -6.837   1.886  0.00  0.00    -0.006 C 
ATOM      7  H   UNL     1      -8.394  -5.558   2.781  0.00  0.00    -0.081 HD
ENDROOT
BRANCH   1  14
ATOM      8  C   UNL     1      -3.720  -5.785  -2.634  0.00  0.00    +0.115 C 
ATOM      9  C   UNL     1      -2.353  -5.096  -2.665  0.00  0.00    +0.018 C 
ATOM     10  C   UNL     1      -1.716  -5.160  -1.275  0.00  0.00    +0.020 C 
ATOM     11  C   UNL     1      -2.608  -4.421  -0.273  0.00  0.00    +0.108 C 
ATOM     12  N   UNL     1      -3.964  -4.983  -0.342  0.00  0.00    -0.300 N 
ATOM     13  C   UNL     1      -4.635  -5.053  -1.648  0.00  0.00    +0.122 C 
ATOM     14  C   UNL     1      -4.581  -5.427   0.771  0.00  0.00    +0.219 C 
ATOM     15  O   UNL     1      -3.988  -5.438   1.829  0.00  0.00    -0.275 OA
BRANCH   8  16
ATOM     16  C   UNL     1      -4.332  -5.750  -4.010  0.00  0.00    +0.312 C 
ATOM     17  O   UNL     1      -5.392  -5.197  -4.186  0.00  0.00    -0.250 OA
BRANCH  16  18
ATOM     18  O   UNL     1      -3.700  -6.332  -5.042  0.00  0.00    -0.465 OA
BRANCH  18  20
ATOM     19  C   UNL     1      -3.476  -6.973  -7.361  0.00  0.00    +0.048 C 
ATOM     20  C   UNL     1      -4.338  -6.259  -6.318  0.00  0.00    +0.229 C 
ENDBRANCH  18  20
ENDBRANCH  16  18
ENDBRANCH   8  16
ENDBRANCH   1  14
BRANCH   4  21
ATOM     21  C   UNL     1     -10.027  -6.487   1.988  0.00  0.00    -0.019 C 
BRANCH  21  22
ATOM     22  C   UNL     1     -10.280  -7.266   3.253  0.00  0.00    +0.066 A 
ATOM     23  C   UNL     1     -10.152  -8.597   3.402  0.00  0.00    +0.124 A 
ATOM     24  O   UNL     1     -10.469  -8.889   4.680  0.00  0.00    -0.440 OA
ATOM     25  C   UNL     1     -10.786  -7.737   5.296  0.00  0.00    +0.228 A 
ATOM     26  N   UNL     1     -10.666  -6.755   4.432  0.00  0.00    -0.216 NA
ATOM     27  C   UNL     1      -9.733  -9.579   2.339  0.00  0.00    +0.088 C 
BRANCH  25  28
ATOM     28  C   UNL     1     -11.195  -7.598   6.709  0.00  0.00    +0.044 A 
ATOM     29  C   UNL     1     -11.505  -6.339   7.226  0.00  0.00    +0.062 A 
ATOM     30  C   UNL     1     -11.888  -6.212   8.550  0.00  0.00    +0.166 A 
ATOM     31  C   UNL     1     -11.963  -7.337   9.364  0.00  0.00    +0.204 A 
ATOM     32  C   UNL     1     -11.655  -8.593   8.851  0.00  0.00    +0.166 A 
ATOM     33  C   UNL     1     -11.278  -8.726   7.527  0.00  0.00    +0.062 A 
BRANCH  32  34
ATOM     34  O   UNL     1     -11.730  -9.691   9.650  0.00  0.00    -0.491 OA
ATOM     35  C   UNL     1     -11.400 -10.948   9.057  0.00  0.00    +0.277 C 
ENDBRANCH  32  34
BRANCH  31  36
ATOM     36  O   UNL     1     -12.339  -7.209  10.665  0.00  0.00    -0.488 OA
ATOM     37  C   UNL     1     -13.736  -7.309  10.950  0.00  0.00    +0.277 C 
ENDBRANCH  31  36
BRANCH  30  38
ATOM     38  O   UNL     1     -12.190  -4.985   9.054  0.00  0.00    -0.491 OA
ATOM     39  C   UNL     1     -12.090  -3.874   8.162  0.00  0.00    +0.277 C 
ENDBRANCH  30  38
ENDBRANCH  25  28
ENDBRANCH  21  22
ENDBRANCH   4  21
TORSDOF 10
