REMARK  Name = ZINC39451534
REMARK  4 active torsions:
REMARK  status: ('A' for Active; 'I' for Inactive)
REMARK    1  A    between atoms: C_1  and  S_2
REMARK    2  A    between atoms: S_2  and  N_3
REMARK    3  A    between atoms: C_11  and  C_14
REMARK    4  A    between atoms: C_19  and  O_20
REMARK                            x       y       z     vdW  Elec       q    Type
REMARK                         _______ _______ _______ _____ _____    ______ ____
ROOT
ATOM      1  N   UNL     1       0.824  -0.401   1.384  0.00  0.00    -0.245 N 
ATOM      2  C   UNL     1       2.205  -0.539   1.327  0.00  0.00    +0.122 A 
ATOM      3  C   UNL     1       2.934  -0.864   2.457  0.00  0.00    +0.083 A 
ATOM      4  C   UNL     1       2.242  -1.076   3.735  0.00  0.00    +0.099 A 
ATOM      5  C   UNL     1       0.837  -0.932   3.765  0.00  0.00    +0.068 A 
ATOM      6  C   UNL     1       0.133  -0.574   2.525  0.00  0.00    +0.271 A 
ATOM      7  O   UNL     1      -1.077  -0.439   2.530  0.00  0.00    -0.266 OA
ATOM      8  C   UNL     1       0.156  -1.127   4.964  0.00  0.00    +0.025 A 
ATOM      9  C   UNL     1       0.905  -1.460   6.094  0.00  0.00    +0.004 A 
ATOM     10  C   UNL     1       2.294  -1.585   5.984  0.00  0.00    +0.120 A 
ATOM     11  N   UNL     1       2.909  -1.395   4.839  0.00  0.00    -0.252 NA
ATOM     12  N   UNL     1       4.309  -0.980   2.380  0.00  0.00    -0.329 N 
ATOM     13  C   UNL     1       5.015  -0.223   1.336  0.00  0.00    +0.141 C 
ATOM     14  C   UNL     1       4.360  -0.540  -0.013  0.00  0.00    +0.114 C 
ATOM     15  C   UNL     1       2.871  -0.340   0.096  0.00  0.00    +0.185 C 
ATOM     16  O   UNL     1       2.235  -0.005  -0.883  0.00  0.00    -0.290 OA
ATOM     17  I   UNL     1       4.864   1.895   1.742  0.00  0.00    -0.061 I 
ATOM     18  H   UNL     1       4.795  -1.547   2.999  0.00  0.00    +0.147 HD
ENDROOT
BRANCH   9  19
ATOM     19  C   UNL     1       0.235  -1.679   7.398  0.00  0.00    +0.025 A 
ATOM     20  C   UNL     1      -0.676  -0.742   7.884  0.00  0.00    +0.012 A 
ATOM     21  C   UNL     1      -1.297  -0.952   9.098  0.00  0.00    +0.001 A 
ATOM     22  C   UNL     1      -1.020  -2.089   9.836  0.00  0.00    +0.004 A 
ATOM     23  C   UNL     1      -0.119  -3.025   9.364  0.00  0.00    +0.046 A 
ATOM     24  C   UNL     1       0.509  -2.830   8.144  0.00  0.00    +0.125 A 
BRANCH  24  25
ATOM     25  O   UNL     1       1.390  -3.752   7.677  0.00  0.00    -0.506 OA
ATOM     26  H   UNL     1       2.304  -3.596   7.951  0.00  0.00    +0.292 HD
ENDBRANCH  24  25
ENDBRANCH   9  19
BRANCH   1  28
ATOM     27  C   UNL     1      -0.022   1.810   0.012  0.00  0.00    +0.110 C 
ATOM     28  S   UNL     1       0.002  -0.004   0.002  0.00  0.00    -0.044 S 
ENDBRANCH   1  28
TORSDOF 3
