REMARK  Name = ZINC04731174
REMARK  11 active torsions:
REMARK  status: ('A' for Active; 'I' for Inactive)
REMARK    1  A    between atoms: C_1  and  C_2
REMARK    2  A    between atoms: C_8  and  C_28
REMARK    3  A    between atoms: C_12  and  C_14
REMARK    4  A    between atoms: C_12  and  C_17
REMARK    5  A    between atoms: C_14  and  C_15
REMARK    6  A    between atoms: C_15  and  O_16
REMARK    7  A    between atoms: C_17  and  O_18
REMARK    8  A    between atoms: C_21  and  O_27
REMARK    9  A    between atoms: C_23  and  C_24
REMARK   10  A    between atoms: C_23  and  C_25
REMARK   11  A    between atoms: C_25  and  O_26
REMARK                            x       y       z     vdW  Elec       q    Type
REMARK                         _______ _______ _______ _____ _____    ______ ____
ROOT
ATOM      1  C   UNL     1      -1.025   1.627   1.492  0.00  0.00    +0.010 C 
ATOM      2  C   UNL     1      -0.729   0.190   1.075  0.00  0.00    +0.018 C 
ATOM      3  C   UNL     1      -0.608   0.106  -0.445  0.00  0.00    +0.006 C 
ATOM      4  C   UNL     1       0.754   0.631  -0.913  0.00  0.00    +0.005 C 
ATOM      5  C   UNL     1       1.837  -0.222  -0.253  0.00  0.00    +0.008 C 
ATOM      6  C   UNL     1       1.818  -0.001   1.253  0.00  0.00    +0.001 C 
ATOM      7  C   UNL     1       0.449  -0.429   1.792  0.00  0.00    +0.079 C 
ATOM      8  C   UNL     1       0.385  -0.195   3.315  0.00  0.00    +0.039 C 
ATOM      9  C   UNL     1      -0.678  -1.247   3.735  0.00  0.00    +0.040 C 
ATOM     10  C   UNL     1      -0.390  -2.407   2.759  0.00  0.00    +0.095 C 
ATOM     11  O   UNL     1       0.364  -1.872   1.665  0.00  0.00    -0.364 OA
ATOM     12  C   UNL     1       2.894  -0.891   1.895  0.00  0.00    +0.012 C 
ATOM     13  C   UNL     1       4.262  -0.536   1.317  0.00  0.00    +0.032 C 
ATOM     14  C   UNL     1       4.290  -0.820  -0.179  0.00  0.00    +0.123 C 
ATOM     15  C   UNL     1       3.183  -0.077  -0.927  0.00  0.00    +0.020 C 
ATOM     16  C   UNL     1       3.584   1.383  -1.136  0.00  0.00    +0.016 C 
ATOM     17  C   UNL     1       2.098   1.445   1.646  0.00  0.00    +0.014 C 
ENDROOT
BRANCH  14  18
ATOM     18  O   UNL     1       5.560  -0.423  -0.712  0.00  0.00    -0.391 OA
ATOM     19  H   UNL     1       6.313  -0.883  -0.318  0.00  0.00    +0.210 HD
ENDBRANCH  14  18
BRANCH  10  20
ATOM     20  C   UNL     1       0.428  -3.486   3.477  0.00  0.00    +0.065 C 
BRANCH  20  21
ATOM     21  C   UNL     1       1.684  -2.856   4.083  0.00  0.00    +0.158 C 
BRANCH  21  22
ATOM     22  O   UNL     1       2.406  -3.845   4.819  0.00  0.00    -0.395 OA
ATOM     23  H   UNL     1       3.216  -3.515   5.231  0.00  0.00    +0.209 HD
ENDBRANCH  21  22
ENDBRANCH  20  21
ENDBRANCH  10  20
BRANCH  10  24
ATOM     24  C   UNL     1      -1.704  -3.013   2.262  0.00  0.00    +0.190 C 
BRANCH  24  25
ATOM     25  O   UNL     1      -1.422  -4.102   1.381  0.00  0.00    -0.392 OA
ATOM     26  H   UNL     1      -2.211  -4.535   1.026  0.00  0.00    +0.210 HD
ENDBRANCH  24  25
ENDBRANCH  10  24
BRANCH  15  27
ATOM     27  C   UNL     1       3.092  -0.728  -2.330  0.00  0.00    +0.165 C 
BRANCH  27  28
ATOM     28  O   UNL     1       4.352  -0.607  -2.993  0.00  0.00    -0.394 OA
ATOM     29  H   UNL     1       4.369  -0.994  -3.879  0.00  0.00    +0.209 HD
ENDBRANCH  27  28
ENDBRANCH  15  27
TORSDOF 8
