REMARK  Name = ZINC11790569
REMARK  12 active torsions:
REMARK  status: ('A' for Active; 'I' for Inactive)
REMARK    1  A    between atoms: C_1  and  C_2
REMARK    2  A    between atoms: C_2  and  C_3
REMARK    3  A    between atoms: C_2  and  C_4
REMARK    4  A    between atoms: C_4  and  C_6
REMARK    5  A    between atoms: C_4  and  N_63
REMARK    6  A    between atoms: C_6  and  O_8
REMARK    7  A    between atoms: O_8  and  C_9
REMARK    8  A    between atoms: C_10  and  N_63
REMARK    9  A    between atoms: N_13  and  C_16
REMARK   10  A    between atoms: C_19  and  N_22
REMARK   11  A    between atoms: C_23  and  C_25
REMARK   12  A    between atoms: C_25  and  C_26
REMARK                            x       y       z     vdW  Elec       q    Type
REMARK                         _______ _______ _______ _____ _____    ______ ____
ROOT
ATOM      1  C   UNL     1      -5.250  -0.786   3.462  0.00  0.00    +0.030 A 
ATOM      2  C   UNL     1      -5.040  -1.794   4.394  0.00  0.00    +0.025 A 
ATOM      3  C   UNL     1      -6.095  -2.583   4.807  0.00  0.00    +0.025 A 
ATOM      4  C   UNL     1      -7.363  -2.377   4.281  0.00  0.00    +0.034 A 
ATOM      5  C   UNL     1      -7.572  -1.373   3.345  0.00  0.00    +0.025 A 
ATOM      6  C   UNL     1      -6.519  -0.580   2.937  0.00  0.00    +0.025 A 
ENDROOT
BRANCH   1  10
ATOM      7  C   UNL     1      -1.627   0.616   1.844  0.00  0.00    -0.068 C 
ATOM      8  C   UNL     1      -2.949   0.974   1.159  0.00  0.00    +0.003 C 
ATOM      9  C   UNL     1      -4.027  -0.023   1.589  0.00  0.00    +0.103 C 
ATOM     10  N   UNL     1      -4.183   0.018   3.049  0.00  0.00    -0.330 N 
ATOM     11  C   UNL     1      -2.939  -0.369   3.726  0.00  0.00    +0.103 C 
ATOM     12  C   UNL     1      -1.829   0.619   3.362  0.00  0.00    +0.003 C 
BRANCH   7  13
ATOM     13  N   UNL     1      -0.601   1.615   1.488  0.00  0.00    +0.390 N 
ATOM     14  H   UNL     1      -1.054   2.521   1.323  0.00  0.00    -0.084 HD
ATOM     15  H   UNL     1       0.069   1.702   2.261  0.00  0.00    -0.084 HD
BRANCH  13  16
ATOM     16  C   UNL     1       0.115   1.200   0.267  0.00  0.00    +0.042 C 
BRANCH  16  18
ATOM     17  C   UNL     1      -0.291   3.403  -0.839  0.00  0.00    +0.006 C 
ATOM     18  C   UNL     1       0.784   2.423  -0.363  0.00  0.00    -0.021 C 
ATOM     19  C   UNL     1       1.675   3.108   0.675  0.00  0.00    +0.006 C 
ENDBRANCH  16  18
BRANCH  16  20
ATOM     20  C   UNL     1       1.167   0.180   0.622  0.00  0.00    +0.293 C 
ATOM     21  O   UNL     1       1.303  -0.172   1.770  0.00  0.00    -0.253 OA
BRANCH  20  22
ATOM     22  O   UNL     1       1.952  -0.337  -0.336  0.00  0.00    -0.469 OA
ATOM     23  C   UNL     1       2.942  -1.314   0.079  0.00  0.00    +0.280 C 
ENDBRANCH  20  22
ENDBRANCH  16  20
ENDBRANCH  13  16
ENDBRANCH   7  13
ENDBRANCH   1  10
BRANCH   4  24
ATOM     24  N   UNL     1      -8.432  -3.183   4.695  0.00  0.00    -0.285 N 
ATOM     25  C   UNL     1      -9.403  -3.517   3.821  0.00  0.00    +0.222 C 
ATOM     26  O   UNL     1      -9.301  -3.204   2.654  0.00  0.00    -0.275 OA
ATOM     27  H   UNL     1      -8.474  -3.501   5.611  0.00  0.00    +0.155 HD
BRANCH  25  28
ATOM     28  C   UNL     1     -10.614  -4.278   4.295  0.00  0.00    +0.131 C 
BRANCH  28  29
ATOM     29  C   UNL     1     -11.540  -4.523   3.131  0.00  0.00    -0.036 A 
ATOM     30  C   UNL     1     -12.529  -3.604   2.829  0.00  0.00    +0.004 A 
ATOM     31  C   UNL     1     -13.375  -3.826   1.759  0.00  0.00    +0.003 A 
ATOM     32  C   UNL     1     -13.241  -4.970   0.996  0.00  0.00    +0.038 A 
ATOM     33  C   UNL     1     -12.255  -5.893   1.301  0.00  0.00    +0.124 A 
ATOM     34  C   UNL     1     -11.404  -5.668   2.370  0.00  0.00    +0.042 A 
ATOM     35  F   UNL     1     -12.124  -7.013   0.556  0.00  0.00    -0.205 F 
ENDBRANCH  28  29
ENDBRANCH  25  28
ENDBRANCH   4  24
TORSDOF 9
