REMARK  Name = ZINC35293031
REMARK  14 active torsions:
REMARK  status: ('A' for Active; 'I' for Inactive)
REMARK    1  A    between atoms: C_1  and  C_2
REMARK    2  A    between atoms: C_2  and  C_3
REMARK    3  A    between atoms: C_3  and  N_4
REMARK    4  A    between atoms: N_4  and  C_5
REMARK    5  A    between atoms: C_5  and  C_6
REMARK    6  A    between atoms: C_6  and  C_7
REMARK    7  A    between atoms: C_8  and  C_10
REMARK    8  A    between atoms: C_10  and  S_11
REMARK    9  A    between atoms: S_11  and  C_12
REMARK   10  A    between atoms: C_23  and  C_26
REMARK   11  A    between atoms: N_29  and  C_30
REMARK   12  A    between atoms: C_30  and  C_31
REMARK   13  A    between atoms: C_30  and  C_32
REMARK   14  A    between atoms: C_30  and  C_33
REMARK                            x       y       z     vdW  Elec       q    Type
REMARK                         _______ _______ _______ _____ _____    ______ ____
ROOT
ATOM      1  C   UNL     1      -1.935  -6.769  -2.275  0.00  0.00    +0.192 A 
ATOM      2  N   UNL     1      -1.715  -7.426  -3.404  0.00  0.00    -0.207 NA
ATOM      3  C   UNL     1      -1.702  -8.755  -3.423  0.00  0.00    +0.127 A 
ATOM      4  C   UNL     1      -1.923  -9.452  -2.233  0.00  0.00    +0.083 A 
ATOM      5  C   UNL     1      -2.148  -8.728  -1.077  0.00  0.00    +0.135 A 
ATOM      6  N   UNL     1      -2.143  -7.403  -1.130  0.00  0.00    -0.210 NA
ATOM      7 CL   UNL     1      -2.428  -9.544   0.429  0.00  0.00    -0.062 Cl
ATOM      8  N   UNL     1      -1.473  -9.439  -4.606  0.00  0.00    -0.312 N 
ATOM      9  C   UNL     1      -1.225  -8.709  -5.856  0.00  0.00    +0.125 C 
ATOM     10  C   UNL     1      -2.237  -9.181  -6.908  0.00  0.00    +0.128 C 
ATOM     11  N   UNL     1      -2.236 -10.650  -6.934  0.00  0.00    -0.280 N 
ATOM     12  C   UNL     1      -2.484 -11.381  -5.683  0.00  0.00    +0.092 C 
ATOM     13  C   UNL     1      -1.466 -10.909  -4.631  0.00  0.00    +0.128 C 
ATOM     14  C   UNL     1      -2.316 -12.882  -5.924  0.00  0.00    +0.030 C 
ATOM     15  C   UNL     1      -2.013 -11.315  -8.085  0.00  0.00    +0.303 C 
ATOM     16  O   UNL     1      -2.117 -12.527  -8.117  0.00  0.00    -0.253 OA
ATOM     17  N   UNL     1      -1.675 -10.639  -9.200  0.00  0.00    -0.294 N 
ATOM     18  H   UNL     1      -1.663  -9.669  -9.194  0.00  0.00    +0.151 HD
ENDROOT
BRANCH  17  19
ATOM     19  C   UNL     1      -1.326 -11.367 -10.422  0.00  0.00    +0.028 C 
ATOM     20  C   UNL     1      -2.512 -12.230 -10.858  0.00  0.00    +0.031 C 
ATOM     21  C   UNL     1      -0.985 -10.370 -11.531  0.00  0.00    +0.031 C 
ATOM     22  C   UNL     1      -0.115 -12.264 -10.152  0.00  0.00    +0.031 C 
ENDBRANCH  17  19
BRANCH   1  23
ATOM     23  S   UNL     1      -1.944  -5.007  -2.295  0.00  0.00    -0.077 S 
BRANCH  23  24
ATOM     24  C   UNL     1      -2.267  -4.550  -0.569  0.00  0.00    +0.173 C 
BRANCH  24  26
ATOM     25  N   UNL     1      -2.526  -2.477   0.755  0.00  0.00    -0.301 N 
ATOM     26  C   UNL     1      -2.300  -3.049  -0.445  0.00  0.00    +0.226 C 
ATOM     27  O   UNL     1      -2.124  -2.355  -1.424  0.00  0.00    -0.275 OA
BRANCH  25  28
ATOM     28  C   UNL     1      -2.559  -1.017   0.875  0.00  0.00    +0.107 C 
BRANCH  28  30
ATOM     29  C   UNL     1      -1.186   1.026   1.307  0.00  0.00    +0.005 C 
ATOM     30  C   UNL     1      -1.152  -0.499   1.181  0.00  0.00    +0.016 C 
ENDBRANCH  28  30
ENDBRANCH  25  28
BRANCH  25  31
ATOM     31  C   UNL     1      -2.740  -3.315   1.937  0.00  0.00    +0.107 C 
BRANCH  31  32
ATOM     32  C   UNL     1      -4.232  -3.616   2.086  0.00  0.00    +0.016 C 
ATOM     33  C   UNL     1      -4.455  -4.491   3.321  0.00  0.00    +0.005 C 
ENDBRANCH  31  32
ENDBRANCH  25  31
ENDBRANCH  24  26
ENDBRANCH  23  24
ENDBRANCH   1  23
TORSDOF 8
