REMARK  Name = ZINC46294148
REMARK  9 active torsions:
REMARK  status: ('A' for Active; 'I' for Inactive)
REMARK    1  A    between atoms: C_1  and  C_2
REMARK    2  A    between atoms: C_2  and  C_4
REMARK    3  A    between atoms: C_2  and  N_10
REMARK    4  A    between atoms: C_11  and  C_13
REMARK    5  A    between atoms: C_13  and  C_15
REMARK    6  A    between atoms: C_13  and  N_19
REMARK    7  A    between atoms: C_15  and  C_16
REMARK    8  A    between atoms: C_16  and  S_17
REMARK    9  A    between atoms: S_17  and  C_18
REMARK                            x       y       z     vdW  Elec       q    Type
REMARK                         _______ _______ _______ _____ _____    ______ ____
ROOT
ATOM      1  N   UNL     1       0.711  -0.489   1.189  0.00  0.00    -0.307 N 
ATOM      2  C   UNL     1       0.051  -0.633   2.355  0.00  0.00    +0.234 C 
ATOM      3  O   UNL     1      -1.129  -0.361   2.423  0.00  0.00    -0.274 OA
ATOM      4  H   UNL     1       1.654  -0.707   1.135  0.00  0.00    +0.149 HD
ENDROOT
BRANCH   1   6
ATOM      5  C   UNL     1      -0.019   1.526   0.010  0.00  0.00    +0.033 C 
ATOM      6  C   UNL     1       0.002  -0.004   0.002  0.00  0.00    +0.107 C 
BRANCH   6   7
ATOM      7  C   UNL     1       0.707  -0.490  -1.238  0.00  0.00    +0.011 A 
ATOM      8  C   UNL     1       0.176  -0.943  -2.400  0.00  0.00    +0.014 A 
ATOM      9  C   UNL     1       1.026  -1.341  -3.415  0.00  0.00    +0.028 A 
ATOM     10  C   UNL     1       2.366  -1.267  -3.218  0.00  0.00    +0.078 A 
ATOM     11  S   UNL     1       2.459  -0.612  -1.560  0.00  0.00    -0.080 S 
ATOM     12 CL   UNL     1       3.656  -1.693  -4.299  0.00  0.00    -0.076 Cl
ENDBRANCH   6   7
ENDBRANCH   1   6
BRANCH   2  13
ATOM     13  C   UNL     1       0.780  -1.133   3.576  0.00  0.00    +0.161 C 
BRANCH  13  14
ATOM     14  N   UNL     1      -0.189  -1.651   4.545  0.00  0.00    -0.288 N 
ATOM     15  C   UNL     1      -1.142  -0.840   5.045  0.00  0.00    +0.298 C 
ATOM     16  O   UNL     1      -1.199   0.322   4.691  0.00  0.00    -0.253 OA
ATOM     17  N   UNL     1      -2.034  -1.317   5.936  0.00  0.00    -0.313 N 
ATOM     18  H   UNL     1      -0.144  -2.578   4.828  0.00  0.00    +0.151 HD
ATOM     19  H   UNL     1      -1.988  -2.244   6.219  0.00  0.00    +0.146 HD
ATOM     20  H   UNL     1      -2.720  -0.733   6.295  0.00  0.00    +0.146 HD
ENDBRANCH  13  14
BRANCH  13  21
ATOM     21  C   UNL     1       1.567   0.018   4.207  0.00  0.00    +0.042 C 
BRANCH  21  22
ATOM     22  C   UNL     1       2.404  -0.514   5.371  0.00  0.00    +0.071 C 
BRANCH  22  23
ATOM     23  S   UNL     1       3.337   0.851   6.119  0.00  0.00    -0.164 S 
ATOM     24  C   UNL     1       4.264   0.063   7.464  0.00  0.00    +0.084 C 
ENDBRANCH  22  23
ENDBRANCH  21  22
ENDBRANCH  13  21
ENDBRANCH   2  13
TORSDOF 7
