REMARK  Name = ZINC25783888
REMARK  12 active torsions:
REMARK  status: ('A' for Active; 'I' for Inactive)
REMARK    1  A    between atoms: C_1  and  C_2
REMARK    2  A    between atoms: C_5  and  S_8
REMARK    3  A    between atoms: S_8  and  N_11
REMARK    4  A    between atoms: N_11  and  N_12
REMARK    5  A    between atoms: C_13  and  C_14
REMARK    6  A    between atoms: C_23  and  O_24
REMARK    7  A    between atoms: O_24  and  C_25
REMARK    8  A    between atoms: C_25  and  C_27
REMARK    9  A    between atoms: C_30  and  O_35
REMARK   10  A    between atoms: C_31  and  O_33
REMARK   11  A    between atoms: O_33  and  C_34
REMARK   12  A    between atoms: O_35  and  C_36
REMARK                            x       y       z     vdW  Elec       q    Type
REMARK                         _______ _______ _______ _____ _____    ______ ____
ROOT
ATOM      1  C   UNL     1      -2.384   5.635   0.194  0.00  0.00    +0.045 A 
ATOM      2  C   UNL     1      -3.655   6.348   0.310  0.00  0.00    -0.006 A 
ATOM      3  C   UNL     1      -3.713   7.747   0.280  0.00  0.00    +0.009 A 
ATOM      4  C   UNL     1      -4.918   8.374   0.391  0.00  0.00    +0.001 A 
ATOM      5  C   UNL     1      -6.094   7.642   0.534  0.00  0.00    +0.001 A 
ATOM      6  C   UNL     1      -6.074   6.281   0.567  0.00  0.00    +0.008 A 
ATOM      7  C   UNL     1      -4.849   5.601   0.456  0.00  0.00    -0.017 A 
ATOM      8  C   UNL     1      -4.788   4.197   0.485  0.00  0.00    +0.012 A 
ATOM      9  C   UNL     1      -3.599   3.549   0.370  0.00  0.00    +0.047 A 
ATOM     10  C   UNL     1      -2.397   4.241   0.231  0.00  0.00    +0.141 A 
ENDROOT
BRANCH   1  12
ATOM     11  N   UNL     1      -1.134   7.663  -0.096  0.00  0.00    -0.174 NA
ATOM     12  C   UNL     1      -1.121   6.371   0.042  0.00  0.00    +0.143 C 
BRANCH  11  13
ATOM     13  N   UNL     1       0.059   8.353  -0.349  0.00  0.00    -0.137 N 
ATOM     14  H   UNL     1       0.882   7.861  -0.494  0.00  0.00    +0.197 HD
BRANCH  13  15
ATOM     15  S   UNL     1       0.063  10.008  -0.400  0.00  0.00    +0.086 S 
ATOM     16  O   UNL     1       1.420  10.407  -0.537  0.00  0.00    -0.149 OA
ATOM     17  O   UNL     1      -0.940  10.389  -1.332  0.00  0.00    -0.149 OA
BRANCH  15  22
ATOM     18  C   UNL     1      -1.773  11.965   5.004  0.00  0.00    +0.044 C 
ATOM     19  C   UNL     1      -1.314  11.476   3.655  0.00  0.00    -0.050 A 
ATOM     20  C   UNL     1       0.036  11.355   3.386  0.00  0.00    +0.005 A 
ATOM     21  C   UNL     1       0.457  10.907   2.147  0.00  0.00    +0.029 A 
ATOM     22  C   UNL     1      -0.473  10.579   1.178  0.00  0.00    +0.110 A 
ATOM     23  C   UNL     1      -1.823  10.705   1.446  0.00  0.00    +0.029 A 
ATOM     24  C   UNL     1      -2.244  11.149   2.685  0.00  0.00    +0.005 A 
ENDBRANCH  15  22
ENDBRANCH  13  15
ENDBRANCH  11  13
ENDBRANCH   1  12
BRANCH  10  25
ATOM     25  O   UNL     1      -1.230   3.553   0.125  0.00  0.00    -0.422 OA
BRANCH  25  26
ATOM     26  C   UNL     1      -0.542   3.337   1.263  0.00  0.00    +0.345 C 
ATOM     27  O   UNL     1      -1.015   3.669   2.332  0.00  0.00    -0.245 OA
BRANCH  26  28
ATOM     28  C   UNL     1       0.786   2.697   1.211  0.00  0.00    +0.063 A 
ATOM     29  C   UNL     1       1.283   2.213  -0.002  0.00  0.00    +0.019 A 
ATOM     30  C   UNL     1       2.521   1.610  -0.048  0.00  0.00    +0.050 A 
ATOM     31  C   UNL     1       3.277   1.482   1.110  0.00  0.00    +0.162 A 
ATOM     32  C   UNL     1       2.787   1.962   2.323  0.00  0.00    +0.162 A 
ATOM     33  C   UNL     1       1.547   2.568   2.376  0.00  0.00    +0.064 A 
BRANCH  32  34
ATOM     34  O   UNL     1       3.531   1.835   3.455  0.00  0.00    -0.491 OA
ATOM     35  C   UNL     1       2.967   2.350   4.663  0.00  0.00    +0.277 C 
ENDBRANCH  32  34
BRANCH  31  36
ATOM     36  O   UNL     1       4.497   0.888   1.060  0.00  0.00    -0.491 OA
ATOM     37  C   UNL     1       4.938   0.418  -0.216  0.00  0.00    +0.277 C 
ENDBRANCH  31  36
ENDBRANCH  26  28
ENDBRANCH  25  26
ENDBRANCH  10  25
TORSDOF 9
