REMARK  Name = ZINC59246010
REMARK  13 active torsions:
REMARK  status: ('A' for Active; 'I' for Inactive)
REMARK    1  A    between atoms: C_1  and  C_2
REMARK    2  A    between atoms: C_2  and  O_3
REMARK    3  A    between atoms: O_3  and  C_4
REMARK    4  A    between atoms: C_6  and  C_17
REMARK    5  A    between atoms: C_9  and  O_10
REMARK    6  A    between atoms: O_10  and  C_11
REMARK    7  A    between atoms: C_11  and  C_12
REMARK    8  A    between atoms: C_12  and  O_14
REMARK    9  A    between atoms: O_14  and  C_15
REMARK   10  A    between atoms: C_15  and  C_16
REMARK   11  A    between atoms: N_18  and  C_19
REMARK   12  A    between atoms: C_20  and  C_28
REMARK   13  A    between atoms: N_30  and  C_31
REMARK                            x       y       z     vdW  Elec       q    Type
REMARK                         _______ _______ _______ _____ _____    ______ ____
ROOT
ATOM      1  C   UNL     1      -0.622  -7.096   1.202  0.00  0.00    +0.114 A 
ATOM      2  C   UNL     1      -0.615  -8.496   1.224  0.00  0.00    +0.073 A 
ATOM      3  C   UNL     1      -1.227  -9.153   2.307  0.00  0.00    -0.023 A 
ATOM      4  C   UNL     1      -1.787  -8.372   3.262  0.00  0.00    -0.004 A 
ATOM      5  S   UNL     1      -1.488  -6.712   2.715  0.00  0.00    -0.073 S 
ATOM      6  C   UNL     1      -2.495  -8.819   4.503  0.00  0.00    +0.043 C 
ATOM      7  C   UNL     1      -2.823 -10.312   4.363  0.00  0.00    +0.005 C 
ATOM      8  C   UNL     1      -1.568 -11.047   3.881  0.00  0.00    +0.005 C 
ATOM      9  C   UNL     1      -1.273 -10.675   2.427  0.00  0.00    +0.037 C 
ENDROOT
BRANCH   2  10
ATOM     10  C   UNL     1       0.017  -9.260   0.143  0.00  0.00    +0.247 C 
ATOM     11  O   UNL     1       1.193  -9.564   0.219  0.00  0.00    -0.270 OA
ATOM     12  N   UNL     1      -0.705  -9.625  -0.935  0.00  0.00    -0.308 N 
ATOM     13  H   UNL     1      -1.643  -9.382  -0.996  0.00  0.00    +0.149 HD
BRANCH  12  14
ATOM     14  C   UNL     1      -0.075 -10.388  -2.015  0.00  0.00    +0.073 C 
ATOM     15  C   UNL     1       0.614  -9.425  -2.985  0.00  0.00    +0.022 C 
ATOM     16  C   UNL     1       1.272 -10.222  -4.113  0.00  0.00    +0.002 C 
ATOM     17  C   UNL     1       0.205 -11.024  -4.861  0.00  0.00    +0.000 C 
ATOM     18  C   UNL     1      -0.483 -11.986  -3.891  0.00  0.00    +0.002 C 
ATOM     19  C   UNL     1      -1.142 -11.189  -2.763  0.00  0.00    +0.022 C 
ENDBRANCH  12  14
ENDBRANCH   2  10
BRANCH   1  21
ATOM     20  C   UNL     1      -0.208  -4.963   0.442  0.00  0.00    +0.120 C 
ATOM     21  N   UNL     1      -0.104  -6.257   0.280  0.00  0.00    -0.247 NA
BRANCH  20  24
ATOM     22  C   UNL     1       0.777  -1.811  -1.336  0.00  0.00    +0.163 A 
ATOM     23  C   UNL     1       0.245  -2.664  -0.390  0.00  0.00    +0.058 A 
ATOM     24  C   UNL     1       0.355  -4.050  -0.561  0.00  0.00    -0.003 A 
ATOM     25  C   UNL     1       1.005  -4.561  -1.691  0.00  0.00    +0.013 A 
ATOM     26  C   UNL     1       1.533  -3.702  -2.629  0.00  0.00    +0.050 A 
ATOM     27  C   UNL     1       1.418  -2.329  -2.461  0.00  0.00    +0.163 A 
BRANCH  22  28
ATOM     28  O   UNL     1       0.671  -0.465  -1.174  0.00  0.00    -0.489 OA
BRANCH  28  30
ATOM     29  C   UNL     1      -0.019   1.526   0.010  0.00  0.00    +0.048 C 
ATOM     30  C   UNL     1       0.002  -0.004   0.002  0.00  0.00    +0.226 C 
ENDBRANCH  28  30
ENDBRANCH  22  28
BRANCH  27  31
ATOM     31  O   UNL     1       1.935  -1.487  -3.393  0.00  0.00    -0.477 OA
BRANCH  31  32
ATOM     32  C   UNL     1       2.578  -2.084  -4.521  0.00  0.00    +0.349 C 
BRANCH  32  33
ATOM     33  C   UNL     1       3.086  -1.003  -5.440  0.00  0.00    +0.345 C 
ATOM     34  O   UNL     1       2.915   0.159  -5.158  0.00  0.00    -0.247 OA
BRANCH  33  35
ATOM     35  O   UNL     1       3.729  -1.332  -6.572  0.00  0.00    -0.463 OA
BRANCH  35  36
ATOM     36  C   UNL     1       4.183  -0.256  -7.396  0.00  0.00    +0.229 C 
ATOM     37  C   UNL     1       4.887  -0.822  -8.631  0.00  0.00    +0.048 C 
ENDBRANCH  35  36
ENDBRANCH  33  35
ENDBRANCH  32  33
ENDBRANCH  31  32
ENDBRANCH  27  31
ENDBRANCH  20  24
ENDBRANCH   1  21
TORSDOF 11
