REMARK  Name = ZINC10395928
REMARK  8 active torsions:
REMARK  status: ('A' for Active; 'I' for Inactive)
REMARK    1  A    between atoms: C_1  and  C_2
REMARK    2  A    between atoms: C_4  and  C_31
REMARK    3  A    between atoms: C_6  and  C_8
REMARK    4  A    between atoms: N_10  and  C_11
REMARK    5  A    between atoms: C_11  and  C_12
REMARK    6  A    between atoms: C_12  and  O_14
REMARK    7  A    between atoms: O_14  and  C_15
REMARK    8  A    between atoms: C_15  and  C_16
REMARK                            x       y       z     vdW  Elec       q    Type
REMARK                         _______ _______ _______ _____ _____    ______ ____
ROOT
ATOM      1  C   UNL     1       1.741   2.699   6.261  0.00  0.00    +0.308 C 
ENDROOT
BRANCH   1   2
ATOM      2  C   UNL     1       1.113   2.306   4.949  0.00  0.00    +0.170 A 
ATOM      3  N   UNL     1       1.886   1.892   3.961  0.00  0.00    -0.214 NA
ATOM      4  C   UNL     1       1.396   1.533   2.785  0.00  0.00    +0.128 A 
ATOM      5  C   UNL     1      -0.010   1.594   2.575  0.00  0.00    +0.051 A 
ATOM      6  C   UNL     1      -0.771   1.244   1.367  0.00  0.00    -0.025 A 
ATOM      7  C   UNL     1      -2.105   1.407   1.426  0.00  0.00    -0.004 A 
ATOM      8  S   UNL     1      -2.433   1.997   3.067  0.00  0.00    -0.073 S 
ATOM      9  C   UNL     1      -0.768   2.045   3.672  0.00  0.00    +0.114 A 
ATOM     10  N   UNL     1      -0.197   2.383   4.812  0.00  0.00    -0.221 NA
ATOM     11  C   UNL     1      -3.107   1.150   0.343  0.00  0.00    +0.043 C 
ATOM     12  C   UNL     1      -2.857  -0.237  -0.263  0.00  0.00    +0.005 C 
ATOM     13  C   UNL     1      -1.872  -0.085  -1.417  0.00  0.00    +0.001 C 
ATOM     14  C   UNL     1      -0.888   1.045  -1.120  0.00  0.00    +0.005 C 
ATOM     15  C   UNL     1      -0.064   0.721   0.120  0.00  0.00    +0.037 C 
ATOM     16  N   UNL     1       2.239   1.105   1.775  0.00  0.00    -0.343 N 
ATOM     17  H   UNL     1       1.911   0.493   1.098  0.00  0.00    +0.144 HD
ATOM     18  H   UNL     1       3.157   1.416   1.745  0.00  0.00    +0.144 HD
ENDBRANCH   1   2
BRANCH   1  19
ATOM     19  O   UNL     1       1.820   1.536   7.127  0.00  0.00    -0.456 OA
BRANCH  19  20
ATOM     20  C   UNL     1       2.359   1.717   8.343  0.00  0.00    +0.325 C 
ATOM     21  O   UNL     1       2.752   2.811   8.673  0.00  0.00    -0.249 OA
BRANCH  20  22
ATOM     22  C   UNL     1       2.475   0.556   9.297  0.00  0.00    +0.225 C 
BRANCH  22  25
ATOM     23  C   UNL     1       3.296   0.137  11.552  0.00  0.00    +0.245 C 
ATOM     24  O   UNL     1       2.970  -1.027  11.423  0.00  0.00    -0.270 OA
ATOM     25  N   UNL     1       3.091   1.010  10.546  0.00  0.00    -0.301 N 
ATOM     26  H   UNL     1       3.352   1.938  10.649  0.00  0.00    +0.150 HD
BRANCH  23  32
ATOM     27  C   UNL     1       5.283   3.792  14.308  0.00  0.00    +0.044 C 
ATOM     28  C   UNL     1       4.876   2.350  14.143  0.00  0.00    -0.049 A 
ATOM     29  C   UNL     1       5.085   1.452  15.173  0.00  0.00    +0.006 A 
ATOM     30  C   UNL     1       4.714   0.126  15.030  0.00  0.00    -0.049 A 
ATOM     31  C   UNL     1       4.132  -0.307  13.857  0.00  0.00    +0.016 A 
ATOM     32  C   UNL     1       3.919   0.594  12.812  0.00  0.00    +0.037 A 
ATOM     33  C   UNL     1       4.301   1.929  12.962  0.00  0.00    +0.016 A 
ATOM     34  C   UNL     1       4.945  -0.846  16.158  0.00  0.00    +0.044 C 
ENDBRANCH  23  32
ENDBRANCH  22  25
ENDBRANCH  20  22
ENDBRANCH  19  20
ENDBRANCH   1  19
TORSDOF 6
