REMARK  Name = ZINC33617603
REMARK  10 active torsions:
REMARK  status: ('A' for Active; 'I' for Inactive)
REMARK    1  A    between atoms: C_1  and  C_2
REMARK    2  A    between atoms: C_2  and  C_3
REMARK    3  A    between atoms: C_3  and  C_4
REMARK    4  A    between atoms: C_4  and  N_5
REMARK    5  A    between atoms: C_6  and  C_8
REMARK    6  A    between atoms: C_8  and  S_9
REMARK    7  A    between atoms: S_9  and  C_10
REMARK    8  A    between atoms: C_14  and  C_18
REMARK    9  A    between atoms: N_20  and  C_21
REMARK   10  A    between atoms: C_26  and  C_27
REMARK                            x       y       z     vdW  Elec       q    Type
REMARK                         _______ _______ _______ _____ _____    ______ ____
ROOT
ATOM      1  C   UNL     1       3.140  -6.528  -5.433  0.00  0.00    +0.177 A 
ATOM      2  N   UNL     1       3.563  -5.540  -6.189  0.00  0.00    -0.201 NA
ATOM      3  C   UNL     1       4.218  -5.780  -7.343  0.00  0.00    +0.187 A 
ATOM      4  C   UNL     1       4.444  -7.184  -7.728  0.00  0.00    +0.079 A 
ATOM      5  C   UNL     1       5.123  -7.159  -8.926  0.00  0.00    +0.046 A 
ATOM      6  N   UNL     1       5.308  -5.876  -9.265  0.00  0.00    -0.279 N 
ATOM      7  H   UNL     1       5.760  -5.572 -10.067  0.00  0.00    +0.189 HD
ATOM      8  N   UNL     1       4.750  -5.040  -8.290  0.00  0.00    -0.153 NA
ATOM      9  C   UNL     1       5.577  -8.361  -9.715  0.00  0.00    +0.066 C 
ATOM     10  C   UNL     1       3.940  -8.219  -6.829  0.00  0.00    +0.115 A 
ATOM     11  N   UNL     1       3.316  -7.823  -5.720  0.00  0.00    -0.276 N 
ATOM     12  N   UNL     1       4.109  -9.554  -7.114  0.00  0.00    -0.344 N 
ATOM     13  H   UNL     1       4.570  -9.823  -7.924  0.00  0.00    +0.144 HD
ATOM     14  H   UNL     1       3.767 -10.227  -6.505  0.00  0.00    +0.144 HD
ENDROOT
BRANCH  11  15
ATOM     15  C   UNL     1       2.833  -8.774  -4.847  0.00  0.00    +0.054 A 
ATOM     16  C   UNL     1       1.540  -9.272  -5.001  0.00  0.00    +0.026 A 
ATOM     17  C   UNL     1       1.061 -10.225  -4.124  0.00  0.00    +0.003 A 
ATOM     18  C   UNL     1       1.861 -10.686  -3.094  0.00  0.00    +0.020 A 
ATOM     19  C   UNL     1       3.145 -10.195  -2.937  0.00  0.00    +0.046 A 
ATOM     20  C   UNL     1       3.637  -9.246  -3.812  0.00  0.00    -0.008 A 
ATOM     21  C   UNL     1       5.038  -8.717  -3.643  0.00  0.00    +0.047 C 
ATOM     22 CL   UNL     1       4.143 -10.779  -1.641  0.00  0.00    -0.083 Cl
ENDBRANCH  11  15
BRANCH   1  23
ATOM     23  S   UNL     1       2.294  -6.122  -3.942  0.00  0.00    -0.078 S 
BRANCH  23  24
ATOM     24  C   UNL     1       2.269  -4.308  -3.932  0.00  0.00    +0.173 C 
BRANCH  24  26
ATOM     25  N   UNL     1       1.425  -2.500  -2.470  0.00  0.00    -0.315 N 
ATOM     26  C   UNL     1       1.564  -3.822  -2.692  0.00  0.00    +0.223 C 
ATOM     27  O   UNL     1       1.121  -4.620  -1.894  0.00  0.00    -0.275 OA
ATOM     28  H   UNL     1       1.779  -1.861  -3.109  0.00  0.00    +0.149 HD
BRANCH  25  29
ATOM     29  C   UNL     1       0.739  -2.027  -1.265  0.00  0.00    +0.104 C 
BRANCH  29  30
ATOM     30  C   UNL     1       0.718  -0.497  -1.257  0.00  0.00    +0.018 C 
BRANCH  30  32
ATOM     31  C   UNL     1      -0.019   1.526   0.010  0.00  0.00    +0.004 C 
ATOM     32  C   UNL     1       0.002  -0.004   0.002  0.00  0.00    -0.002 C 
ENDBRANCH  30  32
ENDBRANCH  29  30
ENDBRANCH  25  29
ENDBRANCH  24  26
ENDBRANCH  23  24
ENDBRANCH   1  23
TORSDOF 7
