REMARK  Name = ZINC32526604
REMARK  7 active torsions:
REMARK  status: ('A' for Active; 'I' for Inactive)
REMARK    1  A    between atoms: C_1  and  C_2
REMARK    2  A    between atoms: C_2  and  C_3
REMARK    3  A    between atoms: C_3  and  C_5
REMARK    4  A    between atoms: C_3  and  N_20
REMARK    5  A    between atoms: N_7  and  C_8
REMARK    6  A    between atoms: C_9  and  C_17
REMARK    7  A    between atoms: C_27  and  C_31
REMARK                            x       y       z     vdW  Elec       q    Type
REMARK                         _______ _______ _______ _____ _____    ______ ____
ROOT
ATOM      1  C   UNL     1       4.460   3.650   1.143  0.00  0.00    +0.241 C 
ATOM      2  O   UNL     1       4.031   4.489   1.906  0.00  0.00    -0.273 OA
ATOM      3  N   UNL     1       5.691   3.134   1.331  0.00  0.00    -0.278 N 
ATOM      4  H   UNL     1       6.079   2.372   0.639  0.00  0.00    +0.155 HD
ENDROOT
BRANCH   3   5
ATOM      5  C   UNL     1       6.467   3.563   2.396  0.00  0.00    +0.084 A 
ATOM      6  C   UNL     1       7.743   3.152   2.755  0.00  0.00    +0.068 A 
ATOM      7  C   UNL     1       8.343   3.768   3.925  0.00  0.00    -0.023 A 
ATOM      8  C   UNL     1       7.573   4.684   4.553  0.00  0.00    -0.004 A 
ATOM      9  S   UNL     1       6.077   4.739   3.608  0.00  0.00    -0.077 S 
ATOM     10  C   UNL     1       7.921   5.471   5.778  0.00  0.00    +0.043 C 
ATOM     11  C   UNL     1       9.141   4.816   6.442  0.00  0.00    +0.005 C 
ATOM     12  C   UNL     1      10.203   4.551   5.371  0.00  0.00    +0.005 C 
ATOM     13  C   UNL     1       9.736   3.429   4.442  0.00  0.00    +0.037 C 
BRANCH   6  14
ATOM     14  C   UNL     1       8.460   2.135   1.979  0.00  0.00    +0.244 C 
ATOM     15  O   UNL     1       9.172   2.469   1.050  0.00  0.00    -0.270 OA
ATOM     16  N   UNL     1       8.330   0.831   2.294  0.00  0.00    -0.325 N 
ATOM     17  H   UNL     1       8.868   0.069   1.712  0.00  0.00    +0.145 HD
ATOM     18  H   UNL     1       7.686   0.529   3.133  0.00  0.00    +0.145 HD
ENDBRANCH   6  14
ENDBRANCH   3   5
BRANCH   1  19
ATOM     19  C   UNL     1       3.616   3.183  -0.015  0.00  0.00    +0.176 C 
BRANCH  19  20
ATOM     20  N   UNL     1       2.332   3.889  -0.000  0.00  0.00    -0.296 N 
ATOM     21  C   UNL     1       1.164   3.171   0.141  0.00  0.00    +0.053 A 
ATOM     22  C   UNL     1       1.185   1.786   0.269  0.00  0.00    +0.026 A 
ATOM     23  C   UNL     1       0.002   1.093   0.408  0.00  0.00    +0.002 A 
ATOM     24  C   UNL     1      -1.214   1.764   0.418  0.00  0.00    +0.001 A 
ATOM     25  C   UNL     1      -1.259   3.123   0.299  0.00  0.00    +0.010 A 
ATOM     26  C   UNL     1      -0.071   3.847   0.156  0.00  0.00    +0.002 A 
ATOM     27  C   UNL     1      -0.083   5.305   0.021  0.00  0.00    -0.036 A 
ATOM     28  C   UNL     1       1.100   5.953  -0.114  0.00  0.00    +0.074 A 
ATOM     29  C   UNL     1       2.311   5.227  -0.124  0.00  0.00    +0.253 A 
ATOM     30  O   UNL     1       3.364   5.829  -0.247  0.00  0.00    -0.268 OA
ATOM     31  C   UNL     1      -1.382   6.068   0.032  0.00  0.00    +0.044 C 
ENDBRANCH  19  20
BRANCH  19  33
ATOM     32  C   UNL     1       3.547   2.892  -2.496  0.00  0.00    +0.006 C 
ATOM     33  C   UNL     1       4.344   3.477  -1.328  0.00  0.00    +0.031 C 
ENDBRANCH  19  33
ENDBRANCH   1  19
TORSDOF 5
