REMARK  Name = ZINC45069172
REMARK  1 active torsions:
REMARK  status: ('A' for Active; 'I' for Inactive)
REMARK    1  A    between atoms: N_6  and  C_7
REMARK                            x       y       z     vdW  Elec       q    Type
REMARK                         _______ _______ _______ _____ _____    ______ ____
ROOT
ATOM      1  C   UNL     1      -1.360  -0.549   0.069  0.00  0.00    +0.124 C 
ATOM      2  C   UNL     1      -2.041  -0.642  -1.301  0.00  0.00    +0.240 C 
ATOM      3  S   UNL     1      -2.935  -2.127  -0.760  0.00  0.00    -0.005 S 
ATOM      4  O   UNL     1      -2.940  -3.155  -1.741  0.00  0.00    -0.172 OA
ATOM      5  O   UNL     1      -4.076  -1.825   0.032  0.00  0.00    -0.172 OA
ATOM      6  C   UNL     1      -1.393  -2.064   0.180  0.00  0.00    +0.114 C 
ATOM      7  C   UNL     1      -0.205  -2.817  -0.436  0.00  0.00    +0.058 C 
ATOM      8  C   UNL     1       0.626  -3.248   0.752  0.00  0.00    -0.029 C 
ATOM      9  C   UNL     1      -0.054  -3.152   1.864  0.00  0.00    -0.029 C 
ATOM     10  C   UNL     1      -1.455  -2.640   1.603  0.00  0.00    +0.058 C 
ATOM     11 CL   UNL     1      -3.130   0.753  -1.646  0.00  0.00    -0.095 Cl
ENDROOT
BRANCH   1  17
ATOM     12  C   UNL     1       0.655  -0.053   1.319  0.00  0.00    +0.113 C 
ATOM     13  C   UNL     1       2.089   0.468   1.191  0.00  0.00    +0.175 C 
ATOM     14  O   UNL     1       2.063   1.791   0.647  0.00  0.00    -0.377 OA
ATOM     15  C   UNL     1       1.435   1.875  -0.635  0.00  0.00    +0.175 C 
ATOM     16  C   UNL     1      -0.005   1.368  -0.525  0.00  0.00    +0.113 C 
ATOM     17  N   UNL     1       0.002  -0.004   0.002  0.00  0.00    -0.290 NA
ENDBRANCH   1  17
TORSDOF 1
