REMARK  Name = ZINC00925579
REMARK  10 active torsions:
REMARK  status: ('A' for Active; 'I' for Inactive)
REMARK    1  A    between atoms: C_1  and  C_2
REMARK    2  A    between atoms: C_2  and  C_3
REMARK    3  A    between atoms: C_2  and  C_4
REMARK    4  A    between atoms: C_2  and  C_5
REMARK    5  A    between atoms: C_8  and  S_11
REMARK    6  A    between atoms: S_11  and  N_14
REMARK    7  A    between atoms: N_14  and  C_15
REMARK    8  A    between atoms: N_14  and  C_25
REMARK    9  A    between atoms: C_15  and  C_16
REMARK   10  A    between atoms: C_25  and  C_26
REMARK                            x       y       z     vdW  Elec       q    Type
REMARK                         _______ _______ _______ _____ _____    ______ ____
ROOT
ATOM      1  N   UNL     1       6.084  -0.966   0.852  0.00  0.00    -0.168 NA
ENDROOT
BRANCH   1   2
ATOM      2  S   UNL     1       6.856   0.396   0.311  0.00  0.00    +0.061 S 
ATOM      3  O   UNL     1       6.936   0.281  -1.104  0.00  0.00    -0.153 OA
ATOM      4  O   UNL     1       6.231   1.499   0.952  0.00  0.00    -0.153 OA
BRANCH   2   8
ATOM      5  C   UNL     1      11.105   0.234   1.864  0.00  0.00    -0.042 A 
ATOM      6  C   UNL     1      10.775  -0.407   0.684  0.00  0.00    +0.006 A 
ATOM      7  C   UNL     1       9.478  -0.358   0.210  0.00  0.00    +0.029 A 
ATOM      8  C   UNL     1       8.510   0.332   0.915  0.00  0.00    +0.106 A 
ATOM      9  C   UNL     1       8.840   0.978   2.092  0.00  0.00    +0.029 A 
ATOM     10  C   UNL     1      10.137   0.924   2.569  0.00  0.00    +0.006 A 
BRANCH   5  12
ATOM     11  C   UNL     1      13.464   0.797   1.348  0.00  0.00    +0.015 C 
ATOM     12  C   UNL     1      12.519   0.180   2.381  0.00  0.00    -0.013 C 
ATOM     13  C   UNL     1      12.613   0.964   3.691  0.00  0.00    +0.015 C 
ATOM     14  C   UNL     1      12.916  -1.277   2.629  0.00  0.00    +0.015 C 
ENDBRANCH   5  12
ENDBRANCH   2   8
ENDBRANCH   1   2
BRANCH   1  15
ATOM     15  C   UNL     1       5.285  -0.916   2.079  0.00  0.00    +0.145 C 
BRANCH  15  16
ATOM     16  C   UNL     1       6.128  -1.363   3.246  0.00  0.00    -0.028 A 
ATOM     17  C   UNL     1       6.785  -0.427   4.021  0.00  0.00    +0.009 A 
ATOM     18  C   UNL     1       7.560  -0.833   5.092  0.00  0.00    +0.050 A 
ATOM     19  C   UNL     1       7.679  -2.180   5.391  0.00  0.00    +0.166 A 
ATOM     20  C   UNL     1       7.016  -3.124   4.610  0.00  0.00    +0.167 A 
ATOM     21  C   UNL     1       6.241  -2.710   3.538  0.00  0.00    +0.054 A 
ATOM     22  O   UNL     1       7.289  -4.367   5.102  0.00  0.00    -0.453 OA
ATOM     23  C   UNL     1       7.792  -4.151   6.434  0.00  0.00    +0.466 C 
ATOM     24  O   UNL     1       8.367  -2.833   6.373  0.00  0.00    -0.453 OA
ENDBRANCH  15  16
ENDBRANCH   1  15
BRANCH   1  25
ATOM     25  C   UNL     1       6.200  -2.220   0.104  0.00  0.00    +0.150 C 
BRANCH  25  26
ATOM     26  C   UNL     1       5.030  -2.355  -0.836  0.00  0.00    +0.033 A 
ATOM     27  C   UNL     1       5.148  -1.947  -2.125  0.00  0.00    +0.020 A 
ATOM     28  C   UNL     1       3.996  -2.096  -3.014  0.00  0.00    +0.003 A 
ATOM     29  C   UNL     1       4.062  -1.697  -4.354  0.00  0.00    +0.059 A 
ATOM     30  C   UNL     1       2.958  -1.845  -5.168  0.00  0.00    +0.163 A 
ATOM     31  C   UNL     1       1.776  -2.391  -4.658  0.00  0.00    +0.164 A 
ATOM     32  C   UNL     1       1.702  -2.788  -3.333  0.00  0.00    +0.075 A 
ATOM     33  C   UNL     1       2.805  -2.645  -2.501  0.00  0.00    +0.053 A 
ATOM     34  N   UNL     1       2.748  -3.034  -1.178  0.00  0.00    -0.322 N 
ATOM     35  H   UNL     1       1.902  -3.423  -0.815  0.00  0.00    +0.169 HD
ATOM     36  C   UNL     1       3.815  -2.898  -0.371  0.00  0.00    +0.254 A 
ATOM     37  O   UNL     1       3.729  -3.252   0.792  0.00  0.00    -0.268 OA
ATOM     38  O   UNL     1       0.684  -2.545  -5.455  0.00  0.00    -0.485 OA
ATOM     39  C   UNL     1       0.666  -1.796  -6.674  0.00  0.00    +0.270 C 
ATOM     40  C   UNL     1       2.032  -1.954  -7.356  0.00  0.00    +0.270 C 
ATOM     41  O   UNL     1       3.037  -1.450  -6.469  0.00  0.00    -0.485 OA
ENDBRANCH  25  26
ENDBRANCH   1  25
TORSDOF 7
