REMARK  Name = ZINC33059081
REMARK  10 active torsions:
REMARK  status: ('A' for Active; 'I' for Inactive)
REMARK    1  A    between atoms: C_1  and  C_2
REMARK    2  A    between atoms: C_5  and  C_8
REMARK    3  A    between atoms: C_9  and  C_10
REMARK    4  A    between atoms: C_11  and  S_16
REMARK    5  A    between atoms: C_12  and  C_15
REMARK    6  A    between atoms: S_16  and  N_19
REMARK    7  A    between atoms: C_23  and  C_26
REMARK    8  A    between atoms: N_28  and  C_29
REMARK    9  A    between atoms: C_29  and  C_30
REMARK   10  A    between atoms: C_30  and  C_31
REMARK                            x       y       z     vdW  Elec       q    Type
REMARK                         _______ _______ _______ _____ _____    ______ ____
ROOT
ATOM      1  S   UNL     1       2.022  -2.021  -0.029  0.00  0.00    +0.066 S 
ATOM      2  O   UNL     1       3.333  -1.930   0.510  0.00  0.00    -0.153 OA
ATOM      3  O   UNL     1       1.027  -2.870   0.527  0.00  0.00    -0.153 OA
ENDROOT
BRANCH   1   5
ATOM      4  C   UNL     1       2.038   0.803  -0.013  0.00  0.00    +0.187 A 
ATOM      5  C   UNL     1       1.356  -0.390  -0.013  0.00  0.00    +0.174 A 
ATOM      6  C   UNL     1       0.002  -0.004   0.002  0.00  0.00    +0.107 A 
ATOM      7  N   UNL     1      -0.016   1.299   0.009  0.00  0.00    -0.081 NA
ATOM      8  O   UNL     1       1.099   1.768   0.001  0.00  0.00    -0.353 OA
ATOM      9  C   UNL     1      -1.194  -0.920   0.009  0.00  0.00    +0.071 C 
BRANCH   4  11
ATOM     10  C   UNL     1       4.013   2.230  -0.024  0.00  0.00    +0.011 C 
ATOM     11  C   UNL     1       3.492   0.988  -0.025  0.00  0.00    +0.051 C 
BRANCH  10  16
ATOM     12  C   UNL     1       9.716   2.955  -0.074  0.00  0.00    +0.044 C 
ATOM     13  C   UNL     1       8.221   2.765  -0.060  0.00  0.00    -0.050 A 
ATOM     14  C   UNL     1       7.387   3.869  -0.047  0.00  0.00    +0.004 A 
ATOM     15  C   UNL     1       6.018   3.704  -0.035  0.00  0.00    +0.008 A 
ATOM     16  C   UNL     1       5.473   2.416  -0.036  0.00  0.00    -0.025 A 
ATOM     17  C   UNL     1       6.323   1.306  -0.044  0.00  0.00    +0.008 A 
ATOM     18  C   UNL     1       7.690   1.488  -0.063  0.00  0.00    +0.004 A 
ENDBRANCH  10  16
ENDBRANCH   4  11
ENDBRANCH   1   5
BRANCH   1  19
ATOM     19  N   UNL     1       2.191  -2.466  -1.615  0.00  0.00    -0.176 NA
ATOM     20  C   UNL     1       3.438  -2.189  -2.341  0.00  0.00    +0.109 C 
ATOM     21  C   UNL     1       3.102  -1.427  -3.626  0.00  0.00    +0.018 C 
ATOM     22  C   UNL     1       2.069  -2.220  -4.430  0.00  0.00    +0.015 C 
ATOM     23  C   UNL     1       0.787  -2.371  -3.608  0.00  0.00    +0.091 C 
ATOM     24  C   UNL     1       1.099  -3.150  -2.321  0.00  0.00    +0.122 C 
BRANCH  23  25
ATOM     25  C   UNL     1      -0.241  -3.124  -4.414  0.00  0.00    +0.217 C 
ATOM     26  O   UNL     1      -0.685  -4.174  -4.000  0.00  0.00    -0.275 OA
ATOM     27  N   UNL     1      -0.666  -2.630  -5.593  0.00  0.00    -0.315 N 
ATOM     28  H   UNL     1      -0.264  -1.678  -5.968  0.00  0.00    +0.149 HD
BRANCH  27  29
ATOM     29  C   UNL     1      -1.665  -3.362  -6.376  0.00  0.00    +0.108 C 
BRANCH  29  30
ATOM     30  C   UNL     1      -1.972  -2.591  -7.661  0.00  0.00    +0.049 C 
BRANCH  30  31
ATOM     31  C   UNL     1      -2.999  -3.344  -8.466  0.00  0.00    -0.072 C 
ATOM     32  C   UNL     1      -4.243  -3.017  -8.321  0.00  0.00    -0.028 C 
ATOM     33  C   UNL     1      -5.377  -3.677  -9.048  0.00  0.00    +0.027 C 
ATOM     34  C   UNL     1      -4.847  -4.465 -10.248  0.00  0.00    +0.004 C 
ATOM     35  C   UNL     1      -3.681  -5.342  -9.776  0.00  0.00    +0.005 C 
ATOM     36  C   UNL     1      -2.517  -4.430  -9.383  0.00  0.00    +0.030 C 
ENDBRANCH  30  31
ENDBRANCH  29  30
ENDBRANCH  27  29
ENDBRANCH  23  25
ENDBRANCH   1  19
TORSDOF 8
