REMARK  Name = ZINC43218169
REMARK  13 active torsions:
REMARK  status: ('A' for Active; 'I' for Inactive)
REMARK    1  A    between atoms: C_1  and  C_2
REMARK    2  A    between atoms: C_2  and  C_3
REMARK    3  A    between atoms: C_3  and  C_4
REMARK    4  A    between atoms: C_4  and  C_6
REMARK    5  A    between atoms: C_4  and  N_35
REMARK    6  A    between atoms: C_8  and  C_11
REMARK    7  A    between atoms: N_13  and  C_14
REMARK    8  A    between atoms: C_14  and  C_15
REMARK    9  A    between atoms: C_15  and  C_34
REMARK   10  A    between atoms: C_19  and  C_33
REMARK   11  A    between atoms: C_28  and  C_30
REMARK   12  A    between atoms: C_30  and  C_31
REMARK   13  A    between atoms: C_30  and  C_32
REMARK                            x       y       z     vdW  Elec       q    Type
REMARK                         _______ _______ _______ _____ _____    ______ ____
ROOT
ATOM      1  C   UNL     1      -5.619  -5.639   5.451  0.00  0.00    -0.013 C 
ATOM      2  C   UNL     1      -4.760  -4.391   5.668  0.00  0.00    +0.008 C 
ATOM      3  C   UNL     1      -5.599  -3.188   6.082  0.00  0.00    +0.001 C 
ATOM      4  C   UNL     1      -6.364  -3.502   7.369  0.00  0.00    +0.011 C 
ATOM      5  C   UNL     1      -7.309  -4.676   7.125  0.00  0.00    -0.003 C 
ATOM      6  C   UNL     1      -6.543  -5.884   6.622  0.00  0.00    +0.007 C 
ATOM      7  C   UNL     1      -7.512  -7.044   6.404  0.00  0.00    +0.009 C 
ATOM      8  C   UNL     1      -7.991  -7.521   7.776  0.00  0.00    +0.036 C 
ATOM      9  C   UNL     1      -8.317  -6.373   8.693  0.00  0.00    -0.043 A 
ATOM     10  C   UNL     1      -8.007  -5.060   8.413  0.00  0.00    -0.038 A 
ATOM     11  C   UNL     1      -8.340  -4.059   9.309  0.00  0.00    +0.005 A 
ATOM     12  C   UNL     1      -8.980  -4.366  10.494  0.00  0.00    +0.004 A 
ATOM     13  C   UNL     1      -9.292  -5.681  10.782  0.00  0.00    -0.045 A 
ATOM     14  C   UNL     1      -8.964  -6.677   9.886  0.00  0.00    +0.007 A 
ATOM     15  C   UNL     1      -8.401  -4.233   6.152  0.00  0.00    +0.016 C 
ATOM     16  C   UNL     1      -4.642  -6.835   5.345  0.00  0.00    +0.013 C 
ENDROOT
BRANCH  13  17
ATOM     17  C   UNL     1      -9.990  -6.027  12.072  0.00  0.00    +0.013 C 
ATOM     18  C   UNL     1      -9.123  -5.587  13.254  0.00  0.00    +0.012 C 
ATOM     19  C   UNL     1     -11.338  -5.306  12.132  0.00  0.00    +0.012 C 
ENDBRANCH  13  17
BRANCH   1  20
ATOM     20  C   UNL     1      -6.364  -5.542   4.121  0.00  0.00    +0.111 C 
BRANCH  20  23
ATOM     21  C   UNL     1      -5.827  -5.330   1.754  0.00  0.00    +0.266 C 
ATOM     22  O   UNL     1      -7.020  -5.334   1.513  0.00  0.00    -0.268 OA
ATOM     23  N   UNL     1      -5.396  -5.429   3.027  0.00  0.00    -0.309 N 
ATOM     24  H   UNL     1      -4.445  -5.426   3.218  0.00  0.00    +0.149 HD
BRANCH  21  27
ATOM     25  C   UNL     1      -2.983  -5.087  -0.417  0.00  0.00    +0.182 A 
ATOM     26  N   UNL     1      -3.499  -5.198   0.770  0.00  0.00    -0.210 NA
ATOM     27  C   UNL     1      -4.854  -5.216   0.652  0.00  0.00    +0.163 A 
ATOM     28  C   UNL     1      -5.142  -5.110  -0.674  0.00  0.00    +0.230 A 
ATOM     29  O   UNL     1      -3.970  -5.026  -1.323  0.00  0.00    -0.449 OA
BRANCH  25  30
ATOM     30  C   UNL     1      -1.510  -5.030  -0.727  0.00  0.00    +0.013 C 
BRANCH  30  31
ATOM     31  N   UNL     1      -1.215  -5.905  -1.869  0.00  0.00    +0.386 N 
ATOM     32  H   UNL     1      -1.740  -5.597  -2.674  0.00  0.00    -0.089 HD
ATOM     33  H   UNL     1      -0.228  -5.867  -2.077  0.00  0.00    -0.089 HD
ATOM     34  H   UNL     1      -1.474  -6.854  -1.642  0.00  0.00    -0.089 HD
ENDBRANCH  30  31
BRANCH  30  35
ATOM     35  C   UNL     1      -1.117  -3.592  -1.072  0.00  0.00    -0.007 C 
BRANCH  35  37
ATOM     36  C   UNL     1       0.792  -2.071  -1.610  0.00  0.00    +0.004 C 
ATOM     37  C   UNL     1       0.399  -3.509  -1.265  0.00  0.00    -0.005 C 
ENDBRANCH  35  37
ENDBRANCH  30  35
ENDBRANCH  25  30
ENDBRANCH  21  27
ENDBRANCH  20  23
ENDBRANCH   1  20
TORSDOF 8
