REMARK  Name = ZINC36579995
REMARK  7 active torsions:
REMARK  status: ('A' for Active; 'I' for Inactive)
REMARK    1  A    between atoms: C_1  and  O_2
REMARK    2  A    between atoms: O_2  and  C_3
REMARK    3  A    between atoms: C_3  and  C_5
REMARK    4  A    between atoms: C_5  and  C_7
REMARK    5  A    between atoms: C_5  and  N_14
REMARK    6  A    between atoms: C_7  and  C_8
REMARK    7  A    between atoms: C_26  and  C_28
REMARK                            x       y       z     vdW  Elec       q    Type
REMARK                         _______ _______ _______ _____ _____    ______ ____
ROOT
ATOM      1  N   UNL     1      -2.725  -2.362  -2.324  0.00  0.00    -0.286 N 
ATOM      2  C   UNL     1      -3.322  -2.664  -1.154  0.00  0.00    +0.304 C 
ATOM      3  O   UNL     1      -2.676  -2.665  -0.124  0.00  0.00    -0.253 OA
ATOM      4  N   UNL     1      -4.636  -2.965  -1.125  0.00  0.00    -0.273 N 
ATOM      5  C   UNL     1      -5.331  -3.181   0.153  0.00  0.00    +0.116 C 
ATOM      6  C   UNL     1      -5.815  -4.635   0.221  0.00  0.00    +0.074 C 
ATOM      7  C   UNL     1      -6.447  -4.999  -1.097  0.00  0.00    +0.040 A 
ATOM      8  C   UNL     1      -6.270  -4.321  -2.251  0.00  0.00    +0.062 A 
ATOM      9  N   UNL     1      -6.977  -4.931  -3.204  0.00  0.00    -0.348 N 
ATOM     10  C   UNL     1      -7.591  -5.963  -2.687  0.00  0.00    +0.171 A 
ATOM     11  N   UNL     1      -7.285  -6.037  -1.371  0.00  0.00    -0.349 N 
ATOM     12  H   UNL     1      -7.602  -6.704  -0.742  0.00  0.00    +0.166 HD
ATOM     13  C   UNL     1      -5.411  -3.080  -2.373  0.00  0.00    +0.157 C 
ATOM     14  H   UNL     1      -3.223  -2.431  -3.154  0.00  0.00    +0.151 HD
ATOM     15  H   UNL     1      -7.027  -4.654  -4.133  0.00  0.00    +0.167 HD
ENDROOT
BRANCH  13  16
ATOM     16  C   UNL     1      -6.283  -1.863  -2.549  0.00  0.00    -0.003 A 
ATOM     17  C   UNL     1      -6.512  -1.016  -1.480  0.00  0.00    +0.007 A 
ATOM     18  C   UNL     1      -7.311   0.099  -1.641  0.00  0.00    +0.000 A 
ATOM     19  C   UNL     1      -7.883   0.369  -2.871  0.00  0.00    +0.001 A 
ATOM     20  C   UNL     1      -7.655  -0.476  -3.940  0.00  0.00    +0.020 A 
ATOM     21  C   UNL     1      -6.850  -1.591  -3.781  0.00  0.00    +0.046 A 
ATOM     22 CL   UNL     1      -6.558  -2.650  -5.125  0.00  0.00    -0.083 Cl
ENDBRANCH  13  16
BRANCH   1  23
ATOM     23  C   UNL     1      -1.326  -1.929  -2.342  0.00  0.00    +0.187 C 
BRANCH  23  24
ATOM     24  C   UNL     1      -0.427  -3.138  -2.361  0.00  0.00    +0.328 C 
ATOM     25  O   UNL     1      -0.905  -4.247  -2.360  0.00  0.00    -0.249 OA
BRANCH  24  27
ATOM     26  C   UNL     1       1.698  -4.172  -2.398  0.00  0.00    +0.280 C 
ATOM     27  O   UNL     1       0.906  -2.982  -2.380  0.00  0.00    -0.467 OA
ENDBRANCH  24  27
ENDBRANCH  23  24
BRANCH  23  28
ATOM     28  C   UNL     1      -1.070  -1.083  -3.591  0.00  0.00    +0.069 C 
BRANCH  28  29
ATOM     29  C   UNL     1      -1.879   0.186  -3.512  0.00  0.00    -0.045 A 
ATOM     30  C   UNL     1      -3.161   0.222  -4.027  0.00  0.00    +0.004 A 
ATOM     31  C   UNL     1      -3.903   1.386  -3.954  0.00  0.00    +0.000 A 
ATOM     32  C   UNL     1      -3.363   2.515  -3.367  0.00  0.00    +0.000 A 
ATOM     33  C   UNL     1      -2.080   2.479  -2.852  0.00  0.00    +0.000 A 
ATOM     34  C   UNL     1      -1.340   1.314  -2.920  0.00  0.00    +0.004 A 
ENDBRANCH  28  29
ENDBRANCH  23  28
ENDBRANCH   1  23
TORSDOF 6
