REMARK  Name = ZINC36368070
REMARK  4 active torsions:
REMARK  status: ('A' for Active; 'I' for Inactive)
REMARK    1  A    between atoms: C_11  and  C_20
REMARK    2  A    between atoms: CA_14  and  C_17
REMARK    3  A    between atoms: C_23  and  O_27
REMARK    4  A    between atoms: C_24  and  O_26
REMARK                            x       y       z     vdW  Elec       q    Type
REMARK                         _______ _______ _______ _____ _____    ______ ____
ROOT
ATOM      1  C   UNL     1       1.089   1.530   0.278  0.00  0.00    +0.001 A 
ATOM      2  C   UNL     1       2.387   2.023   0.281  0.00  0.00    +0.002 A 
ATOM      3  C   UNL     1       3.463   1.166   0.218  0.00  0.00    +0.026 A 
ATOM      4  C   UNL     1       3.252  -0.207   0.152  0.00  0.00    +0.047 A 
ATOM      5  C   UNL     1       1.933  -0.703   0.150  0.00  0.00    +0.003 A 
ATOM      6  C   UNL     1       0.858   0.186   0.214  0.00  0.00    +0.010 A 
ATOM      7  C   UNL     1       2.056  -2.153   0.073  0.00  0.00    -0.015 A 
ATOM      8  C   UNL     1       3.372  -2.446   0.035  0.00  0.00    +0.042 A 
ATOM      9  N   UNL     1       4.098  -1.293   0.081  0.00  0.00    -0.356 N 
ATOM     10  H   UNL     1       5.067  -1.244   0.066  0.00  0.00    +0.166 HD
ATOM     11  C   UNL     1       3.896  -3.862  -0.044  0.00  0.00    +0.132 C 
ATOM     12  N   UNL     1       2.810  -4.781   0.332  0.00  0.00    -0.292 NA
ATOM     13  CA  UNL     1       1.587  -4.513  -0.438  0.00  0.00    +0.173 C 
ATOM     14  C   UNL     1       0.964  -3.192   0.036  0.00  0.00    +0.068 C 
ATOM     15  H   UNL     1       3.098  -5.743   0.229  0.00  0.00    +0.124 HD
ENDROOT
BRANCH  11  16
ATOM     16  C   UNL     1       5.054  -4.027   0.907  0.00  0.00    -0.021 A 
ATOM     17  C   UNL     1       4.817  -4.235   2.253  0.00  0.00    +0.009 A 
ATOM     18  C   UNL     1       5.876  -4.387   3.128  0.00  0.00    +0.049 A 
ATOM     19  C   UNL     1       7.178  -4.333   2.658  0.00  0.00    +0.158 A 
ATOM     20  C   UNL     1       7.416  -4.125   1.302  0.00  0.00    +0.159 A 
ATOM     21  C   UNL     1       6.350  -3.977   0.429  0.00  0.00    +0.054 A 
BRANCH  20  22
ATOM     22  O   UNL     1       8.692  -4.071   0.835  0.00  0.00    -0.503 OA
ATOM     23  H   UNL     1       9.048  -4.928   0.564  0.00  0.00    +0.292 HD
ENDBRANCH  20  22
BRANCH  19  24
ATOM     24  O   UNL     1       8.220  -4.482   3.518  0.00  0.00    -0.503 OA
ATOM     25  H   UNL     1       8.509  -5.399   3.631  0.00  0.00    +0.292 HD
ENDBRANCH  19  24
ENDBRANCH  11  16
BRANCH  13  26
ATOM     26  C   UNL     1       1.927  -4.412  -1.902  0.00  0.00    +0.373 C 
ATOM     27  O   UNL     1       3.011  -4.799  -2.304  0.00  0.00    -0.245 OA
ATOM     28  OXT UNL     1       1.118  -3.943  -2.685  0.00  0.00    -0.245 OA
ENDBRANCH  13  26
TORSDOF 4
