REMARK  Name = ZINC36637412
REMARK  11 active torsions:
REMARK  status: ('A' for Active; 'I' for Inactive)
REMARK    1  A    between atoms: C_1  and  C_2
REMARK    2  A    between atoms: N_11  and  C_12
REMARK    3  A    between atoms: C_12  and  C_13
REMARK    4  A    between atoms: C_13  and  N_14
REMARK    5  A    between atoms: N_14  and  C_15
REMARK    6  A    between atoms: N_14  and  C_16
REMARK    7  A    between atoms: C_17  and  C_19
REMARK    8  A    between atoms: C_22  and  S_25
REMARK    9  A    between atoms: S_25  and  N_28
REMARK   10  A    between atoms: C_30  and  C_37
REMARK   11  A    between atoms: C_33  and  C_36
REMARK                            x       y       z     vdW  Elec       q    Type
REMARK                         _______ _______ _______ _____ _____    ______ ____
ROOT
ATOM      1  C   UNL     1       0.784   0.942  -0.035  0.00  0.00    +0.046 C 
ATOM      2  C   UNL     1       0.335  -0.490   0.096  0.00  0.00    -0.024 A 
ATOM      3  C   UNL     1       0.244  -1.277  -1.022  0.00  0.00    +0.005 A 
ATOM      4  C   UNL     1      -0.165  -2.600  -0.946  0.00  0.00    +0.001 A 
ATOM      5  C   UNL     1      -0.488  -3.140   0.286  0.00  0.00    +0.017 A 
ATOM      6  C   UNL     1      -0.399  -2.360   1.411  0.00  0.00    +0.041 A 
ATOM      7  C   UNL     1       0.019  -1.010   1.373  0.00  0.00    +0.083 A 
ATOM      8  N   UNL     1       0.061  -0.376   2.565  0.00  0.00    -0.224 NA
ATOM      9  C   UNL     1      -0.260  -0.970   3.691  0.00  0.00    +0.168 A 
ATOM     10  S   UNL     1      -0.701  -2.613   3.144  0.00  0.00    -0.052 S 
ATOM     11  N   UNL     1      -0.265  -0.452   4.974  0.00  0.00    -0.248 N 
ATOM     12  C   UNL     1       0.095   0.830   5.186  0.00  0.00    +0.252 C 
ATOM     13  O   UNL     1       0.366   1.548   4.243  0.00  0.00    -0.270 OA
ENDROOT
BRANCH  12  14
ATOM     14  C   UNL     1       0.160   1.362   6.563  0.00  0.00    +0.037 A 
ATOM     15  C   UNL     1       0.348   0.496   7.641  0.00  0.00    +0.015 A 
ATOM     16  C   UNL     1       0.408   0.999   8.924  0.00  0.00    +0.029 A 
ATOM     17  C   UNL     1       0.282   2.359   9.143  0.00  0.00    +0.106 A 
ATOM     18  C   UNL     1       0.095   3.224   8.079  0.00  0.00    +0.029 A 
ATOM     19  C   UNL     1       0.039   2.734   6.791  0.00  0.00    +0.015 A 
BRANCH  17  20
ATOM     20  S   UNL     1       0.359   2.994  10.785  0.00  0.00    +0.061 S 
ATOM     21  O   UNL     1      -0.331   4.236  10.774  0.00  0.00    -0.153 OA
ATOM     22  O   UNL     1      -0.006   1.927  11.650  0.00  0.00    -0.153 OA
BRANCH  20  23
ATOM     23  N   UNL     1       1.948   3.337  11.103  0.00  0.00    -0.176 NA
ATOM     24  C   UNL     1       2.832   2.319  11.687  0.00  0.00    +0.112 C 
ATOM     25  C   UNL     1       4.074   2.179  10.800  0.00  0.00    +0.002 C 
ATOM     26  C   UNL     1       4.727   3.551  10.623  0.00  0.00    +0.009 C 
ATOM     27  C   UNL     1       3.745   4.500   9.931  0.00  0.00    +0.002 C 
ATOM     28  C   UNL     1       2.501   4.665  10.802  0.00  0.00    +0.112 C 
ATOM     29  C   UNL     1       4.411   5.862   9.724  0.00  0.00    +0.009 C 
ATOM     30  C   UNL     1       3.666   1.626   9.433  0.00  0.00    +0.009 C 
ENDBRANCH  20  23
ENDBRANCH  17  20
ENDBRANCH  12  14
BRANCH  11  31
ATOM     31  C   UNL     1      -0.662  -1.296   6.104  0.00  0.00    +0.097 C 
BRANCH  31  32
ATOM     32  C   UNL     1       0.451  -2.303   6.404  0.00  0.00    -0.060 C 
BRANCH  32  33
ATOM     33  N   UNL     1       0.001  -3.234   7.447  0.00  0.00    +0.377 N 
ATOM     34  C   UNL     1       1.010  -4.285   7.633  0.00  0.00    -0.097 C 
ATOM     35  C   UNL     1      -0.185  -2.504   8.708  0.00  0.00    -0.097 C 
ATOM     36  H   UNL     1      -0.874  -3.653   7.169  0.00  0.00    -0.083 HD
ENDBRANCH  32  33
ENDBRANCH  31  32
ENDBRANCH  11  31
TORSDOF 6
