REMARK  Name = ZINC64428316
REMARK  7 active torsions:
REMARK  status: ('A' for Active; 'I' for Inactive)
REMARK    1  A    between atoms: C_8  and  C_12
REMARK    2  A    between atoms: N_14  and  C_15
REMARK    3  A    between atoms: C_15  and  C_17
REMARK    4  A    between atoms: C_15  and  C_27
REMARK    5  A    between atoms: C_17  and  C_18
REMARK    6  A    between atoms: N_29  and  C_30
REMARK    7  A    between atoms: C_30  and  C_31
REMARK                            x       y       z     vdW  Elec       q    Type
REMARK                         _______ _______ _______ _____ _____    ______ ____
ROOT
ATOM      1  C   UNL     1       2.062  -6.524   0.762  0.00  0.00    +0.163 C 
ENDROOT
BRANCH   1   4
ATOM      2  C   UNL     1       2.586  -4.234   0.117  0.00  0.00    +0.231 C 
ATOM      3  O   UNL     1       3.121  -4.668  -0.881  0.00  0.00    -0.274 OA
ATOM      4  N   UNL     1       2.025  -5.080   1.004  0.00  0.00    -0.302 N 
ATOM      5  H   UNL     1       1.597  -4.733   1.802  0.00  0.00    +0.150 HD
BRANCH   2  13
ATOM      6  C   UNL     1      -0.017   1.376   0.010  0.00  0.00    +0.000 A 
ATOM      7  C   UNL     1       1.173   2.080   0.002  0.00  0.00    +0.000 A 
ATOM      8  C   UNL     1       2.374   1.400  -0.011  0.00  0.00    +0.005 A 
ATOM      9  C   UNL     1       2.395   0.013  -0.018  0.00  0.00    -0.030 A 
ATOM     10  C   UNL     1       1.208  -0.688  -0.014  0.00  0.00    -0.041 A 
ATOM     11  C   UNL     1       0.002  -0.004   0.002  0.00  0.00    +0.004 A 
ATOM     12  C   UNL     1       1.180  -2.195  -0.033  0.00  0.00    +0.063 C 
ATOM     13  C   UNL     1       2.548  -2.748   0.366  0.00  0.00    +0.145 C 
ATOM     14  N   UNL     1       3.577  -2.081  -0.447  0.00  0.00    -0.301 NA
ATOM     15  C   UNL     1       3.730  -0.684  -0.026  0.00  0.00    +0.117 C 
ATOM     16  H   UNL     1       4.456  -2.573  -0.393  0.00  0.00    +0.123 HD
ENDBRANCH   2  13
ENDBRANCH   1   4
BRANCH   1  17
ATOM     17  C   UNL     1       0.906  -6.915  -0.122  0.00  0.00    +0.234 C 
ATOM     18  O   UNL     1       0.128  -6.070  -0.512  0.00  0.00    -0.274 OA
ATOM     19  N   UNL     1       0.737  -8.204  -0.480  0.00  0.00    -0.311 N 
ATOM     20  H   UNL     1       1.359  -8.879  -0.168  0.00  0.00    +0.149 HD
BRANCH  19  21
ATOM     21  C   UNL     1      -0.387  -8.583  -1.340  0.00  0.00    +0.135 C 
BRANCH  21  22
ATOM     22  C   UNL     1      -0.349 -10.092  -1.593  0.00  0.00    +0.135 C 
ATOM     23  C   UNL     1      -1.510 -10.510  -2.530  0.00  0.00    +0.035 C 
ATOM     24  C   UNL     1      -0.935 -11.814  -3.147  0.00  0.00    +0.031 C 
ATOM     25  C   UNL     1       0.574 -11.499  -3.232  0.00  0.00    +0.160 C 
ATOM     26  O   UNL     1       0.851 -10.449  -2.296  0.00  0.00    -0.375 OA
ENDBRANCH  21  22
ENDBRANCH  19  21
ENDBRANCH   1  17
BRANCH   1  27
ATOM     27  C   UNL     1       1.957  -7.268   2.096  0.00  0.00    +0.065 C 
BRANCH  27  28
ATOM     28  C   UNL     1       3.176  -6.972   2.932  0.00  0.00    -0.039 C 
ATOM     29  C   UNL     1       3.295  -6.024   3.889  0.00  0.00    -0.001 A 
ATOM     30  C   UNL     1       2.362  -5.021   4.416  0.00  0.00    +0.010 A 
ATOM     31  C   UNL     1       2.779  -4.189   5.397  0.00  0.00    +0.001 A 
ATOM     32  C   UNL     1       4.077  -4.260   5.922  0.00  0.00    +0.002 A 
ATOM     33  C   UNL     1       4.991  -5.154   5.489  0.00  0.00    +0.026 A 
ATOM     34  C   UNL     1       4.660  -6.079   4.460  0.00  0.00    +0.043 A 
ATOM     35  N   UNL     1       5.357  -7.024   3.878  0.00  0.00    -0.380 N 
ATOM     36  C   UNL     1       4.511  -7.681   2.876  0.00  0.00    +0.144 C 
ATOM     37  H   UNL     1       6.278  -7.254   4.080  0.00  0.00    +0.160 HD
ENDBRANCH  27  28
ENDBRANCH   1  27
TORSDOF 7
