REMARK  Name = ZINC40383850
REMARK  6 active torsions:
REMARK  status: ('A' for Active; 'I' for Inactive)
REMARK    1  A    between atoms: C_1  and  C_2
REMARK    2  A    between atoms: C_2  and  C_3
REMARK    3  A    between atoms: C_2  and  N_4
REMARK    4  A    between atoms: N_7  and  C_8
REMARK    5  A    between atoms: C_11  and  S_15
REMARK    6  A    between atoms: S_15  and  N_18
REMARK                            x       y       z     vdW  Elec       q    Type
REMARK                         _______ _______ _______ _____ _____    ______ ____
ROOT
ATOM      1  C   UNL     1      -3.255  -3.425  -1.060  0.00  0.00    +0.072 A 
ATOM      2  C   UNL     1      -2.338  -4.104  -1.852  0.00  0.00    +0.065 A 
ATOM      3  C   UNL     1      -2.684  -5.312  -2.427  0.00  0.00    +0.050 A 
ATOM      4  C   UNL     1      -3.942  -5.845  -2.216  0.00  0.00    +0.108 A 
ATOM      5  C   UNL     1      -4.858  -5.172  -1.428  0.00  0.00    +0.050 A 
ATOM      6  C   UNL     1      -4.516  -3.966  -0.845  0.00  0.00    +0.065 A 
ATOM      7 CL   UNL     1      -5.665  -3.126   0.149  0.00  0.00    -0.082 Cl
ATOM      8 CL   UNL     1      -0.758  -3.435  -2.120  0.00  0.00    -0.082 Cl
ENDROOT
BRANCH   1  12
ATOM      9  N   UNL     1      -2.918   0.133  -0.522  0.00  0.00    -0.297 N 
ATOM     10  C   UNL     1      -3.159  -1.048  -1.126  0.00  0.00    +0.304 C 
ATOM     11  O   UNL     1      -3.603  -1.072  -2.258  0.00  0.00    -0.253 OA
ATOM     12  N   UNL     1      -2.908  -2.201  -0.475  0.00  0.00    -0.267 N 
ATOM     13  H   UNL     1      -2.563   0.153   0.380  0.00  0.00    +0.151 HD
ATOM     14  H   UNL     1      -2.486  -2.183   0.398  0.00  0.00    +0.156 HD
BRANCH   9  16
ATOM     15  C   UNL     1      -3.443   2.502  -0.213  0.00  0.00    +0.027 C 
ATOM     16  C   UNL     1      -3.191   1.387  -1.230  0.00  0.00    +0.068 C 
ATOM     17  C   UNL     1      -1.988   1.753  -2.101  0.00  0.00    +0.027 C 
ENDBRANCH   9  16
ENDBRANCH   1  12
BRANCH   4  18
ATOM     18  S   UNL     1      -4.380  -7.385  -2.951  0.00  0.00    +0.056 S 
ATOM     19  O   UNL     1      -5.798  -7.402  -3.046  0.00  0.00    -0.153 OA
ATOM     20  O   UNL     1      -3.538  -7.547  -4.085  0.00  0.00    -0.153 OA
BRANCH  18  21
ATOM     21  N   UNL     1      -3.963  -8.576  -1.879  0.00  0.00    -0.204 NA
ATOM     22  H   UNL     1      -3.558  -8.343  -1.029  0.00  0.00    +0.144 HD
ATOM     23  H   UNL     1      -4.125  -9.507  -2.100  0.00  0.00    +0.144 HD
ENDBRANCH  18  21
ENDBRANCH   4  18
TORSDOF 4
