REMARK  Name = ZINC02870739
REMARK  7 active torsions:
REMARK  status: ('A' for Active; 'I' for Inactive)
REMARK    1  A    between atoms: C_1  and  C_2
REMARK    2  A    between atoms: C_2  and  O_3
REMARK    3  A    between atoms: O_3  and  C_4
REMARK    4  A    between atoms: C_7  and  C_10
REMARK    5  A    between atoms: C_13  and  C_21
REMARK    6  A    between atoms: C_24  and  C_28
REMARK    7  A    between atoms: C_25  and  C_27
REMARK                            x       y       z     vdW  Elec       q    Type
REMARK                         _______ _______ _______ _____ _____    ______ ____
ROOT
ATOM      1  C   UNL     1      -2.001  -6.092  -0.011  0.00  0.00    +0.143 C 
ATOM      2  C   UNL     1      -2.790  -6.511  -1.257  0.00  0.00    +0.058 C 
ATOM      3  C   UNL     1      -3.211  -7.980  -1.135  0.00  0.00    +0.106 C 
ATOM      4  N   UNL     1      -4.104  -8.118   0.032  0.00  0.00    -0.307 N 
ATOM      5  C   UNL     1      -3.720  -7.443   1.183  0.00  0.00    +0.215 A 
ATOM      6  N   UNL     1      -2.742  -6.503   1.181  0.00  0.00    -0.226 N 
ATOM      7  N   UNL     1      -2.622  -6.049   2.494  0.00  0.00    -0.156 NA
ATOM      8  C   UNL     1      -3.501  -6.711   3.205  0.00  0.00    +0.247 A 
ATOM      9  N   UNL     1      -4.169  -7.555   2.404  0.00  0.00    -0.202 NA
ATOM     10  H   UNL     1      -4.915  -8.650  -0.004  0.00  0.00    +0.149 HD
ENDROOT
BRANCH   3  11
ATOM     11  C   UNL     1      -1.989  -8.841  -0.945  0.00  0.00    -0.027 A 
ATOM     12  C   UNL     1      -1.405  -8.947   0.304  0.00  0.00    +0.006 A 
ATOM     13  C   UNL     1      -0.284  -9.738   0.478  0.00  0.00    +0.004 A 
ATOM     14  C   UNL     1       0.252 -10.422  -0.597  0.00  0.00    -0.048 A 
ATOM     15  C   UNL     1      -0.332 -10.317  -1.845  0.00  0.00    -0.047 A 
ATOM     16  C   UNL     1      -1.456  -9.530  -2.018  0.00  0.00    +0.009 A 
ATOM     17  C   UNL     1       0.253 -11.063  -3.016  0.00  0.00    +0.044 C 
ATOM     18  C   UNL     1       1.475 -11.283  -0.407  0.00  0.00    +0.044 C 
ENDBRANCH   3  11
BRANCH   1  22
ATOM     19  C   UNL     1      -1.498  -1.848   0.006  0.00  0.00    +0.121 A 
ATOM     20  C   UNL     1      -0.388  -2.679  -0.003  0.00  0.00    +0.046 A 
ATOM     21  C   UNL     1      -0.553  -4.051  -0.008  0.00  0.00    +0.009 A 
ATOM     22  C   UNL     1      -1.823  -4.596  -0.005  0.00  0.00    -0.023 A 
ATOM     23  C   UNL     1      -2.932  -3.769   0.004  0.00  0.00    +0.009 A 
ATOM     24  C   UNL     1      -2.772  -2.397   0.016  0.00  0.00    +0.046 A 
BRANCH  19  25
ATOM     25  O   UNL     1      -1.339  -0.499   0.012  0.00  0.00    -0.492 OA
BRANCH  25  27
ATOM     26  C   UNL     1      -0.019   1.526   0.010  0.00  0.00    +0.048 C 
ATOM     27  C   UNL     1       0.002  -0.004   0.002  0.00  0.00    +0.225 C 
ENDBRANCH  25  27
ENDBRANCH  19  25
ENDBRANCH   1  22
TORSDOF 4
