REMARK  Name = ZINC11314305
REMARK  11 active torsions:
REMARK  status: ('A' for Active; 'I' for Inactive)
REMARK    1  A    between atoms: C_1  and  C_2
REMARK    2  A    between atoms: C_2  and  C_4
REMARK    3  A    between atoms: C_2  and  S_17
REMARK    4  A    between atoms: N_6  and  C_7
REMARK    5  A    between atoms: S_17  and  C_18
REMARK    6  A    between atoms: C_21  and  C_28
REMARK    7  A    between atoms: N_22  and  C_23
REMARK    8  A    between atoms: C_23  and  C_24
REMARK    9  A    between atoms: C_24  and  C_25
REMARK   10  A    between atoms: C_25  and  O_26
REMARK   11  A    between atoms: O_26  and  C_27
REMARK                            x       y       z     vdW  Elec       q    Type
REMARK                         _______ _______ _______ _____ _____    ______ ____
ROOT
ATOM      1  S   UNL     1      -3.507   7.852  -1.917  0.00  0.00    -0.074 S 
ENDROOT
BRANCH   1   2
ATOM      2  C   UNL     1      -3.403   9.585  -1.613  0.00  0.00    +0.193 A 
ATOM      3  N   UNL     1      -2.518  10.191  -0.855  0.00  0.00    -0.122 NA
ATOM      4  N   UNL     1      -2.732  11.459  -0.855  0.00  0.00    -0.128 NA
ATOM      5  C   UNL     1      -3.767  11.739  -1.612  0.00  0.00    +0.166 A 
ATOM      6  N   UNL     1      -4.225  10.547  -2.126  0.00  0.00    -0.302 N 
BRANCH   5   7
ATOM      7  C   UNL     1      -4.329  13.081  -1.870  0.00  0.00    +0.038 A 
ATOM      8  C   UNL     1      -4.607  13.486  -3.176  0.00  0.00    +0.013 A 
ATOM      9  C   UNL     1      -5.133  14.740  -3.410  0.00  0.00    +0.001 A 
ATOM     10  C   UNL     1      -5.385  15.596  -2.353  0.00  0.00    +0.001 A 
ATOM     11  C   UNL     1      -5.112  15.203  -1.055  0.00  0.00    +0.021 A 
ATOM     12  C   UNL     1      -4.591  13.948  -0.806  0.00  0.00    +0.052 A 
ATOM     13 CL   UNL     1      -4.255  13.453   0.823  0.00  0.00    -0.083 Cl
ENDBRANCH   5   7
BRANCH   6  14
ATOM     14  C   UNL     1      -5.360  10.352  -3.032  0.00  0.00    +0.128 C 
BRANCH  14  15
ATOM     15  C   UNL     1      -6.652  10.263  -2.218  0.00  0.00    +0.050 C 
BRANCH  15  16
ATOM     16  C   UNL     1      -7.821   9.937  -3.150  0.00  0.00    +0.161 C 
BRANCH  16  17
ATOM     17  O   UNL     1      -9.007   9.740  -2.377  0.00  0.00    -0.383 OA
ATOM     18  C   UNL     1     -10.163   9.428  -3.157  0.00  0.00    +0.193 C 
ENDBRANCH  16  17
ENDBRANCH  15  16
ENDBRANCH  14  15
ENDBRANCH   6  14
ENDBRANCH   1   2
BRANCH   1  20
ATOM     19  C   UNL     1      -0.806   7.819  -1.505  0.00  0.00    +0.029 C 
ATOM     20  C   UNL     1      -2.111   7.274  -0.920  0.00  0.00    +0.137 C 
BRANCH  20  21
ATOM     21  C   UNL     1      -2.075   5.768  -0.931  0.00  0.00    +0.227 C 
ATOM     22  O   UNL     1      -2.571   5.156  -1.854  0.00  0.00    -0.275 OA
ATOM     23  N   UNL     1      -1.492   5.100   0.084  0.00  0.00    -0.309 N 
ATOM     24  H   UNL     1      -1.095   5.589   0.821  0.00  0.00    +0.149 HD
BRANCH  23  25
ATOM     25  C   UNL     1      -1.458   3.635   0.073  0.00  0.00    +0.035 C 
ATOM     26  C   UNL     1      -0.705   3.152  -1.168  0.00  0.00    +0.029 C 
ATOM     27  C   UNL     1      -0.668   1.623  -1.179  0.00  0.00    -0.008 C 
ATOM     28  C   UNL     1       0.045   1.120   0.077  0.00  0.00    +0.007 C 
ATOM     29  C   UNL     1      -0.708   1.603   1.319  0.00  0.00    -0.008 C 
ATOM     30  C   UNL     1      -0.744   3.133   1.330  0.00  0.00    +0.029 C 
ATOM     31  C   UNL     1      -2.138   1.060   1.292  0.00  0.00    +0.007 C 
ATOM     32  C   UNL     1      -2.851   1.562   0.035  0.00  0.00    -0.008 C 
ATOM     33  C   UNL     1      -2.098   1.079  -1.206  0.00  0.00    +0.007 C 
ATOM     34  C   UNL     1      -2.887   3.092   0.046  0.00  0.00    +0.029 C 
ENDBRANCH  23  25
ENDBRANCH  20  21
ENDBRANCH   1  20
TORSDOF 9
