REMARK  Name = ZINC45777385
REMARK  5 active torsions:
REMARK  status: ('A' for Active; 'I' for Inactive)
REMARK    1  A    between atoms: C_6  and  C_11
REMARK    2  A    between atoms: C_11  and  C_12
REMARK    3  A    between atoms: N_14  and  C_15
REMARK    4  A    between atoms: C_15  and  C_16
REMARK    5  A    between atoms: C_19  and  N_22
REMARK                            x       y       z     vdW  Elec       q    Type
REMARK                         _______ _______ _______ _____ _____    ______ ____
ROOT
ATOM      1  C   UNL     1       5.336  -3.168   1.405  0.00  0.00    +0.218 C 
ATOM      2  O   UNL     1       4.721  -2.679   2.329  0.00  0.00    -0.275 OA
ATOM      3  N   UNL     1       6.519  -3.773   1.628  0.00  0.00    -0.311 N 
ATOM      4  H   UNL     1       7.011  -4.165   0.889  0.00  0.00    +0.149 HD
ENDROOT
BRANCH   1   5
ATOM      5  C   UNL     1       4.776  -3.101   0.007  0.00  0.00    +0.130 C 
BRANCH   5  11
ATOM      6  C   UNL     1      -0.265   0.936  -0.063  0.00  0.00    +0.001 A 
ATOM      7  C   UNL     1       0.910   1.663  -0.251  0.00  0.00    +0.001 A 
ATOM      8  C   UNL     1       2.121   1.042  -0.277  0.00  0.00    +0.008 A 
ATOM      9  C   UNL     1       2.191  -0.352  -0.112  0.00  0.00    -0.018 A 
ATOM     10  C   UNL     1       3.423  -1.028  -0.133  0.00  0.00    +0.012 A 
ATOM     11  C   UNL     1       3.453  -2.379   0.031  0.00  0.00    -0.038 A 
ATOM     12  C   UNL     1       2.278  -3.105   0.219  0.00  0.00    +0.005 A 
ATOM     13  C   UNL     1       1.067  -2.484   0.245  0.00  0.00    +0.009 A 
ATOM     14  C   UNL     1       0.997  -1.090   0.080  0.00  0.00    -0.018 A 
ATOM     15  C   UNL     1      -0.235  -0.414   0.100  0.00  0.00    +0.008 A 
ENDBRANCH   5  11
ENDBRANCH   1   5
BRANCH   3  16
ATOM     16  C   UNL     1       7.064  -3.839   2.986  0.00  0.00    +0.139 C 
BRANCH  16  17
ATOM     17  C   UNL     1       8.386  -4.561   2.963  0.00  0.00    -0.030 A 
ATOM     18  C   UNL     1       8.426  -5.934   3.123  0.00  0.00    +0.007 A 
ATOM     19  C   UNL     1       9.637  -6.598   3.102  0.00  0.00    +0.023 A 
ATOM     20  C   UNL     1      10.815  -5.886   2.920  0.00  0.00    +0.035 A 
ATOM     21  C   UNL     1      10.772  -4.507   2.760  0.00  0.00    +0.023 A 
ATOM     22  C   UNL     1       9.557  -3.849   2.776  0.00  0.00    +0.007 A 
BRANCH  20  23
ATOM     23  N   UNL     1      12.043  -6.556   2.899  0.00  0.00    -0.270 N 
ATOM     24  C   UNL     1      12.122  -7.803   2.394  0.00  0.00    +0.301 C 
ATOM     25  O   UNL     1      11.149  -8.309   1.870  0.00  0.00    -0.253 OA
ATOM     26  N   UNL     1      13.280  -8.489   2.471  0.00  0.00    -0.313 N 
ATOM     27  H   UNL     1      12.838  -6.122   3.248  0.00  0.00    +0.156 HD
ATOM     28  H   UNL     1      14.056  -8.085   2.889  0.00  0.00    +0.146 HD
ATOM     29  H   UNL     1      13.336  -9.386   2.107  0.00  0.00    +0.146 HD
ENDBRANCH  20  23
ENDBRANCH  16  17
ENDBRANCH   3  16
TORSDOF 5
