REMARK  Name = ZINC39602226
REMARK  4 active torsions:
REMARK  status: ('A' for Active; 'I' for Inactive)
REMARK    1  A    between atoms: C_4  and  C_7
REMARK    2  A    between atoms: C_10  and  N_12
REMARK    3  A    between atoms: C_13  and  C_15
REMARK    4  A    between atoms: C_26  and  C_28
REMARK                            x       y       z     vdW  Elec       q    Type
REMARK                         _______ _______ _______ _____ _____    ______ ____
ROOT
ATOM      1  C   UNL     1       7.718  -2.152  -3.453  0.00  0.00    +0.100 C 
ATOM      2  C   UNL     1       8.191  -3.276  -2.503  0.00  0.00    +0.121 C 
ATOM      3  N   UNL     1       8.026  -4.522  -3.287  0.00  0.00    -0.296 N 
ATOM      4  C   UNL     1       8.448  -4.154  -4.659  0.00  0.00    +0.115 C 
ATOM      5  C   UNL     1       7.893  -2.731  -4.867  0.00  0.00    -0.004 C 
ATOM      6  C   UNL     1       8.883  -1.889  -5.665  0.00  0.00    -0.010 C 
ATOM      7  C   UNL     1       8.995  -2.449  -7.086  0.00  0.00    -0.082 C 
ATOM      8  N   UNL     1       7.676  -2.428  -7.728  0.00  0.00    +0.379 N 
ATOM      9  C   UNL     1       6.754  -3.315  -7.007  0.00  0.00    -0.082 C 
ATOM     10  C   UNL     1       6.547  -2.791  -5.583  0.00  0.00    -0.010 C 
ATOM     11  C   UNL     1       7.590  -5.721  -2.851  0.00  0.00    +0.247 C 
ATOM     12  O   UNL     1       7.158  -5.836  -1.720  0.00  0.00    -0.270 OA
ATOM     13  H   UNL     1       7.312  -1.487  -7.716  0.00  0.00    -0.086 HD
ATOM     14  H   UNL     1       7.763  -2.741  -8.683  0.00  0.00    -0.086 HD
ENDROOT
BRANCH  11  15
ATOM     15  C   UNL     1       7.637  -6.895  -3.747  0.00  0.00    +0.037 A 
ATOM     16  C   UNL     1       8.496  -6.904  -4.847  0.00  0.00    +0.014 A 
ATOM     17  C   UNL     1       8.536  -8.002  -5.679  0.00  0.00    +0.016 A 
ATOM     18  C   UNL     1       7.725  -9.096  -5.426  0.00  0.00    +0.018 A 
ATOM     19  C   UNL     1       6.870  -9.094  -4.336  0.00  0.00    +0.016 A 
ATOM     20  C   UNL     1       6.826  -8.003  -3.493  0.00  0.00    +0.014 A 
ATOM     21 BR   UNL     1       7.784 -10.598  -6.572  0.00  0.00    -0.050 Br
ENDBRANCH  11  15
BRANCH   1  23
ATOM     22  N   UNL     1       5.785  -0.611  -3.535  0.00  0.00    -0.312 N 
ATOM     23  C   UNL     1       6.271  -1.822  -3.196  0.00  0.00    +0.218 C 
ATOM     24  O   UNL     1       5.542  -2.646  -2.685  0.00  0.00    -0.275 OA
ATOM     25  H   UNL     1       6.368   0.048  -3.944  0.00  0.00    +0.149 HD
BRANCH  22  28
ATOM     26  C   UNL     1       3.732   0.785  -4.162  0.00  0.00    +0.041 C 
ATOM     27  C   UNL     1       4.061   1.088  -2.699  0.00  0.00    +0.033 C 
ATOM     28  C   UNL     1       4.378  -0.290  -3.285  0.00  0.00    +0.081 C 
BRANCH  26  32
ATOM     29  C   UNL     1      -0.381   0.276  -5.195  0.00  0.00    +0.000 A 
ATOM     30  C   UNL     1       0.577   0.346  -6.189  0.00  0.00    +0.000 A 
ATOM     31  C   UNL     1       1.908   0.511  -5.854  0.00  0.00    +0.004 A 
ATOM     32  C   UNL     1       2.281   0.606  -4.527  0.00  0.00    -0.042 A 
ATOM     33  C   UNL     1       1.322   0.536  -3.533  0.00  0.00    +0.004 A 
ATOM     34  C   UNL     1      -0.009   0.370  -3.867  0.00  0.00    +0.000 A 
ENDBRANCH  26  32
ENDBRANCH  22  28
ENDBRANCH   1  23
TORSDOF 4
