REMARK  Name = ZINC04786433
REMARK  0 active torsions:
REMARK  status: ('A' for Active; 'I' for Inactive)
REMARK                            x       y       z     vdW  Elec       q    Type
REMARK                         _______ _______ _______ _____ _____    ______ ____
ROOT
ATOM      1  C   UNL     1      -0.013   1.086   0.008  0.00  0.00    +0.002 C 
ATOM      2  C   UNL     1      -0.728   1.578   1.262  0.00  0.00    +0.002 C 
ATOM      3  C   UNL     1      -0.335   2.928   1.693  0.00  0.00    +0.019 C 
ATOM      4  C   UNL     1      -0.706   3.968   0.607  0.00  0.00    +0.107 C 
ATOM      5  N   UNL     1       0.170   3.814  -0.532  0.00  0.00    -0.304 N 
ATOM      6  C   UNL     1      -0.150   2.931  -1.671  0.00  0.00    +0.107 C 
ATOM      7  C   UNL     1      -0.743   1.586  -1.214  0.00  0.00    +0.019 C 
ATOM      8  C   UNL     1       1.328   4.504  -0.556  0.00  0.00    +0.328 C 
ATOM      9  O   UNL     1       2.081   4.393  -1.499  0.00  0.00    -0.279 OA
ENDROOT
TORSDOF 0
