REMARK  Name = ZINC36040010
REMARK  10 active torsions:
REMARK  status: ('A' for Active; 'I' for Inactive)
REMARK    1  A    between atoms: C_4  and  C_7
REMARK    2  A    between atoms: C_7  and  N_8
REMARK    3  A    between atoms: C_9  and  C_24
REMARK    4  A    between atoms: C_12  and  S_13
REMARK    5  A    between atoms: S_13  and  C_16
REMARK    6  A    between atoms: C_16  and  C_17
REMARK    7  A    between atoms: C_24  and  N_25
REMARK    8  A    between atoms: N_25  and  C_26
REMARK    9  A    between atoms: C_26  and  C_27
REMARK   10  A    between atoms: C_30  and  C_32
REMARK                            x       y       z     vdW  Elec       q    Type
REMARK                         _______ _______ _______ _____ _____    ______ ____
ROOT
ATOM      1  N   UNL     1       4.124  -0.823   1.474  0.00  0.00    -0.307 N 
ATOM      2  C   UNL     1       4.945   0.076   2.099  0.00  0.00    +0.057 A 
ATOM      3  C   UNL     1       5.299  -0.473   3.276  0.00  0.00    +0.137 A 
ATOM      4  N   UNL     1       4.709  -1.674   3.368  0.00  0.00    -0.220 NA
ATOM      5  C   UNL     1       4.000  -1.889   2.294  0.00  0.00    +0.252 A 
ENDROOT
BRANCH   5   6
ATOM      6  S   UNL     1       3.042  -3.331   1.967  0.00  0.00    +0.034 S 
ATOM      7  O   UNL     1       2.804  -3.906   3.244  0.00  0.00    -0.166 OA
ATOM      8  O   UNL     1       1.961  -2.874   1.165  0.00  0.00    -0.166 OA
BRANCH   6   9
ATOM      9  C   UNL     1       4.133  -4.404   0.993  0.00  0.00    +0.213 C 
BRANCH   9  10
ATOM     10  C   UNL     1       3.409  -5.681   0.652  0.00  0.00    +0.009 A 
ATOM     11  C   UNL     1       3.480  -6.765   1.507  0.00  0.00    +0.008 A 
ATOM     12  C   UNL     1       2.816  -7.936   1.196  0.00  0.00    +0.000 A 
ATOM     13  C   UNL     1       2.080  -8.025   0.029  0.00  0.00    +0.003 A 
ATOM     14  C   UNL     1       2.006  -6.943  -0.827  0.00  0.00    +0.038 A 
ATOM     15  C   UNL     1       2.667  -5.767  -0.513  0.00  0.00    +0.128 A 
ATOM     16  F   UNL     1       2.592  -4.706  -1.347  0.00  0.00    -0.205 F 
ENDBRANCH   9  10
ENDBRANCH   6   9
ENDBRANCH   5   6
BRANCH   1  17
ATOM     17  C   UNL     1       3.492  -0.658   0.162  0.00  0.00    +0.160 C 
BRANCH  17  21
ATOM     18  C   UNL     1      -0.089   1.633   0.584  0.00  0.00    +0.000 A 
ATOM     19  C   UNL     1       1.131   2.273   0.461  0.00  0.00    +0.000 A 
ATOM     20  C   UNL     1       2.289   1.532   0.325  0.00  0.00    +0.005 A 
ATOM     21  C   UNL     1       2.229   0.151   0.312  0.00  0.00    -0.028 A 
ATOM     22  C   UNL     1       1.009  -0.489   0.435  0.00  0.00    +0.005 A 
ATOM     23  C   UNL     1      -0.149   0.253   0.570  0.00  0.00    +0.000 A 
ENDBRANCH  17  21
ENDBRANCH   1  17
BRANCH   2  24
ATOM     24  C   UNL     1       5.372   1.421   1.570  0.00  0.00    +0.163 C 
BRANCH  24  25
ATOM     25  N   UNL     1       6.553   1.258   0.718  0.00  0.00    -0.291 N 
ATOM     26  C   UNL     1       7.781   1.207   1.271  0.00  0.00    +0.254 C 
ATOM     27  O   UNL     1       7.904   1.199   2.481  0.00  0.00    -0.269 OA
BRANCH  26  28
ATOM     28  C   UNL     1       8.969   1.160   0.413  0.00  0.00    +0.074 A 
ATOM     29  C   UNL     1      10.299   0.993   0.770  0.00  0.00    +0.021 A 
ATOM     30  C   UNL     1      11.200   0.991  -0.267  0.00  0.00    +0.008 A 
ATOM     31  C   UNL     1      10.745   1.147  -1.535  0.00  0.00    +0.046 A 
ATOM     32  S   UNL     1       9.081   1.294  -1.361  0.00  0.00    -0.092 S 
ENDBRANCH  26  28
BRANCH  25  33
ATOM     33  C   UNL     1       6.399   1.151  -0.735  0.00  0.00    +0.112 C 
BRANCH  33  34
ATOM     34  C   UNL     1       6.590   2.530  -1.371  0.00  0.00    +0.006 C 
ATOM     35  C   UNL     1       5.393   3.144  -2.099  0.00  0.00    +0.005 C 
ATOM     36  C   UNL     1       6.583   2.610  -2.899  0.00  0.00    +0.005 C 
ENDBRANCH  33  34
ENDBRANCH  25  33
ENDBRANCH  24  25
ENDBRANCH   2  24
TORSDOF 10
