REMARK  Name = ZINC36644850
REMARK  12 active torsions:
REMARK  status: ('A' for Active; 'I' for Inactive)
REMARK    1  A    between atoms: C_1  and  N_2
REMARK    2  A    between atoms: N_2  and  C_3
REMARK    3  A    between atoms: N_2  and  C_4
REMARK    4  A    between atoms: C_4  and  C_5
REMARK    5  A    between atoms: C_5  and  C_6
REMARK    6  A    between atoms: C_6  and  N_7
REMARK    7  A    between atoms: C_11  and  O_19
REMARK    8  A    between atoms: C_14  and  O_17
REMARK    9  A    between atoms: O_17  and  C_18
REMARK   10  A    between atoms: O_19  and  C_20
REMARK   11  A    between atoms: C_21  and  C_23
REMARK   12  A    between atoms: N_28  and  C_30
REMARK                            x       y       z     vdW  Elec       q    Type
REMARK                         _______ _______ _______ _____ _____    ______ ____
ROOT
ATOM      1  N   UNL     1      -3.962  -0.054  -2.668  0.00  0.00    -0.250 N 
ATOM      2  C   UNL     1      -3.845  -0.820  -3.817  0.00  0.00    +0.168 A 
ATOM      3  N   UNL     1      -2.963  -1.748  -4.102  0.00  0.00    -0.221 NA
ATOM      4  C   UNL     1      -2.969  -2.422  -5.274  0.00  0.00    +0.125 A 
ATOM      5  C   UNL     1      -2.079  -3.440  -5.703  0.00  0.00    +0.147 A 
ATOM      6  C   UNL     1      -2.226  -4.027  -6.937  0.00  0.00    +0.051 A 
ATOM      7  C   UNL     1      -3.243  -3.648  -7.803  0.00  0.00    +0.050 A 
ATOM      8  C   UNL     1      -4.130  -2.656  -7.415  0.00  0.00    +0.136 A 
ATOM      9  C   UNL     1      -3.990  -2.063  -6.180  0.00  0.00    +0.086 A 
ATOM     10  S   UNL     1      -4.863  -0.800  -5.286  0.00  0.00    -0.048 S 
ATOM     11  C   UNL     1      -4.951   0.855  -2.561  0.00  0.00    +0.226 C 
ATOM     12  O   UNL     1      -5.798   0.934  -3.426  0.00  0.00    -0.275 OA
ENDROOT
BRANCH  11  13
ATOM     13  C   UNL     1      -5.006   1.772  -1.366  0.00  0.00    +0.102 C 
ATOM     14  C   UNL     1      -5.534   1.026  -0.119  0.00  0.00    +0.110 C 
ATOM     15  C   UNL     1      -6.380   2.054   0.598  0.00  0.00    +0.221 C 
ATOM     16  O   UNL     1      -6.746   1.971   1.751  0.00  0.00    -0.275 OA
ATOM     17  N   UNL     1      -6.667   3.075  -0.229  0.00  0.00    -0.271 N 
ATOM     18  C   UNL     1      -6.080   2.866  -1.558  0.00  0.00    +0.127 C 
BRANCH  17  19
ATOM     19  C   UNL     1      -7.427   4.194   0.132  0.00  0.00    +0.036 A 
ATOM     20  C   UNL     1      -8.030   4.252   1.381  0.00  0.00    +0.026 A 
ATOM     21  C   UNL     1      -8.780   5.357   1.735  0.00  0.00    +0.040 A 
ATOM     22  C   UNL     1      -8.930   6.407   0.844  0.00  0.00    +0.124 A 
ATOM     23  C   UNL     1      -8.328   6.351  -0.402  0.00  0.00    +0.040 A 
ATOM     24  C   UNL     1      -7.573   5.251  -0.757  0.00  0.00    +0.026 A 
ATOM     25  F   UNL     1      -9.664   7.486   1.192  0.00  0.00    -0.205 F 
ENDBRANCH  17  19
ENDBRANCH  11  13
BRANCH   8  26
ATOM     26  O   UNL     1      -5.133  -2.271  -8.249  0.00  0.00    -0.494 OA
ATOM     27  C   UNL     1      -5.215  -2.932  -9.514  0.00  0.00    +0.277 C 
ENDBRANCH   8  26
BRANCH   5  28
ATOM     28  O   UNL     1      -1.069  -3.839  -4.885  0.00  0.00    -0.493 OA
ATOM     29  C   UNL     1      -0.206  -4.868  -5.373  0.00  0.00    +0.277 C 
ENDBRANCH   5  28
BRANCH   1  30
ATOM     30  C   UNL     1      -3.009  -0.233  -1.569  0.00  0.00    +0.114 C 
BRANCH  30  31
ATOM     31  C   UNL     1      -1.785   0.655  -1.806  0.00  0.00    +0.001 C 
BRANCH  31  32
ATOM     32  C   UNL     1      -0.790   0.469  -0.658  0.00  0.00    -0.078 C 
BRANCH  32  34
ATOM     33  C   UNL     1      -0.016   2.733  -0.828  0.00  0.00    -0.097 C 
ATOM     34  N   UNL     1       0.384   1.320  -0.886  0.00  0.00    +0.376 N 
ATOM     35  C   UNL     1       1.391   1.054   0.151  0.00  0.00    -0.097 C 
ATOM     36  H   UNL     1       0.775   1.119  -1.794  0.00  0.00    -0.083 HD
ENDBRANCH  32  34
ENDBRANCH  31  32
ENDBRANCH  30  31
ENDBRANCH   1  30
TORSDOF 8
