REMARK  Name = ZINC16740715
REMARK  12 active torsions:
REMARK  status: ('A' for Active; 'I' for Inactive)
REMARK    1  A    between atoms: C_1  and  C_2
REMARK    2  A    between atoms: C_2  and  O_3
REMARK    3  A    between atoms: O_3  and  C_4
REMARK    4  A    between atoms: C_4  and  C_6
REMARK    5  A    between atoms: C_7  and  C_37
REMARK    6  A    between atoms: C_14  and  C_15
REMARK    7  A    between atoms: C_18  and  O_23
REMARK    8  A    between atoms: C_19  and  O_21
REMARK    9  A    between atoms: O_21  and  C_22
REMARK   10  A    between atoms: O_23  and  C_24
REMARK   11  A    between atoms: C_28  and  C_30
REMARK   12  A    between atoms: C_33  and  O_36
REMARK                            x       y       z     vdW  Elec       q    Type
REMARK                         _______ _______ _______ _____ _____    ______ ____
ROOT
ATOM      1  C   UNL     1      -0.662   0.302  -1.380  0.00  0.00    +0.085 C 
ATOM      2  C   UNL     1      -1.373  -0.787  -1.801  0.00  0.00    +0.053 C 
ATOM      3  N   UNL     1      -2.199  -1.415  -0.973  0.00  0.00    -0.228 NA
ATOM      4  C   UNL     1      -2.408  -1.075   0.274  0.00  0.00    +0.178 A 
ATOM      5  N   UNL     1      -1.795  -0.012   0.895  0.00  0.00    -0.275 N 
ATOM      6  C   UNL     1      -2.090   0.239   2.178  0.00  0.00    +0.268 A 
ATOM      7  O   UNL     1      -1.572   1.169   2.770  0.00  0.00    -0.266 OA
ATOM      8  C   UNL     1      -3.057  -0.640   2.849  0.00  0.00    +0.081 A 
ATOM      9  C   UNL     1      -3.519  -0.600   4.125  0.00  0.00    +0.028 C 
ATOM     10  S   UNL     1      -3.459  -1.776   1.531  0.00  0.00    -0.046 S 
ATOM     11  C   UNL     1      -0.845   0.762   0.048  0.00  0.00    +0.162 C 
ATOM     12  C   UNL     1      -1.219  -1.278  -3.217  0.00  0.00    +0.066 C 
ENDROOT
BRANCH   9  13
ATOM     13  C   UNL     1      -2.913   0.318   5.098  0.00  0.00    -0.020 A 
ATOM     14  C   UNL     1      -1.522   0.474   5.143  0.00  0.00    +0.012 A 
ATOM     15  C   UNL     1      -0.956   1.336   6.056  0.00  0.00    +0.050 A 
ATOM     16  C   UNL     1      -1.760   2.051   6.932  0.00  0.00    +0.168 A 
ATOM     17  C   UNL     1      -3.146   1.902   6.894  0.00  0.00    +0.162 A 
ATOM     18  C   UNL     1      -3.723   1.044   5.979  0.00  0.00    +0.057 A 
BRANCH  17  19
ATOM     19  O   UNL     1      -3.930   2.605   7.754  0.00  0.00    -0.491 OA
ATOM     20  C   UNL     1      -5.341   2.402   7.659  0.00  0.00    +0.277 C 
ENDBRANCH  17  19
BRANCH  16  21
ATOM     21  O   UNL     1      -1.196   2.900   7.830  0.00  0.00    -0.431 OA
BRANCH  21  22
ATOM     22  C   UNL     1       0.229   3.006   7.816  0.00  0.00    +0.541 C 
ATOM     23  F   UNL     1       0.793   1.753   8.077  0.00  0.00    -0.166 F 
ATOM     24  F   UNL     1       0.650   3.454   6.559  0.00  0.00    -0.166 F 
ENDBRANCH  21  22
ENDBRANCH  16  21
ENDBRANCH   9  13
BRANCH  11  25
ATOM     25  C   UNL     1      -1.314   2.194   0.017  0.00  0.00    -0.020 A 
ATOM     26  C   UNL     1      -2.655   2.478  -0.159  0.00  0.00    +0.009 A 
ATOM     27  C   UNL     1      -3.088   3.790  -0.182  0.00  0.00    +0.046 A 
ATOM     28  C   UNL     1      -2.173   4.823  -0.040  0.00  0.00    +0.117 A 
ATOM     29  C   UNL     1      -0.827   4.536   0.131  0.00  0.00    +0.046 A 
ATOM     30  C   UNL     1      -0.400   3.223   0.159  0.00  0.00    +0.009 A 
BRANCH  28  31
ATOM     31  O   UNL     1      -2.596   6.114  -0.069  0.00  0.00    -0.507 OA
ATOM     32  H   UNL     1      -2.603   6.506  -0.953  0.00  0.00    +0.292 HD
ENDBRANCH  28  31
ENDBRANCH  11  25
BRANCH   1  33
ATOM     33  C   UNL     1       0.213   0.974  -2.249  0.00  0.00    +0.339 C 
ATOM     34  O   UNL     1       0.267   0.656  -3.424  0.00  0.00    -0.245 OA
BRANCH  33  35
ATOM     35  O   UNL     1       0.994   1.972  -1.782  0.00  0.00    -0.462 OA
BRANCH  35  37
ATOM     36  C   UNL     1       2.660   3.707  -2.015  0.00  0.00    +0.048 C 
ATOM     37  C   UNL     1       1.860   2.611  -2.722  0.00  0.00    +0.229 C 
ENDBRANCH  35  37
ENDBRANCH  33  35
ENDBRANCH   1  33
TORSDOF 9
