REMARK  Name = ZINC00071685
REMARK  3 active torsions:
REMARK  status: ('A' for Active; 'I' for Inactive)
REMARK    1  A    between atoms: C_1  and  C_2
REMARK    2  A    between atoms: C_3  and  C_18
REMARK    3  A    between atoms: C_4  and  C_10
REMARK                            x       y       z     vdW  Elec       q    Type
REMARK                         _______ _______ _______ _____ _____    ______ ____
ROOT
ATOM      1  C   UNL     1       4.601   1.872   2.982  0.00  0.00    +0.061 C 
ATOM      2  C   UNL     1       4.151   1.728   1.551  0.00  0.00    +0.017 C 
ATOM      3  C   UNL     1       2.986   1.102   1.281  0.00  0.00    +0.055 C 
ATOM      4  C   UNL     1       2.571   0.980  -0.171  0.00  0.00    +0.139 C 
ATOM      5  N   UNL     1       3.479   1.559  -1.175  0.00  0.00    -0.315 N 
ATOM      6  C   UNL     1       4.610   2.155  -0.749  0.00  0.00    +0.135 C 
ATOM      7  S   UNL     1       5.675   2.833  -1.906  0.00  0.00    -0.019 S 
ATOM      8  N   UNL     1       4.928   2.235   0.549  0.00  0.00    -0.300 N 
ATOM      9  H   UNL     1       3.268   1.512  -2.121  0.00  0.00    +0.149 HD
ATOM     10  H   UNL     1       5.757   2.677   0.791  0.00  0.00    +0.154 HD
ENDROOT
BRANCH   4  11
ATOM     11  C   UNL     1       1.225   1.639  -0.326  0.00  0.00    -0.021 A 
ATOM     12  C   UNL     1       1.126   3.018  -0.322  0.00  0.00    +0.007 A 
ATOM     13  C   UNL     1      -0.108   3.624  -0.465  0.00  0.00    +0.022 A 
ATOM     14  C   UNL     1      -1.245   2.850  -0.612  0.00  0.00    +0.059 A 
ATOM     15  C   UNL     1      -1.146   1.470  -0.621  0.00  0.00    +0.060 A 
ATOM     16  C   UNL     1       0.089   0.865  -0.473  0.00  0.00    +0.027 A 
ATOM     17 CL   UNL     1      -2.571   0.497  -0.813  0.00  0.00    -0.082 Cl
ATOM     18 CL   UNL     1      -2.796   3.611  -0.791  0.00  0.00    -0.082 Cl
ENDBRANCH   4  11
BRANCH   3  19
ATOM     19  C   UNL     1       2.180   0.576   2.320  0.00  0.00    +0.241 C 
ATOM     20  O   UNL     1       2.208  -0.616   2.569  0.00  0.00    -0.271 OA
ATOM     21  N   UNL     1       1.381   1.394   3.033  0.00  0.00    -0.326 N 
ATOM     22  H   UNL     1       1.303   2.329   2.789  0.00  0.00    +0.145 HD
ATOM     23  H   UNL     1       0.884   1.047   3.791  0.00  0.00    +0.145 HD
ENDBRANCH   3  19
TORSDOF 2
