REMARK  Name = ZINC09186703
REMARK  16 active torsions:
REMARK  status: ('A' for Active; 'I' for Inactive)
REMARK    1  A    between atoms: C_1  and  C_2
REMARK    2  A    between atoms: C_2  and  C_3
REMARK    3  A    between atoms: C_3  and  O_4
REMARK    4  A    between atoms: O_4  and  C_5
REMARK    5  A    between atoms: C_8  and  C_11
REMARK    6  A    between atoms: C_14  and  C_15
REMARK    7  A    between atoms: C_14  and  O_25
REMARK    8  A    between atoms: C_18  and  O_21
REMARK    9  A    between atoms: O_21  and  C_22
REMARK   10  A    between atoms: C_22  and  C_23
REMARK   11  A    between atoms: C_22  and  C_24
REMARK   12  A    between atoms: N_30  and  C_31
REMARK   13  A    between atoms: C_31  and  C_32
REMARK   14  A    between atoms: C_32  and  N_68
REMARK   15  A    between atoms: C_33  and  N_68
REMARK   16  A    between atoms: C_34  and  N_68
REMARK                            x       y       z     vdW  Elec       q    Type
REMARK                         _______ _______ _______ _____ _____    ______ ____
ROOT
ATOM      1  C   UNL     1       4.115  -5.062  -6.637  0.00  0.00    +0.144 C 
ATOM      2  C   UNL     1       3.024  -4.942  -7.676  0.00  0.00    +0.071 C 
ATOM      3  C   UNL     1       1.695  -5.290  -7.529  0.00  0.00    +0.133 C 
ATOM      4  C   UNL     1       3.633  -4.405  -8.821  0.00  0.00    +0.249 C 
ATOM      5  O   UNL     1       3.077  -4.161  -9.877  0.00  0.00    -0.282 OA
ATOM      6  C   UNL     1       5.074  -4.189  -8.522  0.00  0.00    +0.288 C 
ATOM      7  O   UNL     1       5.886  -3.735  -9.302  0.00  0.00    -0.266 OA
ATOM      8  N   UNL     1       5.346  -4.569  -7.262  0.00  0.00    -0.285 N 
ENDROOT
BRANCH   1  12
ATOM      9  C   UNL     1       3.152  -2.680  -3.222  0.00  0.00    +0.121 A 
ATOM     10  C   UNL     1       3.634  -2.079  -4.375  0.00  0.00    +0.046 A 
ATOM     11  C   UNL     1       3.949  -2.851  -5.476  0.00  0.00    +0.009 A 
ATOM     12  C   UNL     1       3.775  -4.222  -5.433  0.00  0.00    -0.022 A 
ATOM     13  C   UNL     1       3.290  -4.824  -4.287  0.00  0.00    +0.009 A 
ATOM     14  C   UNL     1       2.978  -4.056  -3.181  0.00  0.00    +0.046 A 
BRANCH   9  15
ATOM     15  O   UNL     1       2.846  -1.923  -2.136  0.00  0.00    -0.492 OA
BRANCH  15  16
ATOM     16  C   UNL     1       3.050  -0.513  -2.250  0.00  0.00    +0.229 C 
BRANCH  16  18
ATOM     17  C   UNL     1       2.873   1.676  -1.060  0.00  0.00    +0.007 C 
ATOM     18  C   UNL     1       2.654   0.167  -0.938  0.00  0.00    +0.038 C 
ENDBRANCH  16  18
ENDBRANCH  15  16
ENDBRANCH   9  15
ENDBRANCH   1  12
BRANCH   3  19
ATOM     19  C   UNL     1       0.730  -4.975  -8.593  0.00  0.00    +0.017 A 
ATOM     20  C   UNL     1       0.647  -3.674  -9.105  0.00  0.00    +0.015 A 
ATOM     21  C   UNL     1      -0.253  -3.387 -10.105  0.00  0.00    +0.046 A 
ATOM     22  C   UNL     1      -1.088  -4.383 -10.599  0.00  0.00    +0.121 A 
ATOM     23  C   UNL     1      -1.014  -5.675 -10.090  0.00  0.00    +0.046 A 
ATOM     24  C   UNL     1      -0.113  -5.974  -9.094  0.00  0.00    +0.015 A 
BRANCH  22  25
ATOM     25  O   UNL     1      -1.978  -4.093 -11.582  0.00  0.00    -0.489 OA
BRANCH  25  26
ATOM     26  C   UNL     1      -2.889  -5.128 -11.958  0.00  0.00    +0.167 C 
ATOM     27  C   UNL     1      -4.144  -4.505 -12.571  0.00  0.00    +0.051 C 
ATOM     28  C   UNL     1      -2.221  -6.045 -12.986  0.00  0.00    +0.051 C 
ENDBRANCH  25  26
ENDBRANCH  22  25
ENDBRANCH   3  19
BRANCH   3  29
ATOM     29  O   UNL     1       1.282  -5.918  -6.407  0.00  0.00    -0.506 OA
ATOM     30  H   UNL     1       0.300  -6.094  -6.466  0.00  0.00    +0.292 HD
ENDBRANCH   3  29
BRANCH   8  31
ATOM     31  C   UNL     1       6.660  -4.502  -6.618  0.00  0.00    +0.090 C 
BRANCH  31  32
ATOM     32  C   UNL     1       7.414  -5.811  -6.861  0.00  0.00    -0.060 C 
BRANCH  32  35
ATOM     33  C   UNL     1       9.388  -7.059  -6.221  0.00  0.00    -0.097 C 
ATOM     34  C   UNL     1       9.580  -4.729  -6.853  0.00  0.00    -0.097 C 
ATOM     35  N   UNL     1       8.727  -5.737  -6.187  0.00  0.00    +0.377 N 
ATOM     36  H   UNL     1       8.585  -5.460  -5.209  0.00  0.00    -0.083 HD
ENDBRANCH  32  35
ENDBRANCH  31  32
ENDBRANCH   8  31
TORSDOF 11
