REMARK  Name = ZINC22365157
REMARK  13 active torsions:
REMARK  status: ('A' for Active; 'I' for Inactive)
REMARK    1  A    between atoms: C_1  and  C_2
REMARK    2  A    between atoms: C_2  and  C_3
REMARK    3  A    between atoms: C_2  and  O_4
REMARK    4  A    between atoms: O_4  and  C_5
REMARK    5  A    between atoms: C_8  and  C_11
REMARK    6  A    between atoms: C_11  and  C_12
REMARK    7  A    between atoms: C_12  and  C_13
REMARK    8  A    between atoms: C_13  and  N_14
REMARK    9  A    between atoms: C_15  and  C_17
REMARK   10  A    between atoms: C_17  and  N_18
REMARK   11  A    between atoms: N_18  and  C_19
REMARK   12  A    between atoms: N_18  and  S_28
REMARK   13  A    between atoms: S_28  and  C_31
REMARK                            x       y       z     vdW  Elec       q    Type
REMARK                         _______ _______ _______ _____ _____    ______ ____
ROOT
ATOM      1  N   UNL     1       1.742  -4.698  -2.807  0.00  0.00    -0.314 N 
ATOM      2  C   UNL     1       1.800  -6.021  -3.055  0.00  0.00    +0.232 C 
ATOM      3  O   UNL     1       1.649  -6.815  -2.151  0.00  0.00    -0.274 OA
ATOM      4  H   UNL     1       1.878  -3.978  -3.628  0.00  0.00    +0.149 HD
ENDROOT
BRANCH   1   5
ATOM      5  C   UNL     1       1.498  -4.218  -1.445  0.00  0.00    +0.104 C 
BRANCH   5   6
ATOM      6  C   UNL     1       1.480  -2.688  -1.438  0.00  0.00    +0.023 C 
BRANCH   6   7
ATOM      7  C   UNL     1       1.225  -2.187  -0.015  0.00  0.00    +0.036 C 
BRANCH   7  11
ATOM      8  C   UNL     1       1.176   2.086   0.003  0.00  0.00    +0.121 A 
ATOM      9  C   UNL     1       0.001   1.378  -0.207  0.00  0.00    +0.046 A 
ATOM     10  C   UNL     1       0.020  -0.003  -0.213  0.00  0.00    +0.007 A 
ATOM     11  C   UNL     1       1.208  -0.680  -0.009  0.00  0.00    -0.047 A 
ATOM     12  C   UNL     1       2.380   0.023   0.201  0.00  0.00    +0.007 A 
ATOM     13  C   UNL     1       2.366   1.404   0.208  0.00  0.00    +0.046 A 
BRANCH   8  14
ATOM     14  O   UNL     1       1.160   3.445   0.009  0.00  0.00    -0.489 OA
BRANCH  14  16
ATOM     15  C   UNL     1       2.314   5.506  -0.500  0.00  0.00    +0.051 C 
ATOM     16  C   UNL     1       2.422   4.108   0.112  0.00  0.00    +0.167 C 
ATOM     17  C   UNL     1       2.819   4.224   1.585  0.00  0.00    +0.051 C 
ENDBRANCH  14  16
ENDBRANCH   8  14
ENDBRANCH   7  11
ENDBRANCH   6   7
ENDBRANCH   5   6
ENDBRANCH   1   5
BRANCH   2  18
ATOM     18  C   UNL     1       2.050  -6.515  -4.457  0.00  0.00    +0.226 C 
BRANCH  18  19
ATOM     19  N   UNL     1       2.067  -7.980  -4.463  0.00  0.00    -0.197 N 
BRANCH  19  20
ATOM     20  C   UNL     1       3.245  -8.667  -4.154  0.00  0.00    +0.071 A 
ATOM     21  C   UNL     1       3.572  -8.926  -2.830  0.00  0.00    +0.047 A 
ATOM     22  C   UNL     1       4.737  -9.605  -2.527  0.00  0.00    +0.061 A 
ATOM     23  C   UNL     1       5.578 -10.027  -3.543  0.00  0.00    +0.061 A 
ATOM     24  C   UNL     1       5.255  -9.770  -4.863  0.00  0.00    +0.043 A 
ATOM     25  C   UNL     1       4.088  -9.097  -5.172  0.00  0.00    +0.065 A 
ATOM     26 CL   UNL     1       3.679  -8.781  -6.830  0.00  0.00    -0.082 Cl
ATOM     27 CL   UNL     1       7.040 -10.881  -3.159  0.00  0.00    -0.082 Cl
ATOM     28 CL   UNL     1       5.147  -9.929  -0.871  0.00  0.00    -0.082 Cl
ENDBRANCH  19  20
BRANCH  19  29
ATOM     29  S   UNL     1       0.691  -8.822  -4.836  0.00  0.00    +0.043 S 
ATOM     30  O   UNL     1       0.800 -10.036  -4.105  0.00  0.00    -0.155 OA
ATOM     31  O   UNL     1      -0.371  -7.914  -4.579  0.00  0.00    -0.155 OA
ATOM     32  C   UNL     1       0.815  -9.152  -6.616  0.00  0.00    +0.218 C 
ENDBRANCH  19  29
ENDBRANCH  18  19
ENDBRANCH   2  18
TORSDOF 10
