REMARK  Name = ZINC43429337
REMARK  10 active torsions:
REMARK  status: ('A' for Active; 'I' for Inactive)
REMARK    1  A    between atoms: C_1  and  C_2
REMARK    2  A    between atoms: C_2  and  C_3
REMARK    3  A    between atoms: C_2  and  C_4
REMARK    4  A    between atoms: C_2  and  C_5
REMARK    5  A    between atoms: C_5  and  C_6
REMARK    6  A    between atoms: C_6  and  C_7
REMARK    7  A    between atoms: C_6  and  C_8
REMARK    8  A    between atoms: C_6  and  N_9
REMARK    9  A    between atoms: C_10  and  C_12
REMARK   10  A    between atoms: C_14  and  N_18
REMARK                            x       y       z     vdW  Elec       q    Type
REMARK                         _______ _______ _______ _____ _____    ______ ____
ROOT
ATOM      1  N   UNL     1       3.297  -0.447  -2.901  0.00  0.00    -0.305 N 
ATOM      2  C   UNL     1       4.610  -0.160  -2.998  0.00  0.00    +0.261 C 
ATOM      3  O   UNL     1       5.191   0.357  -2.062  0.00  0.00    -0.269 OA
ATOM      4  H   UNL     1       2.834  -0.859  -3.647  0.00  0.00    +0.150 HD
ENDROOT
BRANCH   2   5
ATOM      5  C   UNL     1       5.339  -0.470  -4.232  0.00  0.00    +0.104 A 
ATOM      6  C   UNL     1       6.678  -0.237  -4.468  0.00  0.00    +0.055 A 
ATOM      7  C   UNL     1       6.953  -0.684  -5.768  0.00  0.00    +0.043 A 
ATOM      8  C   UNL     1       5.798  -1.172  -6.291  0.00  0.00    +0.106 A 
ATOM      9  N   UNL     1       4.811  -1.051  -5.363  0.00  0.00    -0.355 N 
ATOM     10  H   UNL     1       3.889  -1.326  -5.479  0.00  0.00    +0.166 HD
BRANCH   7  11
ATOM     11  N   UNL     1       8.202  -0.636  -6.415  0.00  0.00    -0.357 N 
ATOM     12  H   UNL     1       8.972  -0.267  -5.955  0.00  0.00    +0.142 HD
ATOM     13  H   UNL     1       8.292  -0.972  -7.320  0.00  0.00    +0.142 HD
ENDBRANCH   7  11
ENDBRANCH   2   5
BRANCH   1  14
ATOM     14  C   UNL     1       2.569  -0.137  -1.667  0.00  0.00    +0.030 C 
ATOM     15  C   UNL     1       2.772   1.337  -1.312  0.00  0.00    +0.031 C 
ATOM     16  C   UNL     1       3.097  -1.014  -0.530  0.00  0.00    +0.031 C 
BRANCH  14  17
ATOM     17  C   UNL     1       1.078  -0.412  -1.873  0.00  0.00    +0.031 C 
BRANCH  17  19
ATOM     18  C   UNL     1       1.013  -0.865  -4.329  0.00  0.00    +0.010 C 
ATOM     19  C   UNL     1       0.641   0.136  -3.233  0.00  0.00    -0.036 C 
ATOM     20  C   UNL     1       1.348   1.467  -3.497  0.00  0.00    +0.010 C 
ATOM     21  C   UNL     1      -0.873   0.353  -3.233  0.00  0.00    +0.010 C 
ENDBRANCH  17  19
ENDBRANCH  14  17
ENDBRANCH   1  14
TORSDOF 5
