REMARK  Name = ZINC59793058
REMARK  9 active torsions:
REMARK  status: ('A' for Active; 'I' for Inactive)
REMARK    1  A    between atoms: C_4  and  C_7
REMARK    2  A    between atoms: C_7  and  C_8
REMARK    3  A    between atoms: C_7  and  N_14
REMARK    4  A    between atoms: C_15  and  C_17
REMARK    5  A    between atoms: C_17  and  C_18
REMARK    6  A    between atoms: C_18  and  S_19
REMARK    7  A    between atoms: S_19  and  C_20
REMARK    8  A    between atoms: C_23  and  C_26
REMARK    9  A    between atoms: C_29  and  N_32
REMARK                            x       y       z     vdW  Elec       q    Type
REMARK                         _______ _______ _______ _____ _____    ______ ____
ROOT
ATOM      1  C   UNL     1       4.619  -3.561  -2.422  0.00  0.00    +0.107 C 
ENDROOT
BRANCH   1   3
ATOM      2  N   UNL     1       3.611  -1.865  -0.930  0.00  0.00    -0.304 N 
ATOM      3  C   UNL     1       4.721  -2.370  -1.504  0.00  0.00    +0.215 C 
ATOM      4  O   UNL     1       5.802  -1.868  -1.281  0.00  0.00    -0.276 OA
ATOM      5  H   UNL     1       2.747  -2.267  -1.108  0.00  0.00    +0.150 HD
BRANCH   2   6
ATOM      6  C   UNL     1       3.711  -0.707  -0.038  0.00  0.00    +0.134 C 
BRANCH   6  10
ATOM      7  C   UNL     1      -0.017   1.378   0.010  0.00  0.00    +0.000 A 
ATOM      8  C   UNL     1       1.171   2.086   0.002  0.00  0.00    +0.000 A 
ATOM      9  C   UNL     1       2.377   1.411  -0.013  0.00  0.00    +0.006 A 
ATOM     10  C   UNL     1       2.396   0.029  -0.020  0.00  0.00    -0.023 A 
ATOM     11  C   UNL     1       1.208  -0.679  -0.012  0.00  0.00    +0.006 A 
ATOM     12  C   UNL     1       0.002  -0.004   0.002  0.00  0.00    +0.000 A 
ENDBRANCH   6  10
BRANCH   6  13
ATOM     13  C   UNL     1       4.044  -1.175   1.356  0.00  0.00    -0.023 A 
ATOM     14  C   UNL     1       3.455  -2.320   1.860  0.00  0.00    +0.006 A 
ATOM     15  C   UNL     1       3.760  -2.748   3.138  0.00  0.00    +0.000 A 
ATOM     16  C   UNL     1       4.654  -2.033   3.912  0.00  0.00    +0.000 A 
ATOM     17  C   UNL     1       5.243  -0.888   3.408  0.00  0.00    +0.000 A 
ATOM     18  C   UNL     1       4.941  -0.462   2.128  0.00  0.00    +0.006 A 
ENDBRANCH   6  13
ENDBRANCH   2   6
ENDBRANCH   1   3
BRANCH   1  19
ATOM     19  C   UNL     1       6.012  -3.931  -2.935  0.00  0.00    +0.086 C 
BRANCH  19  20
ATOM     20  S   UNL     1       5.888  -5.364  -4.040  0.00  0.00    -0.086 S 
BRANCH  20  21
ATOM     21  C   UNL     1       7.552  -5.663  -4.539  0.00  0.00    +0.185 A 
ATOM     22  N   UNL     1       8.606  -4.972  -4.164  0.00  0.00    -0.201 NA
ATOM     23  H   UNL     1       7.414  -7.313  -5.801  0.00  0.00    +0.191 HD
ATOM     24  C   UNL     1       9.706  -5.481  -4.738  0.00  0.00    +0.182 A 
ATOM     25  N   UNL     1       9.360  -6.505  -5.486  0.00  0.00    -0.152 NA
ATOM     26  N   UNL     1       7.968  -6.645  -5.369  0.00  0.00    -0.253 N 
BRANCH  24  27
ATOM     27  C   UNL     1      11.088  -4.972  -4.558  0.00  0.00    +0.021 A 
ATOM     28  C   UNL     1      11.328  -3.877  -3.730  0.00  0.00    +0.014 A 
ATOM     29  C   UNL     1      12.615  -3.408  -3.566  0.00  0.00    +0.033 A 
ATOM     30  C   UNL     1      13.667  -4.023  -4.221  0.00  0.00    +0.126 A 
ATOM     31  C   UNL     1      13.435  -5.110  -5.044  0.00  0.00    +0.033 A 
ATOM     32  C   UNL     1      12.152  -5.590  -5.212  0.00  0.00    +0.014 A 
BRANCH  30  33
ATOM     33  N   UNL     1      15.045  -3.514  -4.042  0.00  0.00    +0.056 N 
ATOM     34  O   UNL     1      15.251  -2.564  -3.323  0.00  0.00    -0.126 OA
ATOM     35  O   UNL     1      15.966  -4.050  -4.614  0.00  0.00    -0.126 OA
ENDBRANCH  30  33
ENDBRANCH  24  27
ENDBRANCH  20  21
ENDBRANCH  19  20
ENDBRANCH   1  19
TORSDOF 9
