REMARK  Name = ZINC12158577
REMARK  8 active torsions:
REMARK  status: ('A' for Active; 'I' for Inactive)
REMARK    1  A    between atoms: C_1  and  O_2
REMARK    2  A    between atoms: O_2  and  C_3
REMARK    3  A    between atoms: C_3  and  C_5
REMARK    4  A    between atoms: C_8  and  N_19
REMARK    5  A    between atoms: C_11  and  C_12
REMARK    6  A    between atoms: C_11  and  N_54
REMARK    7  A    between atoms: C_20  and  C_22
REMARK    8  A    between atoms: C_31  and  O_32
REMARK                            x       y       z     vdW  Elec       q    Type
REMARK                         _______ _______ _______ _____ _____    ______ ____
ROOT
ATOM      1  C   UNL     1      -0.018   1.481   0.010  0.00  0.00    +0.045 C 
ATOM      2  C   UNL     1       1.485   1.856  -0.002  0.00  0.00    +0.016 C 
ATOM      3  C   UNL     1       2.119   0.774   0.901  0.00  0.00    +0.056 C 
ATOM      4  C   UNL     1       1.119  -0.397   0.889  0.00  0.00    -0.055 C 
ATOM      5  N   UNL     1       0.023   0.014   0.003  0.00  0.00    +0.392 N 
ATOM      6  H   UNL     1       0.202  -0.323  -0.950  0.00  0.00    -0.080 HD
ENDROOT
BRANCH   3   7
ATOM      7  N   UNL     1       2.287   1.284   2.264  0.00  0.00    -0.310 N 
ATOM      8  C   UNL     1       3.193   0.720   3.088  0.00  0.00    +0.248 C 
ATOM      9  O   UNL     1       3.870  -0.212   2.700  0.00  0.00    -0.270 OA
ATOM     10  H   UNL     1       1.747   2.028   2.574  0.00  0.00    +0.149 HD
BRANCH   8  11
ATOM     11  C   UNL     1       3.362   1.234   4.461  0.00  0.00    +0.079 A 
ATOM     12  C   UNL     1       2.588   2.296   4.899  0.00  0.00    +0.025 A 
ATOM     13  C   UNL     1       2.754   2.780   6.204  0.00  0.00    -0.017 A 
ATOM     14  C   UNL     1       1.984   3.857   6.682  0.00  0.00    +0.008 A 
ATOM     15  C   UNL     1       2.168   4.304   7.954  0.00  0.00    +0.001 A 
ATOM     16  C   UNL     1       3.108   3.709   8.795  0.00  0.00    +0.001 A 
ATOM     17  C   UNL     1       3.870   2.666   8.368  0.00  0.00    +0.008 A 
ATOM     18  C   UNL     1       3.711   2.175   7.060  0.00  0.00    -0.014 A 
ATOM     19  C   UNL     1       4.483   1.099   6.592  0.00  0.00    +0.054 A 
ATOM     20  C   UNL     1       4.307   0.636   5.322  0.00  0.00    +0.130 A 
BRANCH  20  21
ATOM     21  O   UNL     1       5.053  -0.407   4.878  0.00  0.00    -0.506 OA
ATOM     22  H   UNL     1       5.887  -0.147   4.463  0.00  0.00    +0.292 HD
ENDBRANCH  20  21
ENDBRANCH   8  11
ENDBRANCH   3   7
BRANCH   1  23
ATOM     23  C   UNL     1      -0.708   2.010  -1.220  0.00  0.00    +0.293 C 
ATOM     24  O   UNL     1      -1.151   1.243  -2.042  0.00  0.00    -0.253 OA
BRANCH  23  26
ATOM     25  C   UNL     1      -1.508   3.773  -2.611  0.00  0.00    +0.280 C 
ATOM     26  O   UNL     1      -0.832   3.334  -1.403  0.00  0.00    -0.469 OA
ENDBRANCH  23  26
ENDBRANCH   1  23
BRANCH   5  27
ATOM     27  C   UNL     1      -1.272  -0.550   0.487  0.00  0.00    -0.042 C 
BRANCH  27  28
ATOM     28  C   UNL     1      -1.134  -2.036   0.698  0.00  0.00    -0.064 A 
ATOM     29  C   UNL     1      -1.423  -2.910  -0.334  0.00  0.00    +0.003 A 
ATOM     30  C   UNL     1      -1.291  -4.273  -0.143  0.00  0.00    +0.020 A 
ATOM     31  C   UNL     1      -0.881  -4.762   1.084  0.00  0.00    +0.041 A 
ATOM     32  C   UNL     1      -0.597  -3.887   2.118  0.00  0.00    +0.020 A 
ATOM     33  C   UNL     1      -0.724  -2.525   1.924  0.00  0.00    +0.003 A 
ATOM     34 CL   UNL     1      -0.721  -6.474   1.327  0.00  0.00    -0.084 Cl
ENDBRANCH  27  28
ENDBRANCH   5  27
TORSDOF 7
