REMARK  Name = ZINC41009091
REMARK  4 active torsions:
REMARK  status: ('A' for Active; 'I' for Inactive)
REMARK    1  A    between atoms: C_10  and  C_11
REMARK    2  A    between atoms: C_11  and  C_12
REMARK    3  A    between atoms: C_12  and  O_14
REMARK    4  A    between atoms: O_14  and  C_15
REMARK                            x       y       z     vdW  Elec       q    Type
REMARK                         _______ _______ _______ _____ _____    ______ ____
ROOT
ATOM      1  C   UNL     1       5.390   0.442   1.381  0.00  0.00    +0.317 C 
ATOM      2  O   UNL     1       4.733   0.038   2.312  0.00  0.00    -0.250 OA
ENDROOT
BRANCH   1   3
ATOM      3  C   UNL     1       5.002   0.078  -0.029  0.00  0.00    +0.156 C 
BRANCH   3  13
ATOM      4  C   UNL     1      -0.045   0.907   0.158  0.00  0.00    +0.001 A 
ATOM      5  C   UNL     1       1.083   1.726   0.136  0.00  0.00    +0.001 A 
ATOM      6  C   UNL     1       2.334   1.193   0.083  0.00  0.00    +0.009 A 
ATOM      7  C   UNL     1       2.495  -0.203   0.051  0.00  0.00    -0.014 A 
ATOM      8  C   UNL     1       1.348  -1.035   0.073  0.00  0.00    -0.018 A 
ATOM      9  C   UNL     1       0.072  -0.448   0.127  0.00  0.00    +0.008 A 
ATOM     10  C   UNL     1       1.508  -2.431   0.042  0.00  0.00    +0.008 A 
ATOM     11  C   UNL     1       2.760  -2.963  -0.011  0.00  0.00    +0.001 A 
ATOM     12  C   UNL     1       3.888  -2.145  -0.033  0.00  0.00    +0.005 A 
ATOM     13  C   UNL     1       3.770  -0.789  -0.003  0.00  0.00    -0.029 A 
ENDBRANCH   3  13
ENDBRANCH   1   3
BRANCH   1  14
ATOM     14  O   UNL     1       6.465   1.215   1.604  0.00  0.00    -0.423 OA
BRANCH  14  15
ATOM     15  C   UNL     1       6.716   1.605   2.881  0.00  0.00    +0.160 A 
ATOM     16  C   UNL     1       6.260   2.804   3.327  0.00  0.00    +0.049 A 
ATOM     17  C   UNL     1       6.500   3.234   4.631  0.00  0.00    +0.006 A 
ATOM     18  C   UNL     1       7.199   2.477   5.509  0.00  0.00    +0.031 A 
ATOM     19  C   UNL     1       7.708   1.210   5.115  0.00  0.00    +0.103 A 
ATOM     20  C   UNL     1       7.454   0.753   3.754  0.00  0.00    +0.142 A 
ATOM     21  N   UNL     1       7.972  -0.448   3.498  0.00  0.00    -0.187 NA
ATOM     22  S   UNL     1       8.686  -0.913   4.863  0.00  0.00    +0.117 S 
ATOM     23  N   UNL     1       8.411   0.337   5.838  0.00  0.00    -0.191 NA
ENDBRANCH  14  15
ENDBRANCH   1  14
TORSDOF 4
