REMARK  Name = ZINC01407602
REMARK  2 active torsions:
REMARK  status: ('A' for Active; 'I' for Inactive)
REMARK    1  A    between atoms: C_4  and  N_11
REMARK    2  A    between atoms: C_5  and  C_7
REMARK                            x       y       z     vdW  Elec       q    Type
REMARK                         _______ _______ _______ _____ _____    ______ ____
ROOT
ATOM      1  N   UNL     1      -2.921  -2.366  -0.117  0.00  0.00    -0.327 N 
ATOM      2  C   UNL     1      -3.354  -1.073   0.074  0.00  0.00    +0.180 C 
ATOM      3  N   UNL     1      -4.702  -0.810   0.211  0.00  0.00    -0.298 N 
ATOM      4  C   UNL     1      -5.598  -1.848   0.298  0.00  0.00    +0.211 A 
ATOM      5  N   UNL     1      -6.932  -1.580   0.290  0.00  0.00    -0.293 N 
ATOM      6  H   UNL     1      -7.255  -0.636   0.221  0.00  0.00    +0.172 HD
ATOM      7  C   UNL     1      -7.817  -2.596   0.374  0.00  0.00    +0.256 A 
ATOM      8  O   UNL     1      -9.017  -2.376   0.369  0.00  0.00    -0.267 OA
ATOM      9  C   UNL     1      -7.330  -3.913   0.469  0.00  0.00    +0.038 A 
ATOM     10  C   UNL     1      -5.983  -4.122   0.474  0.00  0.00    +0.053 A 
ATOM     11  N   UNL     1      -5.152  -3.083   0.382  0.00  0.00    -0.218 NA
ATOM     12  C   UNL     1      -5.691  -5.604   0.584  0.00  0.00    +0.056 C 
ATOM     13  C   UNL     1      -7.016  -6.304   0.210  0.00  0.00    +0.011 C 
ATOM     14  C   UNL     1      -8.064  -5.231   0.575  0.00  0.00    +0.043 C 
ATOM     15  H   UNL     1      -3.564  -3.078  -0.255  0.00  0.00    +0.169 HD
ATOM     16  H   UNL     1      -2.703   0.852   0.186  0.00  0.00    +0.159 HD
ATOM     17  H   UNL     1      -5.016   0.106   0.245  0.00  0.00    +0.172 HD
ATOM     18  N   UNL     1      -2.428  -0.128   0.122  0.00  0.00    -0.371 N 
ATOM     19  H   UNL     1      -1.433  -0.382   0.094  0.00  0.00    +0.159 HD
ENDROOT
BRANCH   1  23
ATOM     20  C   UNL     1       1.157  -3.219  -0.097  0.00  0.00    +0.001 A 
ATOM     21  C   UNL     1       0.681  -2.108   0.575  0.00  0.00    +0.002 A 
ATOM     22  C   UNL     1      -0.670  -1.822   0.571  0.00  0.00    +0.026 A 
ATOM     23  C   UNL     1      -1.552  -2.652  -0.110  0.00  0.00    +0.053 A 
ATOM     24  C   UNL     1      -1.071  -3.767  -0.784  0.00  0.00    +0.078 A 
ATOM     25  C   UNL     1       0.281  -4.050  -0.771  0.00  0.00    +0.014 A 
BRANCH  24  26
ATOM     26  C   UNL     1      -2.024  -4.671  -1.523  0.00  0.00    +0.419 C 
ATOM     27  F   UNL     1      -1.309  -5.716  -2.117  0.00  0.00    -0.166 F 
ATOM     28  F   UNL     1      -2.959  -5.197  -0.625  0.00  0.00    -0.166 F 
ATOM     29  F   UNL     1      -2.688  -3.938  -2.513  0.00  0.00    -0.166 F 
ENDBRANCH  24  26
ENDBRANCH   1  23
TORSDOF 2
