REMARK  Name = ZINC36065635
REMARK  14 active torsions:
REMARK  status: ('A' for Active; 'I' for Inactive)
REMARK    1  A    between atoms: C_1  and  C_2
REMARK    2  A    between atoms: C_2  and  O_3
REMARK    3  A    between atoms: O_3  and  C_4
REMARK    4  A    between atoms: C_7  and  C_10
REMARK    5  A    between atoms: C_10  and  N_11
REMARK    6  A    between atoms: N_11  and  C_12
REMARK    7  A    between atoms: N_11  and  C_24
REMARK    8  A    between atoms: C_12  and  C_13
REMARK    9  A    between atoms: C_13  and  C_14
REMARK   10  A    between atoms: C_24  and  C_25
REMARK   11  A    between atoms: C_27  and  C_30
REMARK   12  A    between atoms: N_32  and  C_33
REMARK   13  A    between atoms: C_33  and  C_35
REMARK   14  A    between atoms: C_33  and  C_36
REMARK                            x       y       z     vdW  Elec       q    Type
REMARK                         _______ _______ _______ _____ _____    ______ ____
ROOT
ATOM      1  N   UNL     1       0.742  -7.340  -0.412  0.00  0.00    +0.388 N 
ATOM      2  H   UNL     1      -0.206  -7.011  -0.307  0.00  0.00    -0.081 HD
ENDROOT
BRANCH   1   3
ATOM      3  C   UNL     1       1.660  -6.414   0.266  0.00  0.00    -0.042 C 
BRANCH   3   7
ATOM      4  C   UNL     1       1.054  -2.457  -1.232  0.00  0.00    +0.121 A 
ATOM      5  C   UNL     1       0.327  -2.905  -0.138  0.00  0.00    +0.046 A 
ATOM      6  C   UNL     1       0.525  -4.184   0.344  0.00  0.00    +0.005 A 
ATOM      7  C   UNL     1       1.446  -5.019  -0.263  0.00  0.00    -0.064 A 
ATOM      8  C   UNL     1       2.171  -4.575  -1.353  0.00  0.00    +0.005 A 
ATOM      9  C   UNL     1       1.973  -3.298  -1.843  0.00  0.00    +0.046 A 
BRANCH   4  10
ATOM     10  O   UNL     1       0.861  -1.199  -1.709  0.00  0.00    -0.492 OA
BRANCH  10  12
ATOM     11  C   UNL     1      -0.179   0.982  -1.705  0.00  0.00    +0.048 C 
ATOM     12  C   UNL     1      -0.101  -0.389  -1.031  0.00  0.00    +0.225 C 
ENDBRANCH  10  12
ENDBRANCH   4  10
ENDBRANCH   3   7
ENDBRANCH   1   3
BRANCH   1  13
ATOM     13  C   UNL     1       1.081  -7.408  -1.839  0.00  0.00    -0.073 C 
BRANCH  13  14
ATOM     14  C   UNL     1       0.054  -8.279  -2.566  0.00  0.00    +0.019 C 
BRANCH  14  15
ATOM     15  C   UNL     1       0.323  -8.241  -4.049  0.00  0.00    -0.024 A 
ATOM     16  C   UNL     1      -0.287  -7.457  -4.951  0.00  0.00    +0.087 A 
ATOM     17  N   UNL     1       0.219  -7.701  -6.199  0.00  0.00    -0.360 N 
ATOM     18  H   UNL     1      -0.065  -7.255  -7.012  0.00  0.00    +0.165 HD
ATOM     19  C   UNL     1       1.192  -8.672  -6.128  0.00  0.00    +0.047 A 
ATOM     20  C   UNL     1       1.304  -9.049  -4.777  0.00  0.00    +0.003 A 
ATOM     21  C   UNL     1       2.229 -10.025  -4.400  0.00  0.00    +0.010 A 
ATOM     22  C   UNL     1       3.024 -10.608  -5.347  0.00  0.00    +0.001 A 
ATOM     23  C   UNL     1       2.920 -10.237  -6.680  0.00  0.00    +0.002 A 
ATOM     24  C   UNL     1       2.008  -9.282  -7.075  0.00  0.00    +0.026 A 
ENDBRANCH  14  15
ENDBRANCH  13  14
ENDBRANCH   1  13
BRANCH   1  25
ATOM     25  C   UNL     1       0.866  -8.676   0.186  0.00  0.00    +0.019 C 
BRANCH  25  26
ATOM     26  C   UNL     1       0.405  -8.629   1.620  0.00  0.00    +0.179 A 
ATOM     27  N   UNL     1      -0.819  -8.798   2.023  0.00  0.00    -0.210 NA
ATOM     28  C   UNL     1      -0.846  -8.687   3.378  0.00  0.00    +0.163 A 
ATOM     29  C   UNL     1       0.429  -8.441   3.785  0.00  0.00    +0.230 A 
ATOM     30  O   UNL     1       1.194  -8.413   2.682  0.00  0.00    -0.449 OA
BRANCH  28  31
ATOM     31  C   UNL     1      -2.033  -8.809   4.244  0.00  0.00    +0.266 C 
ATOM     32  O   UNL     1      -1.938  -8.605   5.439  0.00  0.00    -0.268 OA
ATOM     33  N   UNL     1      -3.224  -9.148   3.711  0.00  0.00    -0.303 N 
ATOM     34  H   UNL     1      -3.285  -9.382   2.771  0.00  0.00    +0.150 HD
BRANCH  33  35
ATOM     35  C   UNL     1      -4.425  -9.162   4.550  0.00  0.00    +0.100 C 
ATOM     36  C   UNL     1      -5.015  -7.753   4.620  0.00  0.00    +0.033 C 
BRANCH  35  37
ATOM     37  C   UNL     1      -5.441 -10.103   3.956  0.00  0.00    -0.027 A 
ATOM     38  C   UNL     1      -5.712 -10.063   2.601  0.00  0.00    +0.005 A 
ATOM     39  C   UNL     1      -6.644 -10.926   2.056  0.00  0.00    +0.000 A 
ATOM     40  C   UNL     1      -7.306 -11.830   2.866  0.00  0.00    +0.000 A 
ATOM     41  C   UNL     1      -7.034 -11.871   4.221  0.00  0.00    +0.000 A 
ATOM     42  C   UNL     1      -6.099 -11.011   4.765  0.00  0.00    +0.005 A 
ENDBRANCH  35  37
ENDBRANCH  33  35
ENDBRANCH  28  31
ENDBRANCH  25  26
ENDBRANCH   1  25
TORSDOF 12
