REMARK  Name = ZINC41069863
REMARK  12 active torsions:
REMARK  status: ('A' for Active; 'I' for Inactive)
REMARK    1  A    between atoms: C_1  and  C_2
REMARK    2  A    between atoms: C_2  and  C_3
REMARK    3  A    between atoms: C_2  and  C_4
REMARK    4  A    between atoms: C_2  and  C_18
REMARK    5  A    between atoms: C_4  and  N_5
REMARK    6  A    between atoms: N_5  and  S_6
REMARK    7  A    between atoms: S_6  and  C_9
REMARK    8  A    between atoms: C_14  and  N_15
REMARK    9  A    between atoms: N_15  and  N_16
REMARK   10  A    between atoms: C_18  and  N_19
REMARK   11  A    between atoms: N_19  and  C_20
REMARK   12  A    between atoms: N_19  and  C_21
REMARK                            x       y       z     vdW  Elec       q    Type
REMARK                         _______ _______ _______ _____ _____    ______ ____
ROOT
ATOM      1  S   UNL     1      -3.693   1.442   0.357  0.00  0.00    +0.062 S 
ATOM      2  O   UNL     1      -4.156   2.335   1.361  0.00  0.00    -0.153 OA
ATOM      3  O   UNL     1      -3.912   1.673  -1.028  0.00  0.00    -0.153 OA
ENDROOT
BRANCH   1   4
ATOM      4  C   UNL     1      -4.394  -0.133   0.722  0.00  0.00    +0.147 A 
ATOM      5  C   UNL     1      -5.041  -0.857  -0.263  0.00  0.00    +0.048 A 
ATOM      6  C   UNL     1      -5.579  -2.094   0.069  0.00  0.00    +0.038 A 
ATOM      7  C   UNL     1      -5.453  -2.561   1.363  0.00  0.00    +0.128 A 
ATOM      8  N   UNL     1      -4.830  -1.847   2.282  0.00  0.00    -0.236 NA
ATOM      9  C   UNL     1      -4.299  -0.667   2.003  0.00  0.00    +0.159 A 
ATOM     10 BR   UNL     1      -6.475  -3.128  -1.236  0.00  0.00    -0.049 Br
BRANCH   9  11
ATOM     11  N   UNL     1      -3.646   0.048   3.001  0.00  0.00    -0.266 N 
ATOM     12  H   UNL     1      -3.315   0.942   2.820  0.00  0.00    +0.167 HD
BRANCH  11  13
ATOM     13  N   UNL     1      -3.470  -0.508   4.236  0.00  0.00    -0.255 NA
ATOM     14  H   UNL     1      -2.982   0.125   4.851  0.00  0.00    +0.140 HD
ATOM     15  H   UNL     1      -4.353  -0.792   4.634  0.00  0.00    +0.140 HD
ENDBRANCH  11  13
ENDBRANCH   9  11
ENDBRANCH   1   4
BRANCH   1  16
ATOM     16  N   UNL     1      -2.055   1.308   0.562  0.00  0.00    -0.189 NA
ATOM     17  H   UNL     1      -1.608   1.827   1.249  0.00  0.00    +0.148 HD
BRANCH  16  18
ATOM     18  C   UNL     1      -1.281   0.406  -0.295  0.00  0.00    +0.110 C 
BRANCH  18  20
ATOM     19  C   UNL     1       0.439   2.189  -0.618  0.00  0.00    +0.010 C 
ATOM     20  C   UNL     1       0.206   0.743  -0.177  0.00  0.00    -0.036 C 
ATOM     21  C   UNL     1       0.654   0.574   1.276  0.00  0.00    +0.010 C 
BRANCH  20  22
ATOM     22  C   UNL     1       1.015  -0.199  -1.072  0.00  0.00    -0.072 C 
BRANCH  22  23
ATOM     23  N   UNL     1       2.448   0.074  -0.902  0.00  0.00    +0.376 N 
ATOM     24  C   UNL     1       2.956  -0.674   0.255  0.00  0.00    -0.097 C 
ATOM     25  C   UNL     1       3.172  -0.342  -2.111  0.00  0.00    -0.097 C 
ATOM     26  H   UNL     1       2.586   1.062  -0.751  0.00  0.00    -0.083 HD
ENDBRANCH  22  23
ENDBRANCH  20  22
ENDBRANCH  18  20
ENDBRANCH  16  18
ENDBRANCH   1  16
TORSDOF 8
