REMARK  Name = ZINC03878225
REMARK  4 active torsions:
REMARK  status: ('A' for Active; 'I' for Inactive)
REMARK    1  A    between atoms: C_4  and  C_7
REMARK    2  A    between atoms: C_8  and  S_15
REMARK    3  A    between atoms: S_15  and  C_16
REMARK    4  A    between atoms: C_21  and  N_22
REMARK                            x       y       z     vdW  Elec       q    Type
REMARK                         _______ _______ _______ _____ _____    ______ ____
ROOT
ATOM      1  C   UNL     1       3.145  -1.903  -0.038  0.00  0.00    +0.104 A 
ATOM      2  C   UNL     1       1.666  -1.987  -0.025  0.00  0.00    +0.113 A 
ATOM      3  N   UNL     1       1.213  -0.661  -0.013  0.00  0.00    -0.287 N 
ATOM      4  C   UNL     1       0.002  -0.004   0.002  0.00  0.00    +0.101 A 
ATOM      5  C   UNL     1      -0.016   1.334   0.009  0.00  0.00    +0.067 A 
ATOM      6  S   UNL     1       1.724   1.727  -0.005  0.00  0.00    -0.058 S 
ATOM      7  C   UNL     1       2.340   0.110  -0.020  0.00  0.00    +0.179 A 
ATOM      8  N   UNL     1       3.448  -0.622  -0.034  0.00  0.00    -0.220 NA
ENDROOT
BRANCH   1  12
ATOM      9  C   UNL     1       5.871  -5.157  -0.080  0.00  0.00    +0.000 A 
ATOM     10  C   UNL     1       6.176  -3.993  -0.766  0.00  0.00    +0.001 A 
ATOM     11  C   UNL     1       5.297  -2.932  -0.758  0.00  0.00    +0.010 A 
ATOM     12  C   UNL     1       4.091  -3.033  -0.053  0.00  0.00    +0.003 A 
ATOM     13  C   UNL     1       3.792  -4.211   0.643  0.00  0.00    +0.010 A 
ATOM     14  C   UNL     1       4.681  -5.264   0.621  0.00  0.00    +0.001 A 
ENDBRANCH   1  12
BRANCH   2  15
ATOM     15  S   UNL     1       0.710  -3.407  -0.022  0.00  0.00    -0.067 S 
BRANCH  15  16
ATOM     16  C   UNL     1       0.430  -3.585   1.708  0.00  0.00    +0.044 A 
ATOM     17  C   UNL     1       0.969  -2.662   2.602  0.00  0.00    +0.017 A 
ATOM     18  C   UNL     1       0.747  -2.805   3.956  0.00  0.00    +0.001 A 
ATOM     19  C   UNL     1      -0.011  -3.864   4.427  0.00  0.00    +0.002 A 
ATOM     20  C   UNL     1      -0.548  -4.783   3.543  0.00  0.00    +0.034 A 
ATOM     21  C   UNL     1      -0.335  -4.646   2.187  0.00  0.00    +0.140 A 
BRANCH  21  22
ATOM     22  N   UNL     1      -0.915  -5.627   1.242  0.00  0.00    +0.058 N 
ATOM     23  O   UNL     1      -1.639  -6.630   1.696  0.00  0.00    -0.126 OA
ATOM     24  O   UNL     1      -0.708  -5.497  -0.052  0.00  0.00    -0.126 OA
ENDBRANCH  21  22
ENDBRANCH  15  16
ENDBRANCH   2  15
TORSDOF 4
