REMARK  Name = ZINC40343493
REMARK  11 active torsions:
REMARK  status: ('A' for Active; 'I' for Inactive)
REMARK    1  A    between atoms: C_1  and  C_2
REMARK    2  A    between atoms: C_2  and  C_3
REMARK    3  A    between atoms: C_3  and  C_4
REMARK    4  A    between atoms: C_4  and  O_5
REMARK    5  A    between atoms: O_5  and  C_6
REMARK    6  A    between atoms: C_9  and  C_12
REMARK    7  A    between atoms: C_15  and  C_31
REMARK    8  A    between atoms: N_22  and  C_23
REMARK    9  A    between atoms: C_23  and  C_24
REMARK   10  A    between atoms: C_24  and  C_25
REMARK   11  A    between atoms: C_25  and  N_26
REMARK                            x       y       z     vdW  Elec       q    Type
REMARK                         _______ _______ _______ _____ _____    ______ ____
ROOT
ATOM      1  C   UNL     1       1.905  -8.096   2.995  0.00  0.00    +0.141 C 
ATOM      2  C   UNL     1       0.903  -8.589   4.003  0.00  0.00    +0.035 A 
ATOM      3  C   UNL     1      -0.403  -8.718   4.355  0.00  0.00    +0.072 A 
ATOM      4  N   UNL     1      -0.422  -9.360   5.559  0.00  0.00    -0.276 N 
ATOM      5  N   UNL     1       0.779  -9.617   5.939  0.00  0.00    -0.168 NA
ATOM      6  H   UNL     1      -1.224  -9.589   6.056  0.00  0.00    +0.189 HD
ATOM      7  C   UNL     1       1.647  -9.181   5.048  0.00  0.00    +0.153 A 
ATOM      8  C   UNL     1       3.077  -9.063   4.708  0.00  0.00    +0.268 C 
ATOM      9  O   UNL     1       3.990  -9.473   5.398  0.00  0.00    -0.268 OA
ATOM     10  N   UNL     1       3.229  -8.440   3.526  0.00  0.00    -0.285 N 
ENDROOT
BRANCH   3  11
ATOM     11  C   UNL     1      -1.576  -8.252   3.582  0.00  0.00    +0.000 A 
ATOM     12  C   UNL     1      -1.576  -6.981   3.007  0.00  0.00    +0.011 A 
ATOM     13  C   UNL     1      -2.672  -6.551   2.288  0.00  0.00    +0.020 A 
ATOM     14  C   UNL     1      -3.772  -7.380   2.138  0.00  0.00    +0.041 A 
ATOM     15  C   UNL     1      -3.777  -8.642   2.706  0.00  0.00    +0.020 A 
ATOM     16  C   UNL     1      -2.684  -9.084   3.422  0.00  0.00    +0.011 A 
ATOM     17 CL   UNL     1      -5.148  -6.832   1.233  0.00  0.00    -0.084 Cl
ENDBRANCH   3  11
BRANCH   1  21
ATOM     18  C   UNL     1       1.563  -3.861   2.537  0.00  0.00    +0.121 A 
ATOM     19  C   UNL     1       1.020  -4.709   1.582  0.00  0.00    +0.046 A 
ATOM     20  C   UNL     1       1.133  -6.078   1.733  0.00  0.00    +0.009 A 
ATOM     21  C   UNL     1       1.784  -6.602   2.834  0.00  0.00    -0.022 A 
ATOM     22  C   UNL     1       2.325  -5.759   3.787  0.00  0.00    +0.009 A 
ATOM     23  C   UNL     1       2.221  -4.390   3.638  0.00  0.00    +0.046 A 
BRANCH  18  24
ATOM     24  O   UNL     1       1.454  -2.514   2.391  0.00  0.00    -0.492 OA
BRANCH  24  25
ATOM     25  C   UNL     1       0.763  -2.041   1.233  0.00  0.00    +0.229 C 
BRANCH  25  26
ATOM     26  C   UNL     1       0.742  -0.511   1.242  0.00  0.00    +0.041 C 
BRANCH  26  28
ATOM     27  C   UNL     1      -0.019   1.526   0.010  0.00  0.00    +0.004 C 
ATOM     28  C   UNL     1       0.002  -0.004   0.002  0.00  0.00    -0.000 C 
ENDBRANCH  26  28
ENDBRANCH  25  26
ENDBRANCH  24  25
ENDBRANCH  18  24
ENDBRANCH   1  21
BRANCH  10  29
ATOM     29  C   UNL     1       4.509  -8.151   2.874  0.00  0.00    +0.111 C 
BRANCH  29  30
ATOM     30  C   UNL     1       5.013  -6.779   3.325  0.00  0.00    +0.040 C 
BRANCH  30  31
ATOM     31  C   UNL     1       6.349  -6.477   2.643  0.00  0.00    +0.124 C 
BRANCH  31  32
ATOM     32  N   UNL     1       6.832  -5.163   3.075  0.00  0.00    -0.338 N 
ATOM     33  C   UNL     1       6.560  -3.961   2.478  0.00  0.00    +0.104 A 
ATOM     34  C   UNL     1       7.198  -3.017   3.195  0.00  0.00    +0.101 A 
ATOM     35  N   UNL     1       7.843  -3.625   4.202  0.00  0.00    -0.352 N 
ATOM     36  C   UNL     1       7.624  -4.910   4.139  0.00  0.00    +0.173 A 
ATOM     37  H   UNL     1       8.383  -3.180   4.873  0.00  0.00    +0.166 HD
ENDBRANCH  31  32
ENDBRANCH  30  31
ENDBRANCH  29  30
ENDBRANCH  10  29
TORSDOF 10
