REMARK  Name = ZINC05523377
REMARK  5 active torsions:
REMARK  status: ('A' for Active; 'I' for Inactive)
REMARK    1  A    between atoms: C_1  and  C_2
REMARK    2  A    between atoms: C_3  and  C_17
REMARK    3  A    between atoms: C_4  and  C_10
REMARK    4  A    between atoms: N_19  and  C_20
REMARK    5  A    between atoms: C_24  and  N_26
REMARK                            x       y       z     vdW  Elec       q    Type
REMARK                         _______ _______ _______ _____ _____    ______ ____
ROOT
ATOM      1  C   UNL     1       1.109   5.749   2.245  0.00  0.00    +0.061 C 
ATOM      2  C   UNL     1       1.690   4.751   1.277  0.00  0.00    +0.017 C 
ATOM      3  C   UNL     1       1.166   3.509   1.210  0.00  0.00    +0.056 C 
ATOM      4  C   UNL     1       1.780   2.537   0.223  0.00  0.00    +0.139 C 
ATOM      5  N   UNL     1       2.905   3.030  -0.588  0.00  0.00    -0.315 N 
ATOM      6  C   UNL     1       3.318   4.301  -0.406  0.00  0.00    +0.135 C 
ATOM      7  S   UNL     1       4.626   4.888  -1.341  0.00  0.00    -0.019 S 
ATOM      8  N   UNL     1       2.738   5.118   0.482  0.00  0.00    -0.300 N 
ATOM      9  H   UNL     1       3.340   2.455  -1.237  0.00  0.00    +0.149 HD
ATOM     10  H   UNL     1       3.081   6.021   0.565  0.00  0.00    +0.154 HD
ENDROOT
BRANCH   4  11
ATOM     11  C   UNL     1       2.255   1.331   0.992  0.00  0.00    -0.021 A 
ATOM     12  C   UNL     1       3.489   1.351   1.614  0.00  0.00    +0.006 A 
ATOM     13  C   UNL     1       3.926   0.245   2.320  0.00  0.00    +0.002 A 
ATOM     14  C   UNL     1       3.128  -0.881   2.404  0.00  0.00    +0.020 A 
ATOM     15  C   UNL     1       1.893  -0.901   1.781  0.00  0.00    +0.041 A 
ATOM     16  C   UNL     1       1.457   0.206   1.075  0.00  0.00    +0.025 A 
ATOM     17 CL   UNL     1       0.892  -2.315   1.886  0.00  0.00    -0.084 Cl
ENDBRANCH   4  11
BRANCH   3  18
ATOM     18  C   UNL     1       0.079   3.127   2.034  0.00  0.00    +0.248 C 
ATOM     19  O   UNL     1      -1.050   3.104   1.580  0.00  0.00    -0.270 OA
ATOM     20  N   UNL     1       0.295   2.789   3.321  0.00  0.00    -0.282 N 
ATOM     21  H   UNL     1       1.183   2.878   3.703  0.00  0.00    +0.155 HD
BRANCH  20  22
ATOM     22  C   UNL     1      -0.759   2.311   4.104  0.00  0.00    +0.036 A 
ATOM     23  C   UNL     1      -2.045   2.800   3.915  0.00  0.00    +0.023 A 
ATOM     24  C   UNL     1      -3.084   2.326   4.691  0.00  0.00    +0.004 A 
ATOM     25  C   UNL     1      -2.846   1.365   5.656  0.00  0.00    +0.033 A 
ATOM     26  C   UNL     1      -1.567   0.875   5.847  0.00  0.00    +0.128 A 
ATOM     27  C   UNL     1      -0.524   1.341   5.071  0.00  0.00    +0.056 A 
BRANCH  26  28
ATOM     28  N   UNL     1      -1.316  -0.153   6.881  0.00  0.00    +0.056 N 
ATOM     29  O   UNL     1      -2.236  -0.569   7.563  0.00  0.00    -0.126 OA
ATOM     30  O   UNL     1      -0.190  -0.585   7.051  0.00  0.00    -0.126 OA
ENDBRANCH  26  28
ENDBRANCH  20  22
ENDBRANCH   3  18
TORSDOF 4
