REMARK  Name = ZINC62843412
REMARK  4 active torsions:
REMARK  status: ('A' for Active; 'I' for Inactive)
REMARK    1  A    between atoms: C_1  and  C_2
REMARK    2  A    between atoms: C_2  and  C_20
REMARK    3  A    between atoms: N_10  and  C_11
REMARK    4  A    between atoms: C_17  and  N_19
REMARK                            x       y       z     vdW  Elec       q    Type
REMARK                         _______ _______ _______ _____ _____    ______ ____
ROOT
ATOM      1  C   UNL     1      -0.268   1.062   0.010  0.00  0.00    +0.023 C 
ATOM      2  C   UNL     1       1.020   1.888   0.002  0.00  0.00    +0.072 C 
ATOM      3  C   UNL     1       1.850   1.550   1.242  0.00  0.00    +0.037 C 
ATOM      4  C   UNL     1       2.169   0.051   1.244  0.00  0.00    +0.110 C 
ATOM      5  N   UNL     1       2.816  -0.297  -0.028  0.00  0.00    -0.286 N 
ATOM      6  C   UNL     1       2.144   0.065  -1.284  0.00  0.00    +0.110 C 
ATOM      7  C   UNL     1       1.825   1.563  -1.258  0.00  0.00    +0.037 C 
ATOM      8  C   UNL     1       4.002  -0.936  -0.044  0.00  0.00    +0.302 C 
ATOM      9  O   UNL     1       4.483  -1.300  -1.099  0.00  0.00    -0.253 OA
ATOM     10  N   UNL     1       4.656  -1.171   1.111  0.00  0.00    -0.298 N 
ATOM     11  H   UNL     1       4.240  -0.947   1.958  0.00  0.00    +0.150 HD
ENDROOT
BRANCH  10  12
ATOM     12  C   UNL     1       5.995  -1.765   1.087  0.00  0.00    +0.060 C 
ATOM     13  C   UNL     1       5.876  -3.289   1.015  0.00  0.00    +0.021 C 
ATOM     14  C   UNL     1       5.113  -3.800   2.239  0.00  0.00    +0.002 C 
ATOM     15  C   UNL     1       5.868  -3.407   3.511  0.00  0.00    -0.001 C 
ATOM     16  C   UNL     1       5.987  -1.883   3.583  0.00  0.00    -0.014 C 
ATOM     17  C   UNL     1       6.750  -1.373   2.359  0.00  0.00    -0.054 C 
BRANCH  17  18
ATOM     18  N   UNL     1       6.864   0.090   2.428  0.00  0.00    +0.381 N 
ATOM     19  H   UNL     1       5.942   0.499   2.445  0.00  0.00    -0.090 HD
ATOM     20  H   UNL     1       7.362   0.349   3.267  0.00  0.00    -0.090 HD
ATOM     21  H   UNL     1       7.367   0.427   1.621  0.00  0.00    -0.090 HD
ENDBRANCH  17  18
ENDBRANCH  10  12
BRANCH   2  22
ATOM     22  C   UNL     1       0.675   3.355   0.013  0.00  0.00    +0.362 C 
ATOM     23  O   UNL     1       0.031   3.822   0.936  0.00  0.00    -0.246 OA
ATOM     24  O   UNL     1       1.040   4.074  -0.901  0.00  0.00    -0.246 OA
ENDBRANCH   2  22
TORSDOF 3
