REMARK  Name = ZINC07662574
REMARK  7 active torsions:
REMARK  status: ('A' for Active; 'I' for Inactive)
REMARK    1  A    between atoms: C_1  and  N_2
REMARK    2  A    between atoms: N_2  and  C_3
REMARK    3  A    between atoms: C_3  and  N_5
REMARK    4  A    between atoms: N_5  and  C_6
REMARK    5  A    between atoms: C_6  and  C_7
REMARK    6  A    between atoms: C_7  and  C_9
REMARK    7  A    between atoms: C_7  and  C_14
REMARK                            x       y       z     vdW  Elec       q    Type
REMARK                         _______ _______ _______ _____ _____    ______ ____
ROOT
ATOM      1  C   UNL     1      -1.054   5.133   0.037  0.00  0.00    +0.075 C 
ENDROOT
BRANCH   1   2
ATOM      2  C   UNL     1      -1.907   5.356  -1.184  0.00  0.00    -0.013 A 
ATOM      3  C   UNL     1      -3.013   4.674  -1.521  0.00  0.00    +0.088 A 
ATOM      4  N   UNL     1      -3.522   5.160  -2.695  0.00  0.00    -0.360 N 
ATOM      5  H   UNL     1      -4.319   4.828  -3.136  0.00  0.00    +0.165 HD
ATOM      6  C   UNL     1      -2.731   6.187  -3.159  0.00  0.00    +0.047 A 
ATOM      7  C   UNL     1      -1.684   6.355  -2.233  0.00  0.00    +0.003 A 
ATOM      8  C   UNL     1      -0.716   7.337  -2.447  0.00  0.00    +0.010 A 
ATOM      9  C   UNL     1      -0.789   8.132  -3.557  0.00  0.00    +0.001 A 
ATOM     10  C   UNL     1      -1.819   7.969  -4.473  0.00  0.00    +0.002 A 
ATOM     11  C   UNL     1      -2.785   7.006  -4.281  0.00  0.00    +0.026 A 
ENDBRANCH   1   2
BRANCH   1  12
ATOM     12  C   UNL     1      -0.518   3.725   0.025  0.00  0.00    -0.001 A 
ATOM     13  C   UNL     1       0.770   3.301   0.012  0.00  0.00    +0.012 A 
ATOM     14  C   UNL     1       1.029   1.944   0.003  0.00  0.00    +0.008 A 
ATOM     15  C   UNL     1      -0.013   1.076   0.008  0.00  0.00    +0.045 A 
ATOM     16  S   UNL     1      -1.415   2.181   0.019  0.00  0.00    -0.101 S 
ENDBRANCH   1  12
BRANCH   1  17
ATOM     17  C   UNL     1      -1.897   5.348   1.295  0.00  0.00    +0.116 C 
BRANCH  17  18
ATOM     18  N   UNL     1      -1.042   5.248   2.480  0.00  0.00    -0.326 N 
ATOM     19  H   UNL     1      -0.093   5.071   2.380  0.00  0.00    +0.148 HD
BRANCH  18  20
ATOM     20  C   UNL     1      -1.572   5.404   3.709  0.00  0.00    +0.130 C 
ATOM     21  S   UNL     1      -3.246   5.718   3.886  0.00  0.00    -0.019 S 
BRANCH  20  23
ATOM     22  C   UNL     1      -1.361   5.482   6.136  0.00  0.00    +0.127 C 
ATOM     23  N   UNL     1      -0.785   5.313   4.800  0.00  0.00    -0.330 N 
ATOM     24  H   UNL     1       0.164   5.135   4.699  0.00  0.00    +0.147 HD
ENDBRANCH  20  23
ENDBRANCH  18  20
ENDBRANCH  17  18
ENDBRANCH   1  17
TORSDOF 6
