REMARK  Name = ZINC12712815
REMARK  14 active torsions:
REMARK  status: ('A' for Active; 'I' for Inactive)
REMARK    1  A    between atoms: C_1  and  C_2
REMARK    2  A    between atoms: C_7  and  C_8
REMARK    3  A    between atoms: C_8  and  C_9
REMARK    4  A    between atoms: C_9  and  N_10
REMARK    5  A    between atoms: N_10  and  C_11
REMARK    6  A    between atoms: C_11  and  C_13
REMARK    7  A    between atoms: C_11  and  C_20
REMARK    8  A    between atoms: N_22  and  C_23
REMARK    9  A    between atoms: C_23  and  C_24
REMARK   10  A    between atoms: C_24  and  C_25
REMARK   11  A    between atoms: C_25  and  C_26
REMARK   12  A    between atoms: C_25  and  C_27
REMARK   13  A    between atoms: C_28  and  C_30
REMARK   14  A    between atoms: C_30  and  N_31
REMARK                            x       y       z     vdW  Elec       q    Type
REMARK                         _______ _______ _______ _____ _____    ______ ____
ROOT
ATOM      1  N   UNL     1      -5.710   0.921  -0.580  0.00  0.00    -0.284 N 
ATOM      2  C   UNL     1      -7.002   0.540  -0.609  0.00  0.00    +0.238 C 
ATOM      3  O   UNL     1      -7.374  -0.392   0.073  0.00  0.00    -0.274 OA
ENDROOT
BRANCH   1   4
ATOM      4  C   UNL     1      -5.261   2.047  -1.404  0.00  0.00    +0.113 C 
BRANCH   4   5
ATOM      5  C   UNL     1      -4.957   1.553  -2.820  0.00  0.00    +0.054 C 
BRANCH   5  12
ATOM      6  C   UNL     1      -2.458   1.746  -4.256  0.00  0.00    +0.044 C 
ATOM      7  C   UNL     1      -3.497   2.826  -4.405  0.00  0.00    -0.047 A 
ATOM      8  C   UNL     1      -3.255   3.910  -5.229  0.00  0.00    +0.003 A 
ATOM      9  C   UNL     1      -4.209   4.901  -5.366  0.00  0.00    +0.000 A 
ATOM     10  C   UNL     1      -5.405   4.808  -4.678  0.00  0.00    +0.000 A 
ATOM     11  C   UNL     1      -5.649   3.723  -3.858  0.00  0.00    +0.004 A 
ATOM     12  C   UNL     1      -4.693   2.734  -3.718  0.00  0.00    -0.043 A 
ENDBRANCH   5  12
ENDBRANCH   4   5
ENDBRANCH   1   4
BRANCH   1  13
ATOM     13  C   UNL     1      -4.755   0.211   0.274  0.00  0.00    +0.192 C 
BRANCH  13  14
ATOM     14  C   UNL     1      -4.852  -1.270   0.013  0.00  0.00    -0.018 A 
ATOM     15  C   UNL     1      -5.014  -1.734  -1.279  0.00  0.00    +0.009 A 
ATOM     16  C   UNL     1      -5.098  -3.092  -1.521  0.00  0.00    +0.038 A 
ATOM     17  C   UNL     1      -5.030  -3.987  -0.467  0.00  0.00    +0.123 A 
ATOM     18  C   UNL     1      -4.872  -3.521   0.827  0.00  0.00    +0.038 A 
ATOM     19  C   UNL     1      -4.783  -2.163   1.066  0.00  0.00    +0.009 A 
ATOM     20  F   UNL     1      -5.117  -5.315  -0.701  0.00  0.00    -0.205 F 
ENDBRANCH  13  14
BRANCH  13  21
ATOM     21  C   UNL     1      -3.358   0.685  -0.033  0.00  0.00    +0.238 C 
ATOM     22  O   UNL     1      -3.035   0.921  -1.178  0.00  0.00    -0.273 OA
ATOM     23  N   UNL     1      -2.467   0.847   0.965  0.00  0.00    -0.313 N 
ATOM     24  H   UNL     1      -2.725   0.659   1.881  0.00  0.00    +0.149 HD
BRANCH  23  25
ATOM     25  C   UNL     1      -1.107   1.302   0.666  0.00  0.00    +0.104 C 
BRANCH  25  26
ATOM     26  C   UNL     1      -0.303   1.395   1.965  0.00  0.00    +0.022 C 
BRANCH  26  27
ATOM     27  C   UNL     1       1.117   1.871   1.653  0.00  0.00    -0.016 C 
ATOM     28  C   UNL     1       1.883   2.083   2.961  0.00  0.00    +0.007 C 
ATOM     29  C   UNL     1       1.834   0.815   0.808  0.00  0.00    +0.007 C 
ENDBRANCH  26  27
ENDBRANCH  25  26
ENDBRANCH  23  25
ENDBRANCH  13  21
ENDBRANCH   1  13
BRANCH   2  30
ATOM     30  C   UNL     1      -7.985   1.270  -1.487  0.00  0.00    +0.241 C 
BRANCH  30  31
ATOM     31  N   UNL     1      -9.312   0.668  -1.340  0.00  0.00    -0.235 N 
ATOM     32  C   UNL     1     -10.281   1.024  -0.432  0.00  0.00    +0.090 A 
ATOM     33  C   UNL     1     -10.357   1.980   0.575  0.00  0.00    +0.029 A 
ATOM     34  C   UNL     1     -11.493   2.086   1.327  0.00  0.00    +0.002 A 
ATOM     35  C   UNL     1     -12.575   1.247   1.094  0.00  0.00    +0.002 A 
ATOM     36  C   UNL     1     -12.526   0.302   0.112  0.00  0.00    +0.032 A 
ATOM     37  C   UNL     1     -11.373   0.172  -0.673  0.00  0.00    +0.113 A 
ATOM     38  N   UNL     1     -11.037  -0.646  -1.690  0.00  0.00    -0.129 NA
ATOM     39  N   UNL     1      -9.848  -0.380  -2.103  0.00  0.00    -0.064 NA
ENDBRANCH  30  31
ENDBRANCH   2  30
TORSDOF 11
