REMARK  Name = ZINC44254032
REMARK  9 active torsions:
REMARK  status: ('A' for Active; 'I' for Inactive)
REMARK    1  A    between atoms: C_1  and  C_2
REMARK    2  A    between atoms: C_6  and  C_8
REMARK    3  A    between atoms: C_13  and  C_20
REMARK    4  A    between atoms: C_14  and  S_16
REMARK    5  A    between atoms: S_16  and  C_17
REMARK    6  A    between atoms: C_17  and  C_18
REMARK    7  A    between atoms: C_20  and  C_22
REMARK    8  A    between atoms: C_20  and  N_26
REMARK    9  A    between atoms: C_22  and  C_23
REMARK                            x       y       z     vdW  Elec       q    Type
REMARK                         _______ _______ _______ _____ _____    ______ ____
ROOT
ATOM      1  C   UNL     1       0.054  -2.845   2.489  0.00  0.00    +0.089 C 
ATOM      2  C   UNL     1       1.305  -3.724   2.558  0.00  0.00    +0.098 C 
ATOM      3  C   UNL     1       1.327  -4.529   3.819  0.00  0.00    +0.164 C 
ATOM      4  O   UNL     1       2.415  -4.740   4.323  0.00  0.00    -0.292 OA
ATOM      5  C   UNL     1       0.232  -5.047   4.456  0.00  0.00    +0.032 C 
ATOM      6  C   UNL     1      -1.073  -4.879   4.038  0.00  0.00    +0.050 C 
ATOM      7  S   UNL     1      -1.405  -3.929   2.586  0.00  0.00    -0.109 S 
ENDROOT
BRANCH   1  13
ATOM      8  C   UNL     1      -0.018   1.503   0.010  0.00  0.00    +0.044 C 
ATOM      9  C   UNL     1       0.002  -0.004   0.002  0.00  0.00    -0.050 A 
ATOM     10  C   UNL     1       0.006  -0.689  -1.199  0.00  0.00    +0.003 A 
ATOM     11  C   UNL     1       0.025  -2.071  -1.207  0.00  0.00    +0.001 A 
ATOM     12  C   UNL     1       0.040  -2.768  -0.013  0.00  0.00    +0.005 A 
ATOM     13  C   UNL     1       0.037  -2.084   1.188  0.00  0.00    -0.033 A 
ATOM     14  C   UNL     1       0.023  -0.702   1.195  0.00  0.00    +0.008 A 
ENDBRANCH   1  13
BRANCH   6  15
ATOM     15  S   UNL     1      -2.397  -5.604   4.946  0.00  0.00    -0.105 S 
BRANCH  15  16
ATOM     16  C   UNL     1      -3.882  -5.113   4.026  0.00  0.00    +0.163 C 
BRANCH  16  17
ATOM     17  C   UNL     1      -5.075  -5.663   4.690  0.00  0.00    -0.094 C 
ATOM     18  C   UNL     1      -6.027  -6.101   5.220  0.00  0.00    +0.004 C 
ENDBRANCH  16  17
ENDBRANCH  15  16
ENDBRANCH   6  15
BRANCH   5  19
ATOM     19  C   UNL     1       0.468  -5.861   5.702  0.00  0.00    +0.095 C 
BRANCH  19  20
ATOM     20  N   UNL     1       1.407  -6.951   5.405  0.00  0.00    -0.323 NA
ATOM     21  H   UNL     1       2.291  -6.588   5.083  0.00  0.00    +0.119 HD
ATOM     22  H   UNL     1       1.531  -7.549   6.208  0.00  0.00    +0.119 HD
ENDBRANCH  19  20
BRANCH  19  23
ATOM     23  C   UNL     1       1.056  -4.963   6.793  0.00  0.00    +0.119 C 
BRANCH  23  24
ATOM     24  C   UNL     1       1.178  -5.745   8.075  0.00  0.00    +0.212 C 
ATOM     25  O   UNL     1       0.828  -6.906   8.113  0.00  0.00    -0.276 OA
ATOM     26  N   UNL     1       1.675  -5.155   9.180  0.00  0.00    -0.329 N 
ATOM     27  H   UNL     1       1.955  -4.227   9.150  0.00  0.00    +0.145 HD
ATOM     28  H   UNL     1       1.754  -5.658  10.005  0.00  0.00    +0.145 HD
ENDBRANCH  23  24
ENDBRANCH  19  23
ENDBRANCH   5  19
TORSDOF 8
