REMARK  Name = ZINC20288965
REMARK  13 active torsions:
REMARK  status: ('A' for Active; 'I' for Inactive)
REMARK    1  A    between atoms: C_1  and  C_2
REMARK    2  A    between atoms: C_2  and  N_3
REMARK    3  A    between atoms: N_3  and  C_4
REMARK    4  A    between atoms: N_3  and  C_6
REMARK    5  A    between atoms: C_4  and  C_5
REMARK    6  A    between atoms: C_6  and  C_7
REMARK    7  A    between atoms: C_7  and  C_8
REMARK    8  A    between atoms: C_8  and  N_9
REMARK    9  A    between atoms: C_10  and  C_30
REMARK   10  A    between atoms: C_12  and  C_17
REMARK   11  A    between atoms: C_17  and  C_19
REMARK   12  A    between atoms: C_26  and  C_29
REMARK   13  A    between atoms: C_33  and  N_36
REMARK                            x       y       z     vdW  Elec       q    Type
REMARK                         _______ _______ _______ _____ _____    ______ ____
ROOT
ATOM      1  N   UNL     1       3.897   1.852   0.027  0.00  0.00    -0.284 N 
ATOM      2  C   UNL     1       3.033   3.038   0.065  0.00  0.00    +0.145 C 
ATOM      3  C   UNL     1       1.612   2.525   0.063  0.00  0.00    +0.076 C 
ATOM      4  C   UNL     1       1.685   1.174   0.026  0.00  0.00    +0.249 C 
ATOM      5  C   UNL     1       3.105   0.765   0.010  0.00  0.00    +0.288 C 
ATOM      6  O   UNL     1       3.499  -0.384  -0.018  0.00  0.00    -0.266 OA
ATOM      7  O   UNL     1       0.626   0.332   0.012  0.00  0.00    -0.282 OA
ENDROOT
BRANCH   2   8
ATOM      8  C   UNL     1       3.296   3.830   1.321  0.00  0.00    -0.022 A 
ATOM      9  C   UNL     1       3.376   3.185   2.541  0.00  0.00    +0.008 A 
ATOM     10  C   UNL     1       3.621   3.911   3.691  0.00  0.00    +0.033 A 
ATOM     11  C   UNL     1       3.777   5.283   3.623  0.00  0.00    +0.126 A 
ATOM     12  C   UNL     1       3.692   5.928   2.404  0.00  0.00    +0.033 A 
ATOM     13  C   UNL     1       3.451   5.202   1.252  0.00  0.00    +0.008 A 
BRANCH  11  14
ATOM     14  N   UNL     1       4.035   6.060   4.856  0.00  0.00    +0.056 N 
ATOM     15  O   UNL     1       4.172   7.269   4.796  0.00  0.00    -0.126 OA
ATOM     16  O   UNL     1       4.110   5.491   5.930  0.00  0.00    -0.126 OA
ENDBRANCH  11  14
ENDBRANCH   2   8
BRANCH   3  17
ATOM     17  C   UNL     1       0.390   3.334   0.094  0.00  0.00    +0.195 C 
ATOM     18  O   UNL     1      -0.406   3.200   1.004  0.00  0.00    -0.287 OA
BRANCH  17  19
ATOM     19  C   UNL     1       0.125   4.313  -0.980  0.00  0.00    +0.023 A 
ATOM     20  C   UNL     1       0.978   4.395  -2.085  0.00  0.00    +0.015 A 
ATOM     21  C   UNL     1       0.729   5.305  -3.084  0.00  0.00    +0.046 A 
ATOM     22  C   UNL     1      -0.369   6.164  -3.001  0.00  0.00    +0.124 A 
ATOM     23  C   UNL     1      -1.215   6.077  -1.899  0.00  0.00    -0.002 A 
ATOM     24  C   UNL     1      -0.978   5.169  -0.897  0.00  0.00    +0.019 A 
ATOM     25  C   UNL     1      -2.309   7.109  -2.097  0.00  0.00    +0.083 C 
ATOM     26  C   UNL     1      -2.157   7.449  -3.598  0.00  0.00    +0.175 C 
ATOM     27  O   UNL     1      -0.779   7.135  -3.859  0.00  0.00    -0.488 OA
ATOM     28  C   UNL     1      -3.082   6.576  -4.448  0.00  0.00    +0.052 C 
ENDBRANCH  17  19
ENDBRANCH   3  17
BRANCH   1  29
ATOM     29  C   UNL     1       5.362   1.853   0.017  0.00  0.00    +0.107 C 
BRANCH  29  30
ATOM     30  C   UNL     1       5.882   1.814   1.455  0.00  0.00    +0.000 C 
BRANCH  30  31
ATOM     31  C   UNL     1       7.412   1.814   1.444  0.00  0.00    -0.077 C 
BRANCH  31  32
ATOM     32  N   UNL     1       7.912   1.776   2.825  0.00  0.00    +0.379 N 
ATOM     33  H   UNL     1       7.420   2.586   3.384  0.00  0.00    -0.082 HD
BRANCH  32  35
ATOM     34  C   UNL     1       8.285  -0.643   2.763  0.00  0.00    -0.017 C 
ATOM     35  C   UNL     1       7.567   0.505   3.475  0.00  0.00    -0.082 C 
ENDBRANCH  32  35
BRANCH  32  36
ATOM     36  C   UNL     1       9.361   2.013   2.867  0.00  0.00    -0.082 C 
ATOM     37  C   UNL     1       9.783   2.340   4.301  0.00  0.00    -0.017 C 
ENDBRANCH  32  36
ENDBRANCH  31  32
ENDBRANCH  30  31
ENDBRANCH  29  30
ENDBRANCH   1  29
TORSDOF 10
