REMARK  Name = ZINC39987413
REMARK  12 active torsions:
REMARK  status: ('A' for Active; 'I' for Inactive)
REMARK    1  A    between atoms: C_1  and  C_2
REMARK    2  A    between atoms: N_9  and  N_10
REMARK    3  A    between atoms: C_11  and  C_13
REMARK    4  A    between atoms: C_13  and  C_15
REMARK    5  A    between atoms: C_13  and  O_16
REMARK    6  A    between atoms: O_16  and  C_17
REMARK    7  A    between atoms: C_20  and  O_23
REMARK    8  A    between atoms: N_26  and  C_27
REMARK    9  A    between atoms: C_27  and  C_28
REMARK   10  A    between atoms: C_28  and  O_29
REMARK   11  A    between atoms: O_29  and  C_30
REMARK   12  A    between atoms: C_35  and  C_36
REMARK                            x       y       z     vdW  Elec       q    Type
REMARK                         _______ _______ _______ _____ _____    ______ ____
ROOT
ATOM      1  C   UNL     1       1.453   1.516   0.156  0.00  0.00    +0.044 C 
ATOM      2  C   UNL     1       1.217   0.028   0.116  0.00  0.00    -0.050 A 
ATOM      3  C   UNL     1       1.170  -0.632  -1.101  0.00  0.00    +0.005 A 
ATOM      4  C   UNL     1       0.955  -1.994  -1.154  0.00  0.00    +0.024 A 
ATOM      5  C   UNL     1       0.781  -2.720   0.020  0.00  0.00    +0.046 A 
ATOM      6  C   UNL     1       0.829  -2.048   1.248  0.00  0.00    +0.029 A 
ATOM      7  C   UNL     1       1.052  -0.676   1.292  0.00  0.00    +0.015 A 
ATOM      8  C   UNL     1       0.613  -3.074   2.295  0.00  0.00    +0.153 C 
ATOM      9  N   UNL     1       0.578  -2.895   3.593  0.00  0.00    -0.174 NA
ATOM     10  C   UNL     1       0.446  -4.342   1.557  0.00  0.00    +0.271 C 
ATOM     11  O   UNL     1       0.246  -5.437   2.049  0.00  0.00    -0.268 OA
ATOM     12  N   UNL     1       0.553  -4.073   0.244  0.00  0.00    -0.262 N 
ENDROOT
BRANCH   9  13
ATOM     13  N   UNL     1       0.362  -3.986   4.445  0.00  0.00    -0.203 N 
ATOM     14  C   UNL     1       0.327  -3.802   5.779  0.00  0.00    +0.273 C 
ATOM     15  O   UNL     1       0.482  -2.693   6.243  0.00  0.00    -0.270 OA
ATOM     16  H   UNL     1       0.238  -4.874   4.074  0.00  0.00    +0.177 HD
BRANCH  14  17
ATOM     17  C   UNL     1       0.094  -4.976   6.696  0.00  0.00    +0.257 C 
ATOM     18  C   UNL     1       1.268  -5.950   6.586  0.00  0.00    +0.062 C 
BRANCH  17  19
ATOM     19  O   UNL     1      -0.017  -4.514   8.043  0.00  0.00    -0.480 OA
BRANCH  19  20
ATOM     20  C   UNL     1      -0.717  -5.295   8.909  0.00  0.00    +0.122 A 
ATOM     21  C   UNL     1      -0.963  -4.852  10.200  0.00  0.00    +0.049 A 
ATOM     22  C   UNL     1      -1.673  -5.646  11.079  0.00  0.00    +0.049 A 
ATOM     23  C   UNL     1      -2.141  -6.886  10.670  0.00  0.00    +0.117 A 
ATOM     24  C   UNL     1      -1.896  -7.329   9.379  0.00  0.00    +0.049 A 
ATOM     25  C   UNL     1      -1.189  -6.533   8.499  0.00  0.00    +0.049 A 
BRANCH  23  26
ATOM     26  O   UNL     1      -2.840  -7.668  11.536  0.00  0.00    -0.507 OA
ATOM     27  H   UNL     1      -3.796  -7.521  11.515  0.00  0.00    +0.292 HD
ENDBRANCH  23  26
ENDBRANCH  19  20
ENDBRANCH  17  19
ENDBRANCH  14  17
ENDBRANCH   9  13
BRANCH  12  28
ATOM     28  C   UNL     1       0.443  -5.078  -0.816  0.00  0.00    +0.155 C 
BRANCH  28  29
ATOM     29  C   UNL     1       1.828  -5.656  -1.116  0.00  0.00    +0.248 C 
BRANCH  29  30
ATOM     30  O   UNL     1       2.306  -6.365   0.029  0.00  0.00    -0.490 OA
BRANCH  30  31
ATOM     31  C   UNL     1       3.532  -6.944  -0.071  0.00  0.00    +0.123 A 
ATOM     32  C   UNL     1       4.261  -6.827  -1.245  0.00  0.00    +0.046 A 
ATOM     33  C   UNL     1       5.507  -7.415  -1.345  0.00  0.00    +0.004 A 
ATOM     34  C   UNL     1       6.027  -8.121  -0.275  0.00  0.00    +0.000 A 
ATOM     35  C   UNL     1       5.301  -8.239   0.896  0.00  0.00    +0.007 A 
ATOM     36  C   UNL     1       4.058  -7.647   1.002  0.00  0.00    -0.009 A 
ATOM     37  C   UNL     1       3.270  -7.771   2.281  0.00  0.00    +0.047 C 
ENDBRANCH  30  31
ENDBRANCH  29  30
ENDBRANCH  28  29
ENDBRANCH  12  28
TORSDOF 9
