REMARK  Name = ZINC13600817
REMARK  6 active torsions:
REMARK  status: ('A' for Active; 'I' for Inactive)
REMARK    1  A    between atoms: C_1  and  C_2
REMARK    2  A    between atoms: C_2  and  N_3
REMARK    3  A    between atoms: N_6  and  C_7
REMARK    4  A    between atoms: C_7  and  C_8
REMARK    5  A    between atoms: C_12  and  C_14
REMARK    6  A    between atoms: C_17  and  N_19
REMARK                            x       y       z     vdW  Elec       q    Type
REMARK                         _______ _______ _______ _____ _____    ______ ____
ROOT
ATOM      1  C   UNL     1      -8.301   1.925   0.218  0.00  0.00    +0.059 A 
ATOM      2  C   UNL     1      -8.447   3.289   0.045  0.00  0.00    +0.025 A 
ATOM      3  C   UNL     1      -7.316   4.084  -0.084  0.00  0.00    +0.004 A 
ATOM      4  C   UNL     1      -6.074   3.479  -0.034  0.00  0.00    +0.030 A 
ATOM      5  C   UNL     1      -5.999   2.098   0.143  0.00  0.00    +0.090 A 
ATOM      6  N   UNL     1      -7.106   1.372   0.257  0.00  0.00    -0.248 NA
ENDROOT
BRANCH   5   7
ATOM      7  C   UNL     1      -4.676   1.434   0.199  0.00  0.00    +0.099 A 
ATOM      8  C   UNL     1      -4.590   0.080   0.372  0.00  0.00    +0.078 A 
ATOM      9  S   UNL     1      -2.817  -0.148   0.355  0.00  0.00    -0.056 S 
ATOM     10  C   UNL     1      -2.373   1.569   0.130  0.00  0.00    +0.196 A 
ATOM     11  N   UNL     1      -3.565   2.147   0.082  0.00  0.00    -0.220 NA
BRANCH  10  12
ATOM     12  N   UNL     1      -1.139   2.132   0.030  0.00  0.00    -0.189 NA
ATOM     13  C   UNL     1      -0.064   1.400   0.226  0.00  0.00    +0.195 C 
ATOM     14  N   UNL     1      -0.184   0.113   0.681  0.00  0.00    -0.370 N 
ATOM     15  N   UNL     1       1.177   1.922  -0.031  0.00  0.00    -0.370 N 
ATOM     16  H   UNL     1      -0.904  -0.121   1.288  0.00  0.00    +0.159 HD
ATOM     17  H   UNL     1       0.450  -0.564   0.397  0.00  0.00    +0.159 HD
ATOM     18  H   UNL     1       1.970   1.381   0.109  0.00  0.00    +0.159 HD
ATOM     19  H   UNL     1       1.263   2.833  -0.354  0.00  0.00    +0.159 HD
ENDBRANCH  10  12
ENDBRANCH   5   7
BRANCH   1  20
ATOM     20  C   UNL     1      -9.526   1.058   0.358  0.00  0.00    +0.161 C 
BRANCH  20  24
ATOM     21  N   UNL     1     -11.284  -0.817  -2.271  0.00  0.00    -0.300 N 
ATOM     22  C   UNL     1     -10.954  -0.307  -1.068  0.00  0.00    +0.300 C 
ATOM     23  O   UNL     1     -11.622  -0.578  -0.089  0.00  0.00    -0.253 OA
ATOM     24  N   UNL     1      -9.884   0.504  -0.950  0.00  0.00    -0.294 N 
ATOM     25  H   UNL     1     -10.751  -0.601  -3.052  0.00  0.00    +0.150 HD
ATOM     26  H   UNL     1      -9.351   0.720  -1.731  0.00  0.00    +0.151 HD
BRANCH  21  28
ATOM     27  C   UNL     1     -12.598  -2.135  -3.858  0.00  0.00    +0.024 C 
ATOM     28  C   UNL     1     -12.447  -1.699  -2.399  0.00  0.00    +0.102 C 
ENDBRANCH  21  28
ENDBRANCH  20  24
ENDBRANCH   1  20
TORSDOF 5
