REMARK  Name = ZINC12904071
REMARK  7 active torsions:
REMARK  status: ('A' for Active; 'I' for Inactive)
REMARK    1  A    between atoms: C_3  and  S_21
REMARK    2  A    between atoms: C_6  and  C_7
REMARK    3  A    between atoms: C_7  and  C_8
REMARK    4  A    between atoms: C_8  and  C_9
REMARK    5  A    between atoms: N_11  and  C_12
REMARK    6  A    between atoms: C_15  and  C_18
REMARK    7  A    between atoms: S_21  and  N_24
REMARK                            x       y       z     vdW  Elec       q    Type
REMARK                         _______ _______ _______ _____ _____    ______ ____
ROOT
ATOM      1  C   UNL     1       1.655  -4.625  -1.266  0.00  0.00    +0.044 C 
ENDROOT
BRANCH   1   7
ATOM      2  C   UNL     1      -0.529  -4.003  -0.213  0.00  0.00    +0.005 A 
ATOM      3  C   UNL     1      -1.648  -3.197  -0.125  0.00  0.00    +0.029 A 
ATOM      4  C   UNL     1      -1.804  -2.134  -0.994  0.00  0.00    +0.105 A 
ATOM      5  C   UNL     1      -0.844  -1.881  -1.956  0.00  0.00    +0.029 A 
ATOM      6  C   UNL     1       0.277  -2.684  -2.041  0.00  0.00    +0.005 A 
ATOM      7  C   UNL     1       0.434  -3.747  -1.171  0.00  0.00    -0.047 A 
BRANCH   4   8
ATOM      8  S   UNL     1      -3.231  -1.106  -0.882  0.00  0.00    +0.061 S 
ATOM      9  O   UNL     1      -4.244  -1.884  -0.260  0.00  0.00    -0.153 OA
ATOM     10  O   UNL     1      -3.405  -0.511  -2.161  0.00  0.00    -0.153 OA
BRANCH   8  11
ATOM     11  N   UNL     1      -2.868   0.124   0.166  0.00  0.00    -0.177 NA
ATOM     12  C   UNL     1      -2.291   1.346  -0.316  0.00  0.00    +0.109 C 
ATOM     13  C   UNL     1      -0.745   1.382  -0.401  0.00  0.00    +0.017 C 
ATOM     14  C   UNL     1      -0.126   0.707   0.848  0.00  0.00    +0.001 C 
ATOM     15  C   UNL     1      -0.911   1.048   2.082  0.00  0.00    +0.001 C 
ATOM     16  C   UNL     1      -1.843  -0.137   2.311  0.00  0.00    +0.017 C 
ATOM     17  C   UNL     1      -3.135  -0.023   1.637  0.00  0.00    +0.109 C 
ENDBRANCH   8  11
ENDBRANCH   4   8
ENDBRANCH   1   7
BRANCH   1  18
ATOM     18  C   UNL     1       1.375  -5.784  -2.225  0.00  0.00    +0.101 C 
BRANCH  18  19
ATOM     19  C   UNL     1       2.596  -6.663  -2.321  0.00  0.00    +0.218 C 
ATOM     20  O   UNL     1       3.591  -6.389  -1.684  0.00  0.00    -0.275 OA
ATOM     21  N   UNL     1       2.581  -7.753  -3.113  0.00  0.00    -0.285 N 
ATOM     22  H   UNL     1       1.762  -8.015  -3.562  0.00  0.00    +0.155 HD
BRANCH  21  23
ATOM     23  C   UNL     1       3.743  -8.504  -3.287  0.00  0.00    +0.033 A 
ATOM     24  C   UNL     1       4.983  -7.873  -3.291  0.00  0.00    +0.024 A 
ATOM     25  C   UNL     1       6.133  -8.612  -3.458  0.00  0.00    +0.015 A 
ATOM     26  C   UNL     1       6.053  -9.995  -3.635  0.00  0.00    +0.037 A 
ATOM     27  C   UNL     1       4.805 -10.625  -3.636  0.00  0.00    +0.015 A 
ATOM     28  C   UNL     1       3.660  -9.881  -3.463  0.00  0.00    +0.024 A 
BRANCH  26  29
ATOM     29  C   UNL     1       7.283 -10.790  -3.820  0.00  0.00    +0.242 C 
ATOM     30  O   UNL     1       7.211 -11.994  -3.973  0.00  0.00    -0.270 OA
ATOM     31  N   UNL     1       8.485 -10.181  -3.818  0.00  0.00    -0.325 N 
ATOM     32  H   UNL     1       8.542  -9.220  -3.696  0.00  0.00    +0.145 HD
ATOM     33  H   UNL     1       9.293 -10.703  -3.939  0.00  0.00    +0.145 HD
ENDBRANCH  26  29
ENDBRANCH  21  23
ENDBRANCH  18  19
ENDBRANCH   1  18
TORSDOF 7
