REMARK  Name = ZINC08695685
REMARK  15 active torsions:
REMARK  status: ('A' for Active; 'I' for Inactive)
REMARK    1  A    between atoms: C_1  and  C_2
REMARK    2  A    between atoms: C_4  and  C_46
REMARK    3  A    between atoms: C_6  and  S_8
REMARK    4  A    between atoms: S_8  and  C_9
REMARK    5  A    between atoms: C_9  and  C_10
REMARK    6  A    between atoms: N_12  and  C_13
REMARK    7  A    between atoms: N_12  and  C_25
REMARK    8  A    between atoms: C_13  and  C_14
REMARK    9  A    between atoms: C_16  and  C_19
REMARK   10  A    between atoms: C_25  and  C_27
REMARK   11  A    between atoms: C_25  and  C_34
REMARK   12  A    between atoms: N_36  and  C_37
REMARK   13  A    between atoms: C_40  and  N_43
REMARK   14  A    between atoms: N_43  and  C_44
REMARK   15  A    between atoms: N_43  and  C_45
REMARK                            x       y       z     vdW  Elec       q    Type
REMARK                         _______ _______ _______ _____ _____    ______ ____
ROOT
ATOM      1  C   UNL     1      -0.363   1.135  -0.219  0.00  0.00    +0.227 C 
ATOM      2  O   UNL     1       0.281   1.865  -0.942  0.00  0.00    -0.275 OA
ATOM      3  N   UNL     1       0.021  -0.145  -0.040  0.00  0.00    -0.283 N 
ENDROOT
BRANCH   1   4
ATOM      4  C   UNL     1      -1.595   1.656   0.475  0.00  0.00    +0.173 C 
BRANCH   4   5
ATOM      5  S   UNL     1      -1.646   3.460   0.338  0.00  0.00    -0.077 S 
BRANCH   5  11
ATOM      6  C   UNL     1      -5.735   1.838   2.954  0.00  0.00    +0.066 C 
ATOM      7  C   UNL     1      -4.957   2.994   2.377  0.00  0.00    +0.043 A 
ATOM      8  C   UNL     1      -5.415   4.293   2.531  0.00  0.00    +0.046 A 
ATOM      9  C   UNL     1      -4.670   5.327   1.986  0.00  0.00    +0.043 A 
ATOM     10  N   UNL     1      -3.551   5.045   1.338  0.00  0.00    -0.227 NA
ATOM     11  C   UNL     1      -3.142   3.791   1.208  0.00  0.00    +0.189 A 
ATOM     12  N   UNL     1      -3.834   2.779   1.714  0.00  0.00    -0.227 NA
ATOM     13  C   UNL     1      -5.128   6.755   2.129  0.00  0.00    +0.066 C 
ENDBRANCH   5  11
ENDBRANCH   4   5
ENDBRANCH   1   4
BRANCH   3  14
ATOM     14  C   UNL     1       1.143  -0.688  -0.809  0.00  0.00    +0.171 C 
BRANCH  14  15
ATOM     15  C   UNL     1       2.427  -0.462  -0.052  0.00  0.00    +0.096 A 
ATOM     16  N   UNL     1       3.006  -1.238   0.831  0.00  0.00    -0.242 NA
ATOM     17  C   UNL     1       4.146  -0.895   1.410  0.00  0.00    +0.078 A 
ATOM     18  C   UNL     1       4.702   0.308   1.067  0.00  0.00    +0.075 A 
ATOM     19  S   UNL     1       3.506   0.896  -0.123  0.00  0.00    -0.078 S 
BRANCH  17  20
ATOM     20  C   UNL     1       4.798  -1.784   2.403  0.00  0.00    +0.001 A 
ATOM     21  C   UNL     1       4.269  -3.046   2.665  0.00  0.00    +0.010 A 
ATOM     22  C   UNL     1       4.883  -3.871   3.586  0.00  0.00    +0.001 A 
ATOM     23  C   UNL     1       6.014  -3.442   4.257  0.00  0.00    +0.000 A 
ATOM     24  C   UNL     1       6.540  -2.188   4.005  0.00  0.00    +0.001 A 
ATOM     25  C   UNL     1       5.938  -1.357   3.082  0.00  0.00    +0.010 A 
ENDBRANCH  17  20
ENDBRANCH  14  15
ENDBRANCH   3  14
BRANCH   3  26
ATOM     26  C   UNL     1      -0.685  -0.993   0.924  0.00  0.00    +0.166 C 
BRANCH  26  27
ATOM     27  C   UNL     1      -2.152  -1.123   0.511  0.00  0.00    +0.023 C 
ATOM     28  C   UNL     1      -2.849  -2.159   1.401  0.00  0.00    +0.010 C 
ATOM     29  C   UNL     1      -4.346  -2.143   1.084  0.00  0.00    +0.027 C 
ATOM     30  C   UNL     1      -4.564  -2.221  -0.399  0.00  0.00    -0.031 C 
ATOM     31  C   UNL     1      -3.648  -1.977  -1.280  0.00  0.00    -0.031 C 
ATOM     32  C   UNL     1      -2.238  -1.592  -0.943  0.00  0.00    +0.032 C 
ENDBRANCH  26  27
BRANCH  26  33
ATOM     33  C   UNL     1      -0.603  -0.372   2.295  0.00  0.00    +0.238 C 
ATOM     34  O   UNL     1      -1.236  -0.846   3.214  0.00  0.00    -0.273 OA
ATOM     35  N   UNL     1       0.175   0.710   2.499  0.00  0.00    -0.284 N 
ATOM     36  H   UNL     1       0.638   1.122   1.752  0.00  0.00    +0.155 HD
BRANCH  35  37
ATOM     37  C   UNL     1       0.315   1.239   3.789  0.00  0.00    +0.034 A 
ATOM     38  C   UNL     1       1.527   1.790   4.185  0.00  0.00    +0.025 A 
ATOM     39  C   UNL     1       1.663   2.316   5.454  0.00  0.00    +0.025 A 
ATOM     40  C   UNL     1       0.592   2.285   6.338  0.00  0.00    +0.029 A 
ATOM     41  C   UNL     1      -0.618   1.729   5.943  0.00  0.00    +0.025 A 
ATOM     42  C   UNL     1      -0.755   1.207   4.672  0.00  0.00    +0.025 A 
BRANCH  40  43
ATOM     43  N   UNL     1       0.732   2.814   7.626  0.00  0.00    -0.336 N 
ATOM     44  C   UNL     1      -0.398   2.781   8.557  0.00  0.00    +0.129 C 
ATOM     45  C   UNL     1       2.008   3.400   8.042  0.00  0.00    +0.129 C 
ENDBRANCH  40  43
ENDBRANCH  35  37
ENDBRANCH  26  33
ENDBRANCH   3  26
TORSDOF 11
