REMARK  Name = ZINC30961950
REMARK  10 active torsions:
REMARK  status: ('A' for Active; 'I' for Inactive)
REMARK    1  A    between atoms: C_1  and  C_2
REMARK    2  A    between atoms: C_2  and  C_3
REMARK    3  A    between atoms: C_2  and  C_4
REMARK    4  A    between atoms: C_4  and  C_6
REMARK    5  A    between atoms: C_4  and  N_24
REMARK    6  A    between atoms: N_8  and  N_9
REMARK    7  A    between atoms: C_10  and  C_11
REMARK    8  A    between atoms: N_13  and  C_20
REMARK    9  A    between atoms: C_20  and  C_21
REMARK   10  A    between atoms: C_25  and  C_27
REMARK                            x       y       z     vdW  Elec       q    Type
REMARK                         _______ _______ _______ _____ _____    ______ ____
ROOT
ATOM      1  C   UNL     1      -0.070   6.949   0.282  0.00  0.00    +0.253 C 
ATOM      2  O   UNL     1      -0.351   8.126   0.368  0.00  0.00    -0.272 OA
ATOM      3  N   UNL     1      -1.038   6.040   0.049  0.00  0.00    -0.205 N 
ATOM      4  H   UNL     1      -0.774   4.984  -0.111  0.00  0.00    +0.177 HD
ENDROOT
BRANCH   3   5
ATOM      5  N   UNL     1      -2.380   6.440   0.010  0.00  0.00    -0.188 NA
ATOM      6  C   UNL     1      -3.320   5.550  -0.092  0.00  0.00    +0.140 C 
BRANCH   6   7
ATOM      7  C   UNL     1      -3.068   4.161   0.325  0.00  0.00    +0.020 A 
ATOM      8  C   UNL     1      -1.997   3.706   1.030  0.00  0.00    +0.096 A 
ATOM      9  N   UNL     1      -2.115   2.363   1.228  0.00  0.00    -0.337 N 
ATOM     10  C   UNL     1      -3.283   1.897   0.662  0.00  0.00    +0.050 A 
ATOM     11  C   UNL     1      -3.933   2.995   0.074  0.00  0.00    +0.009 A 
ATOM     12  C   UNL     1      -5.154   2.819  -0.572  0.00  0.00    +0.010 A 
ATOM     13  C   UNL     1      -5.717   1.563  -0.637  0.00  0.00    +0.001 A 
ATOM     14  C   UNL     1      -5.073   0.477  -0.061  0.00  0.00    +0.002 A 
ATOM     15  C   UNL     1      -3.865   0.636   0.582  0.00  0.00    +0.026 A 
BRANCH   9  16
ATOM     16  C   UNL     1      -1.140   1.532   1.940  0.00  0.00    +0.217 C 
BRANCH  16  17
ATOM     17  C   UNL     1      -0.192   0.909   0.948  0.00  0.00    +0.230 C 
ATOM     18  O   UNL     1      -0.318   1.137  -0.236  0.00  0.00    -0.274 OA
ATOM     19  N   UNL     1       0.796   0.100   1.378  0.00  0.00    -0.328 N 
ATOM     20  H   UNL     1       1.488  -0.355   0.654  0.00  0.00    +0.145 HD
ATOM     21  H   UNL     1       0.910  -0.106   2.453  0.00  0.00    +0.145 HD
ENDBRANCH  16  17
ENDBRANCH   9  16
ENDBRANCH   6   7
ENDBRANCH   3   5
BRANCH   1  22
ATOM     22  C   UNL     1       1.361   6.503   0.436  0.00  0.00    +0.163 C 
BRANCH  22  23
ATOM     23  N   UNL     1       2.182   7.636   0.868  0.00  0.00    -0.300 N 
ATOM     24  C   UNL     1       3.329   7.420   1.542  0.00  0.00    +0.245 C 
ATOM     25  O   UNL     1       3.682   6.283   1.792  0.00  0.00    -0.270 OA
ATOM     26  H   UNL     1       1.863   8.664   0.642  0.00  0.00    +0.150 HD
BRANCH  24  27
ATOM     27  C   UNL     1       4.157   8.563   1.978  0.00  0.00    +0.038 A 
ATOM     28  C   UNL     1       3.757   9.869   1.688  0.00  0.00    +0.014 A 
ATOM     29  C   UNL     1       4.531  10.933   2.101  0.00  0.00    +0.022 A 
ATOM     30  C   UNL     1       5.710  10.708   2.793  0.00  0.00    +0.059 A 
ATOM     31  C   UNL     1       6.115   9.414   3.080  0.00  0.00    +0.060 A 
ATOM     32  C   UNL     1       5.346   8.342   2.676  0.00  0.00    +0.034 A 
ATOM     33 CL   UNL     1       7.593   9.142   3.949  0.00  0.00    -0.082 Cl
ATOM     34 CL   UNL     1       6.682  12.052   3.304  0.00  0.00    -0.082 Cl
ENDBRANCH  24  27
ENDBRANCH  22  23
BRANCH  22  36
ATOM     35  C   UNL     1       1.839   7.105  -1.942  0.00  0.00    +0.009 C 
ATOM     36  C   UNL     1       1.879   5.979  -0.905  0.00  0.00    +0.012 C 
ATOM     37  C   UNL     1       3.319   5.490  -0.740  0.00  0.00    +0.009 C 
ENDBRANCH  22  36
ENDBRANCH   1  22
TORSDOF 8
