REMARK  Name = ZINC51096398
REMARK  4 active torsions:
REMARK  status: ('A' for Active; 'I' for Inactive)
REMARK    1  A    between atoms: C_5  and  N_7
REMARK    2  A    between atoms: C_8  and  C_10
REMARK    3  A    between atoms: C_12  and  N_17
REMARK    4  A    between atoms: N_17  and  N_18
REMARK                            x       y       z     vdW  Elec       q    Type
REMARK                         _______ _______ _______ _____ _____    ______ ____
ROOT
ATOM      1  C   UNL     1       0.119  -4.250   0.190  0.00  0.00    +0.043 A 
ATOM      2  C   UNL     1      -1.062  -4.986   0.298  0.00  0.00    +0.057 A 
ATOM      3  C   UNL     1      -0.986  -6.371   0.392  0.00  0.00    +0.134 A 
ATOM      4  N   UNL     1       0.186  -6.986   0.380  0.00  0.00    -0.220 NA
ATOM      5  C   UNL     1       1.322  -6.322   0.279  0.00  0.00    +0.132 A 
ATOM      6  C   UNL     1       1.333  -4.944   0.175  0.00  0.00    +0.053 A 
ATOM      7 CL   UNL     1       2.824  -7.193   0.269  0.00  0.00    -0.062 Cl
ENDROOT
BRANCH   1   9
ATOM      8  N   UNL     1       1.237  -2.079  -0.022  0.00  0.00    -0.281 N 
ATOM      9  C   UNL     1       0.086  -2.772   0.087  0.00  0.00    +0.248 C 
ATOM     10  O   UNL     1      -0.977  -2.185   0.102  0.00  0.00    -0.270 OA
ATOM     11  H   UNL     1       2.082  -2.550  -0.100  0.00  0.00    +0.155 HD
BRANCH   8  16
ATOM     12  C   UNL     1       0.135   1.378  -0.615  0.00  0.00    +0.002 A 
ATOM     13  C   UNL     1       1.168   2.087  -0.029  0.00  0.00    +0.001 A 
ATOM     14  C   UNL     1       2.224   1.416   0.560  0.00  0.00    +0.017 A 
ATOM     15  C   UNL     1       2.250   0.034   0.564  0.00  0.00    +0.039 A 
ATOM     16  C   UNL     1       1.214  -0.681  -0.024  0.00  0.00    +0.048 A 
ATOM     17  C   UNL     1       0.155  -0.003  -0.614  0.00  0.00    +0.024 A 
ATOM     18 BR   UNL     1       3.695  -0.883   1.369  0.00  0.00    -0.048 Br
ENDBRANCH   8  16
ENDBRANCH   1   9
BRANCH   3  19
ATOM     19  N   UNL     1      -2.153  -7.118   0.500  0.00  0.00    -0.267 N 
ATOM     20  H   UNL     1      -3.015  -6.673   0.510  0.00  0.00    +0.167 HD
BRANCH  19  21
ATOM     21  N   UNL     1      -2.087  -8.479   0.593  0.00  0.00    -0.255 NA
ATOM     22  H   UNL     1      -1.507  -8.761   1.369  0.00  0.00    +0.140 HD
ATOM     23  H   UNL     1      -3.009  -8.882   0.665  0.00  0.00    +0.140 HD
ENDBRANCH  19  21
ENDBRANCH   3  19
TORSDOF 4
