REMARK  Name = ZINC15084917
REMARK  7 active torsions:
REMARK  status: ('A' for Active; 'I' for Inactive)
REMARK    1  A    between atoms: C_1  and  C_2
REMARK    2  A    between atoms: C_14  and  C_16
REMARK    3  A    between atoms: C_17  and  C_24
REMARK    4  A    between atoms: C_27  and  O_32
REMARK    5  A    between atoms: C_28  and  O_30
REMARK    6  A    between atoms: O_30  and  C_31
REMARK    7  A    between atoms: O_32  and  C_33
REMARK                            x       y       z     vdW  Elec       q    Type
REMARK                         _______ _______ _______ _____ _____    ______ ____
ROOT
ATOM      1  C   UNL     1      -0.018   1.503   0.010  0.00  0.00    +0.044 C 
ATOM      2  C   UNL     1       0.002  -0.004   0.002  0.00  0.00    -0.049 A 
ATOM      3  C   UNL     1       0.006  -0.698  -1.200  0.00  0.00    +0.005 A 
ATOM      4  C   UNL     1       0.024  -2.068  -1.235  0.00  0.00    +0.029 A 
ATOM      5  C   UNL     1       0.041  -2.822  -0.039  0.00  0.00    +0.081 A 
ATOM      6  C   UNL     1       0.037  -2.081   1.166  0.00  0.00    +0.041 A 
ATOM      7  C   UNL     1       0.023  -0.709   1.191  0.00  0.00    +0.020 A 
ATOM      8  S   UNL     1       0.061  -3.362   2.397  0.00  0.00    -0.048 S 
ATOM      9  C   UNL     1       0.074  -4.752   1.274  0.00  0.00    +0.196 A 
ATOM     10  N   UNL     1       0.060  -4.165   0.101  0.00  0.00    -0.221 NA
ATOM     11  N   UNL     1       0.095  -6.111   1.568  0.00  0.00    -0.193 N 
ATOM     12  C   UNL     1       0.110  -7.138   0.647  0.00  0.00    +0.136 A 
ATOM     13  C   UNL     1       0.130  -8.293   1.346  0.00  0.00    +0.033 A 
ATOM     14  C   UNL     1       0.126  -7.967   2.720  0.00  0.00    +0.067 A 
ATOM     15  N   UNL     1       0.111  -6.671   2.845  0.00  0.00    -0.168 NA
ATOM     16  C   UNL     1       0.142  -8.957   3.856  0.00  0.00    +0.068 C 
ATOM     17  C   UNL     1       0.155  -9.711   0.868  0.00  0.00    +0.112 C 
ATOM     18  S   UNL     1       1.080  -9.931  -0.654  0.00  0.00    -0.138 S 
ATOM     19  C   UNL     1       0.141  -9.083  -1.932  0.00  0.00    +0.166 C 
ATOM     20  C   UNL     1       0.151  -7.613  -1.775  0.00  0.00    +0.228 C 
ATOM     21  O   UNL     1       0.221  -6.989  -2.813  0.00  0.00    -0.275 OA
ATOM     22  N   UNL     1       0.098  -6.883  -0.702  0.00  0.00    -0.269 N 
ATOM     23  H   UNL     1       0.033  -5.935  -0.900  0.00  0.00    +0.156 HD
ENDROOT
BRANCH  17  24
ATOM     24  C   UNL     1       0.778 -10.571   1.938  0.00  0.00    -0.026 A 
ATOM     25  C   UNL     1       2.070 -10.320   2.359  0.00  0.00    +0.009 A 
ATOM     26  C   UNL     1       2.646 -11.107   3.339  0.00  0.00    +0.050 A 
ATOM     27  C   UNL     1       1.927 -12.149   3.903  0.00  0.00    +0.162 A 
ATOM     28  C   UNL     1       0.626 -12.401   3.479  0.00  0.00    +0.162 A 
ATOM     29  C   UNL     1       0.053 -11.606   2.499  0.00  0.00    +0.054 A 
BRANCH  28  30
ATOM     30  O   UNL     1      -0.084 -13.422   4.029  0.00  0.00    -0.491 OA
ATOM     31  C   UNL     1      -1.414 -13.622   3.545  0.00  0.00    +0.277 C 
ENDBRANCH  28  30
BRANCH  27  32
ATOM     32  O   UNL     1       2.492 -12.923   4.867  0.00  0.00    -0.491 OA
ATOM     33  C   UNL     1       3.831 -12.606   5.252  0.00  0.00    +0.277 C 
ENDBRANCH  27  32
ENDBRANCH  17  24
TORSDOF 3
