REMARK  Name = ZINC39661249
REMARK  6 active torsions:
REMARK  status: ('A' for Active; 'I' for Inactive)
REMARK    1  A    between atoms: C_1  and  C_2
REMARK    2  A    between atoms: C_2  and  C_3
REMARK    3  A    between atoms: C_3  and  C_5
REMARK    4  A    between atoms: C_3  and  C_11
REMARK    5  A    between atoms: C_15  and  C_24
REMARK    6  A    between atoms: N_26  and  C_27
REMARK                            x       y       z     vdW  Elec       q    Type
REMARK                         _______ _______ _______ _____ _____    ______ ____
ROOT
ATOM      1  C   UNL     1       1.925  -0.001  -1.266  0.00  0.00    +0.223 C 
ATOM      2  O   UNL     1       2.809  -0.797  -1.501  0.00  0.00    -0.275 OA
ATOM      3  N   UNL     1       2.218   1.306  -1.114  0.00  0.00    -0.300 N 
ATOM      4  C   UNL     1       1.275   2.431  -0.913  0.00  0.00    +0.121 C 
ATOM      5  C   UNL     1       1.972   3.344   0.121  0.00  0.00    +0.100 C 
ATOM      6  C   UNL     1       3.469   3.020  -0.014  0.00  0.00    -0.004 C 
ATOM      7  C   UNL     1       3.558   1.941  -1.103  0.00  0.00    +0.115 C 
ATOM      8  C   UNL     1       4.013   2.477   1.304  0.00  0.00    -0.010 C 
ATOM      9  C   UNL     1       5.515   2.215   1.161  0.00  0.00    -0.082 C 
ATOM     10  N   UNL     1       6.199   3.464   0.804  0.00  0.00    +0.379 N 
ATOM     11  C   UNL     1       5.736   3.931  -0.509  0.00  0.00    -0.082 C 
ATOM     12  C   UNL     1       4.243   4.264  -0.437  0.00  0.00    -0.010 C 
ATOM     13  H   UNL     1       5.998   4.167   1.499  0.00  0.00    -0.086 HD
ATOM     14  H   UNL     1       7.194   3.303   0.770  0.00  0.00    -0.086 HD
ENDROOT
BRANCH   5  15
ATOM     15  C   UNL     1       1.715   4.794  -0.201  0.00  0.00    +0.219 C 
ATOM     16  O   UNL     1       1.507   5.132  -1.347  0.00  0.00    -0.275 OA
ATOM     17  N   UNL     1       1.717   5.714   0.783  0.00  0.00    -0.304 N 
ATOM     18  H   UNL     1       1.883   5.443   1.700  0.00  0.00    +0.149 HD
BRANCH  17  19
ATOM     19  C   UNL     1       1.467   7.123   0.470  0.00  0.00    +0.151 C 
ATOM     20  C   UNL     1       2.153   7.996   1.522  0.00  0.00    +0.042 C 
ATOM     21  C   UNL     1       1.436   9.367   1.537  0.00  0.00    +0.079 C 
ATOM     22  S   UNL     1      -0.267   8.901   1.039  0.00  0.00    -0.086 S 
ATOM     23  C   UNL     1      -0.024   7.360   0.425  0.00  0.00    +0.209 C 
ATOM     24  O   UNL     1      -0.874   6.592   0.025  0.00  0.00    -0.283 OA
ENDBRANCH  17  19
ENDBRANCH   5  15
BRANCH   1  25
ATOM     25  C   UNL     1       0.499  -0.472  -1.144  0.00  0.00    +0.105 C 
BRANCH  25  26
ATOM     26  C   UNL     1      -0.141  -0.495  -2.509  0.00  0.00    -0.036 A 
ATOM     27  C   UNL     1       0.387  -1.295  -3.505  0.00  0.00    +0.004 A 
ATOM     28  C   UNL     1      -0.200  -1.316  -4.757  0.00  0.00    +0.000 A 
ATOM     29  C   UNL     1      -1.314  -0.538  -5.011  0.00  0.00    +0.000 A 
ATOM     30  C   UNL     1      -1.842   0.261  -4.014  0.00  0.00    +0.000 A 
ATOM     31  C   UNL     1      -1.258   0.279  -2.762  0.00  0.00    +0.004 A 
ENDBRANCH  25  26
BRANCH  25  33
ATOM     32  C   UNL     1       0.995  -1.831   0.893  0.00  0.00    +0.005 C 
ATOM     33  C   UNL     1       0.476  -1.880  -0.546  0.00  0.00    +0.014 C 
ENDBRANCH  25  33
ENDBRANCH   1  25
TORSDOF 5
