REMARK  Name = ZINC41547152
REMARK  7 active torsions:
REMARK  status: ('A' for Active; 'I' for Inactive)
REMARK    1  A    between atoms: C_1  and  C_2
REMARK    2  A    between atoms: C_2  and  C_3
REMARK    3  A    between atoms: C_5  and  C_24
REMARK    4  A    between atoms: C_6  and  N_8
REMARK    5  A    between atoms: C_9  and  C_11
REMARK    6  A    between atoms: C_11  and  C_23
REMARK    7  A    between atoms: C_17  and  C_22
REMARK                            x       y       z     vdW  Elec       q    Type
REMARK                         _______ _______ _______ _____ _____    ______ ____
ROOT
ATOM      1  N   UNL     1      -5.015  -1.860   1.204  0.00  0.00    -0.276 N 
ATOM      2  C   UNL     1      -5.139  -1.911   2.545  0.00  0.00    +0.270 C 
ATOM      3  O   UNL     1      -4.215  -1.572   3.253  0.00  0.00    -0.271 OA
ATOM      4  H   UNL     1      -5.754  -2.131   0.638  0.00  0.00    +0.155 HD
ENDROOT
BRANCH   2   5
ATOM      5  C   UNL     1      -6.427  -2.389   3.165  0.00  0.00    +0.258 C 
ATOM      6  C   UNL     1      -6.563  -1.808   4.550  0.00  0.00    +0.270 C 
ATOM      7  O   UNL     1      -6.165  -2.429   5.513  0.00  0.00    -0.271 OA
ATOM      8  N   UNL     1      -7.130  -0.595   4.714  0.00  0.00    -0.279 N 
ATOM      9  C   UNL     1      -7.697   0.051   3.607  0.00  0.00    +0.076 A 
ATOM     10  C   UNL     1      -8.081   1.380   3.686  0.00  0.00    +0.030 A 
ATOM     11  C   UNL     1      -8.627   2.006   2.581  0.00  0.00    -0.048 A 
ATOM     12  C   UNL     1      -8.791   1.309   1.397  0.00  0.00    +0.007 A 
ATOM     13  C   UNL     1      -8.415  -0.019   1.313  0.00  0.00    +0.048 A 
ATOM     14  C   UNL     1      -7.873  -0.654   2.418  0.00  0.00    +0.144 A 
ATOM     15  O   UNL     1      -7.528  -1.969   2.357  0.00  0.00    -0.465 OA
ATOM     16  C   UNL     1      -9.045   3.451   2.666  0.00  0.00    +0.044 C 
ATOM     17  C   UNL     1      -6.414  -3.916   3.253  0.00  0.00    +0.076 C 
ATOM     18  H   UNL     1      -7.145  -0.174   5.588  0.00  0.00    +0.155 HD
ENDBRANCH   2   5
BRANCH   1  22
ATOM     19  C   UNL     1      -1.412  -0.526   0.013  0.00  0.00    -0.008 A 
ATOM     20  C   UNL     1      -2.203  -0.814  -1.037  0.00  0.00    +0.026 A 
ATOM     21  C   UNL     1      -3.524  -1.303  -0.714  0.00  0.00    +0.065 A 
ATOM     22  C   UNL     1      -3.830  -1.421   0.634  0.00  0.00    +0.084 A 
ATOM     23  S   UNL     1      -2.434  -0.916   1.416  0.00  0.00    -0.078 S 
BRANCH  21  24
ATOM     24  C   UNL     1      -4.492  -1.656  -1.758  0.00  0.00    +0.244 C 
ATOM     25  O   UNL     1      -5.596  -2.065  -1.450  0.00  0.00    -0.270 OA
ATOM     26  N   UNL     1      -4.158  -1.528  -3.057  0.00  0.00    -0.325 N 
ATOM     27  H   UNL     1      -3.278  -1.203  -3.302  0.00  0.00    +0.145 HD
ATOM     28  H   UNL     1      -4.798  -1.762  -3.747  0.00  0.00    +0.145 HD
ENDBRANCH  21  24
BRANCH  19  30
ATOM     29  C   UNL     1      -0.019   1.526   0.010  0.00  0.00    +0.009 C 
ATOM     30  C   UNL     1       0.002  -0.004   0.002  0.00  0.00    +0.039 C 
ENDBRANCH  19  30
ENDBRANCH   1  22
TORSDOF 4
