REMARK  Name = ZINC16651752
REMARK  14 active torsions:
REMARK  status: ('A' for Active; 'I' for Inactive)
REMARK    1  A    between atoms: C_1  and  C_2
REMARK    2  A    between atoms: C_2  and  C_3
REMARK    3  A    between atoms: C_8  and  N_9
REMARK    4  A    between atoms: N_12  and  C_13
REMARK    5  A    between atoms: N_12  and  C_17
REMARK    6  A    between atoms: C_13  and  C_14
REMARK    7  A    between atoms: C_14  and  C_15
REMARK    8  A    between atoms: C_14  and  C_16
REMARK    9  A    between atoms: C_17  and  C_18
REMARK   10  A    between atoms: N_20  and  C_21
REMARK   11  A    between atoms: N_20  and  C_31
REMARK   12  A    between atoms: C_21  and  C_22
REMARK   13  A    between atoms: C_31  and  C_32
REMARK   14  A    between atoms: C_35  and  C_37
REMARK                            x       y       z     vdW  Elec       q    Type
REMARK                         _______ _______ _______ _____ _____    ______ ____
ROOT
ATOM      1  C   UNL     1      -1.726   2.308   1.421  0.00  0.00    +0.234 C 
ATOM      2  O   UNL     1      -1.033   1.926   2.340  0.00  0.00    -0.274 OA
ATOM      3  N   UNL     1      -2.881   2.955   1.671  0.00  0.00    -0.289 N 
ENDROOT
BRANCH   1   4
ATOM      4  C   UNL     1      -1.296   2.058  -0.002  0.00  0.00    +0.205 C 
BRANCH   4   8
ATOM      5  N   UNL     1       1.178  -0.662  -0.013  0.00  0.00    -0.269 N 
ATOM      6  C   UNL     1       0.002  -0.004  -0.003  0.00  0.00    +0.307 C 
ATOM      7  O   UNL     1      -1.042  -0.627   0.010  0.00  0.00    -0.252 OA
ATOM      8  N   UNL     1      -0.017   1.343  -0.007  0.00  0.00    -0.276 N 
ATOM      9  H   UNL     1       2.010  -0.168  -0.088  0.00  0.00    +0.156 HD
BRANCH   5  15
ATOM     10  C   UNL     1       2.227  -2.691   0.773  0.00  0.00    -0.026 A 
ATOM     11  C   UNL     1       2.246  -4.069   0.868  0.00  0.00    +0.005 A 
ATOM     12  C   UNL     1       1.244  -4.817   0.280  0.00  0.00    +0.000 A 
ATOM     13  C   UNL     1       0.220  -4.190  -0.406  0.00  0.00    +0.002 A 
ATOM     14  C   UNL     1       0.193  -2.813  -0.501  0.00  0.00    +0.023 A 
ATOM     15  C   UNL     1       1.200  -2.058   0.085  0.00  0.00    +0.038 A 
BRANCH  10  17
ATOM     16  C   UNL     1       2.867  -1.421   2.805  0.00  0.00    +0.009 C 
ATOM     17  C   UNL     1       3.320  -1.875   1.415  0.00  0.00    +0.033 C 
ENDBRANCH  10  17
ENDBRANCH   5  15
BRANCH   8  18
ATOM     18  C   UNL     1       1.241   2.093  -0.022  0.00  0.00    +0.113 C 
BRANCH  18  19
ATOM     19  C   UNL     1       1.664   2.350  -1.470  0.00  0.00    +0.000 C 
ATOM     20  C   UNL     1       2.910   3.238  -1.488  0.00  0.00    +0.009 C 
ATOM     21  C   UNL     1       1.979   1.017  -2.153  0.00  0.00    +0.009 C 
ENDBRANCH  18  19
ENDBRANCH   8  18
ENDBRANCH   4   8
ENDBRANCH   1   4
BRANCH   3  22
ATOM     22  C   UNL     1      -3.300   3.198   3.054  0.00  0.00    +0.143 C 
BRANCH  22  23
ATOM     23  C   UNL     1      -2.750   4.521   3.520  0.00  0.00    -0.026 A 
ATOM     24  C   UNL     1      -1.513   4.576   4.134  0.00  0.00    +0.009 A 
ATOM     25  C   UNL     1      -1.002   5.789   4.559  0.00  0.00    +0.050 A 
ATOM     26  C   UNL     1      -1.735   6.951   4.380  0.00  0.00    +0.166 A 
ATOM     27  C   UNL     1      -2.984   6.894   3.766  0.00  0.00    +0.167 A 
ATOM     28  C   UNL     1      -3.487   5.677   3.338  0.00  0.00    +0.054 A 
ATOM     29  O   UNL     1      -3.499   8.157   3.708  0.00  0.00    -0.453 OA
ATOM     30  C   UNL     1      -2.736   8.927   4.657  0.00  0.00    +0.466 C 
ATOM     31  O   UNL     1      -1.467   8.249   4.707  0.00  0.00    -0.453 OA
ENDBRANCH  22  23
ENDBRANCH   3  22
BRANCH   3  32
ATOM     32  C   UNL     1      -3.719   3.416   0.561  0.00  0.00    +0.182 C 
BRANCH  32  33
ATOM     33  C   UNL     1      -4.699   2.334   0.188  0.00  0.00    +0.122 A 
ATOM     34  C   UNL     1      -5.931   2.176   0.705  0.00  0.00    +0.046 A 
ATOM     35  C   UNL     1      -6.497   1.044   0.075  0.00  0.00    +0.045 A 
ATOM     36  C   UNL     1      -5.578   0.578  -0.790  0.00  0.00    +0.102 A 
ATOM     37  O   UNL     1      -4.493   1.367  -0.721  0.00  0.00    -0.463 OA
ATOM     38  C   UNL     1      -5.741  -0.621  -1.687  0.00  0.00    +0.086 C 
ENDBRANCH  32  33
ENDBRANCH   3  32
TORSDOF 10
