REMARK  Name = ZINC61136529
REMARK  9 active torsions:
REMARK  status: ('A' for Active; 'I' for Inactive)
REMARK    1  A    between atoms: C_1  and  C_2
REMARK    2  A    between atoms: C_3  and  C_11
REMARK    3  A    between atoms: C_5  and  C_7
REMARK    4  A    between atoms: C_7  and  C_8
REMARK    5  A    between atoms: C_7  and  C_9
REMARK    6  A    between atoms: C_7  and  C_10
REMARK    7  A    between atoms: C_23  and  C_25
REMARK    8  A    between atoms: C_25  and  O_27
REMARK    9  A    between atoms: O_27  and  C_28
REMARK                            x       y       z     vdW  Elec       q    Type
REMARK                         _______ _______ _______ _____ _____    ______ ____
ROOT
ATOM      1  C   UNL     1      -0.103  -0.301  -2.439  0.00  0.00    +0.256 C 
ATOM      2  O   UNL     1      -0.157   0.903  -2.610  0.00  0.00    -0.269 OA
ATOM      3  N   UNL     1      -0.048  -1.131  -3.499  0.00  0.00    -0.280 N 
ATOM      4  C   UNL     1      -0.039  -0.729  -4.908  0.00  0.00    +0.080 C 
ATOM      5  C   UNL     1       0.620   0.612  -5.136  0.00  0.00    +0.023 C 
ATOM      6  C   UNL     1       2.115   0.555  -4.823  0.00  0.00    +0.002 C 
ATOM      7  C   UNL     1       2.760  -0.500  -5.728  0.00  0.00    +0.000 C 
ATOM      8  C   UNL     1       2.162  -1.864  -5.391  0.00  0.00    +0.005 C 
ATOM      9  C   UNL     1       0.671  -1.869  -5.661  0.00  0.00    +0.012 C 
ATOM     10  C   UNL     1       0.102  -3.108  -4.903  0.00  0.00    +0.039 C 
ATOM     11  C   UNL     1       0.021  -2.602  -3.445  0.00  0.00    +0.185 C 
ENDROOT
BRANCH   1  14
ATOM     12  C   UNL     1      -0.218   1.308   0.222  0.00  0.00    +0.067 C 
ATOM     13  C   UNL     1      -0.147  -0.195   0.134  0.00  0.00    +0.058 A 
ATOM     14  C   UNL     1      -0.098  -0.848  -1.078  0.00  0.00    +0.097 A 
ATOM     15  S   UNL     1      -0.027  -2.546  -0.531  0.00  0.00    -0.067 S 
ATOM     16  C   UNL     1      -0.066  -2.257   1.127  0.00  0.00    +0.085 A 
ATOM     17  N   UNL     1      -0.123  -0.947   1.206  0.00  0.00    -0.248 NA
BRANCH  16  18
ATOM     18  C   UNL     1      -0.036  -3.260   2.251  0.00  0.00    +0.011 C 
ATOM     19  C   UNL     1      -1.307  -3.121   3.093  0.00  0.00    +0.017 C 
ATOM     20  C   UNL     1       0.038  -4.674   1.671  0.00  0.00    +0.017 C 
ATOM     21  C   UNL     1       1.189  -3.005   3.131  0.00  0.00    +0.017 C 
ENDBRANCH  16  18
ENDBRANCH   1  14
BRANCH  11  22
ATOM     22  C   UNL     1       1.247  -3.031  -2.682  0.00  0.00    +0.328 C 
ATOM     23  O   UNL     1       2.076  -2.212  -2.361  0.00  0.00    -0.249 OA
BRANCH  22  24
ATOM     24  O   UNL     1       1.419  -4.322  -2.357  0.00  0.00    -0.467 OA
ATOM     25  C   UNL     1       2.604  -4.657  -1.633  0.00  0.00    +0.280 C 
ENDBRANCH  22  24
ENDBRANCH  11  22
TORSDOF 4
