REMARK  Name = ZINC39695951
REMARK  7 active torsions:
REMARK  status: ('A' for Active; 'I' for Inactive)
REMARK    1  A    between atoms: C_1  and  C_2
REMARK    2  A    between atoms: C_2  and  C_3
REMARK    3  A    between atoms: C_6  and  C_9
REMARK    4  A    between atoms: C_9  and  C_11
REMARK    5  A    between atoms: C_9  and  N_12
REMARK    6  A    between atoms: C_13  and  C_15
REMARK    7  A    between atoms: C_26  and  C_28
REMARK                            x       y       z     vdW  Elec       q    Type
REMARK                         _______ _______ _______ _____ _____    ______ ____
ROOT
ATOM      1  C   UNL     1       2.626  -0.325   8.001  0.00  0.00    +0.100 C 
ATOM      2  C   UNL     1       2.364   1.189   7.836  0.00  0.00    +0.121 C 
ATOM      3  N   UNL     1       2.672   1.770   9.164  0.00  0.00    -0.296 N 
ATOM      4  C   UNL     1       3.868   1.025   9.623  0.00  0.00    +0.115 C 
ATOM      5  C   UNL     1       3.614  -0.428   9.175  0.00  0.00    -0.004 C 
ATOM      6  C   UNL     1       2.997  -1.232  10.315  0.00  0.00    -0.010 C 
ATOM      7  C   UNL     1       4.019  -1.370  11.447  0.00  0.00    -0.082 C 
ATOM      8  N   UNL     1       5.223  -2.042  10.943  0.00  0.00    +0.379 N 
ATOM      9  C   UNL     1       5.862  -1.217   9.911  0.00  0.00    -0.082 C 
ATOM     10  C   UNL     1       4.918  -1.073   8.713  0.00  0.00    -0.010 C 
ATOM     11  C   UNL     1       2.013   2.753   9.808  0.00  0.00    +0.247 C 
ATOM     12  O   UNL     1       2.443   3.185  10.861  0.00  0.00    -0.270 OA
ATOM     13  H   UNL     1       5.870  -2.186  11.704  0.00  0.00    -0.086 HD
ATOM     14  H   UNL     1       4.968  -2.935  10.549  0.00  0.00    -0.086 HD
ENDROOT
BRANCH  11  15
ATOM     15  C   UNL     1       0.769   3.308   9.236  0.00  0.00    +0.045 A 
ATOM     16  C   UNL     1       0.734   3.720   7.899  0.00  0.00    +0.014 A 
ATOM     17  C   UNL     1      -0.425   4.237   7.362  0.00  0.00    +0.001 A 
ATOM     18  C   UNL     1      -1.567   4.355   8.139  0.00  0.00    +0.012 A 
ATOM     19  C   UNL     1      -1.553   3.952   9.469  0.00  0.00    +0.031 A 
ATOM     20  C   UNL     1      -0.381   3.418  10.027  0.00  0.00    +0.006 A 
ATOM     21  C   UNL     1      -0.645   3.067  11.445  0.00  0.00    -0.006 A 
ATOM     22  C   UNL     1       0.165   2.520  12.431  0.00  0.00    +0.009 A 
ATOM     23  C   UNL     1      -0.345   2.290  13.700  0.00  0.00    +0.001 A 
ATOM     24  C   UNL     1      -1.659   2.601  13.992  0.00  0.00    +0.001 A 
ATOM     25  C   UNL     1      -2.481   3.148  13.019  0.00  0.00    +0.012 A 
ATOM     26  C   UNL     1      -1.982   3.384  11.745  0.00  0.00    +0.030 A 
ATOM     27  C   UNL     1      -2.596   3.957  10.523  0.00  0.00    +0.194 C 
ATOM     28  O   UNL     1      -3.740   4.345  10.404  0.00  0.00    -0.287 OA
ENDBRANCH  11  15
BRANCH   1  30
ATOM     29  N   UNL     1       3.144  -2.210   6.486  0.00  0.00    -0.308 N 
ATOM     30  C   UNL     1       3.240  -0.891   6.747  0.00  0.00    +0.219 C 
ATOM     31  O   UNL     1       3.820  -0.160   5.972  0.00  0.00    -0.275 OA
ATOM     32  H   UNL     1       2.680  -2.794   7.105  0.00  0.00    +0.149 HD
BRANCH  29  33
ATOM     33  C   UNL     1       3.741  -2.760   5.266  0.00  0.00    +0.100 C 
ATOM     34  C   UNL     1       5.219  -3.066   5.515  0.00  0.00    +0.033 C 
BRANCH  33  38
ATOM     35  C   UNL     1       1.707  -6.357   4.183  0.00  0.00    -0.048 A 
ATOM     36  C   UNL     1       2.092  -5.459   3.205  0.00  0.00    +0.004 A 
ATOM     37  C   UNL     1       2.750  -4.295   3.555  0.00  0.00    +0.006 A 
ATOM     38  C   UNL     1       3.023  -4.029   4.884  0.00  0.00    -0.027 A 
ATOM     39  C   UNL     1       2.637  -4.926   5.862  0.00  0.00    +0.006 A 
ATOM     40  C   UNL     1       1.975  -6.088   5.512  0.00  0.00    +0.004 A 
BRANCH  35  42
ATOM     41  C   UNL     1      -0.519  -7.375   3.789  0.00  0.00    +0.009 C 
ATOM     42  C   UNL     1       0.990  -7.626   3.800  0.00  0.00    +0.032 C 
ENDBRANCH  35  42
ENDBRANCH  33  38
ENDBRANCH  29  33
ENDBRANCH   1  30
TORSDOF 5
