REMARK  Name = ZINC34756360
REMARK  8 active torsions:
REMARK  status: ('A' for Active; 'I' for Inactive)
REMARK    1  A    between atoms: C_1  and  N_2
REMARK    2  A    between atoms: N_2  and  C_3
REMARK    3  A    between atoms: C_4  and  C_6
REMARK    4  A    between atoms: C_6  and  N_7
REMARK    5  A    between atoms: C_20  and  S_22
REMARK    6  A    between atoms: S_22  and  C_23
REMARK    7  A    between atoms: C_23  and  C_24
REMARK    8  A    between atoms: C_27  and  N_30
REMARK                            x       y       z     vdW  Elec       q    Type
REMARK                         _______ _______ _______ _____ _____    ______ ____
ROOT
ATOM      1  N   UNL     1      -3.522  -1.832   0.043  0.00  0.00    +0.387 N 
ATOM      2  C   UNL     1      -4.970  -2.019   0.203  0.00  0.00    -0.059 C 
ATOM      3  C   UNL     1      -5.284  -3.516   0.293  0.00  0.00    +0.088 C 
ATOM      4  N   UNL     1      -4.711  -4.185  -0.885  0.00  0.00    -0.318 N 
ATOM      5  C   UNL     1      -3.301  -3.922  -1.214  0.00  0.00    +0.088 C 
ATOM      6  C   UNL     1      -3.081  -2.406  -1.234  0.00  0.00    -0.059 C 
ATOM      7  C   UNL     1      -5.476  -5.037  -1.661  0.00  0.00    +0.134 A 
ATOM      8  C   UNL     1      -5.440  -6.442  -1.437  0.00  0.00    +0.051 A 
ATOM      9  C   UNL     1      -4.665  -7.191  -0.445  0.00  0.00    -0.025 A 
ATOM     10  C   UNL     1      -4.812  -8.530  -0.439  0.00  0.00    -0.004 A 
ATOM     11  S   UNL     1      -5.973  -8.875  -1.734  0.00  0.00    -0.073 S 
ATOM     12  C   UNL     1      -6.260  -7.213  -2.284  0.00  0.00    +0.115 A 
ATOM     13  N   UNL     1      -7.004  -6.657  -3.220  0.00  0.00    -0.215 NA
ATOM     14  C   UNL     1      -6.998  -5.340  -3.385  0.00  0.00    +0.191 A 
ATOM     15  N   UNL     1      -6.253  -4.554  -2.616  0.00  0.00    -0.206 NA
ATOM     16  C   UNL     1      -4.136  -9.514   0.468  0.00  0.00    +0.043 C 
ATOM     17  C   UNL     1      -2.959  -8.808   1.157  0.00  0.00    +0.005 C 
ATOM     18  C   UNL     1      -3.446  -7.463   1.703  0.00  0.00    +0.005 C 
ATOM     19  C   UNL     1      -3.729  -6.504   0.546  0.00  0.00    +0.037 C 
ATOM     20  H   UNL     1      -3.041  -2.292   0.802  0.00  0.00    -0.081 HD
ENDROOT
BRANCH   1  21
ATOM     21  C   UNL     1      -3.211  -0.397   0.067  0.00  0.00    +0.019 C 
BRANCH  21  25
ATOM     22  C   UNL     1      -3.675   2.027   2.993  0.00  0.00    +0.131 C 
ATOM     23  N   UNL     1      -3.345   1.477   1.676  0.00  0.00    -0.309 N 
ATOM     24  C   UNL     1      -2.794   2.348   0.635  0.00  0.00    +0.131 C 
ATOM     25  C   UNL     1      -3.550   0.169   1.422  0.00  0.00    +0.199 C 
ATOM     26  O   UNL     1      -4.006  -0.552   2.283  0.00  0.00    -0.278 OA
ENDBRANCH  21  25
ENDBRANCH   1  21
BRANCH  14  27
ATOM     27  S   UNL     1      -8.001  -4.621  -4.642  0.00  0.00    -0.081 S 
BRANCH  27  28
ATOM     28  C   UNL     1      -8.826  -6.042  -5.412  0.00  0.00    +0.112 C 
BRANCH  28  29
ATOM     29  C   UNL     1      -9.727  -5.560  -6.519  0.00  0.00    -0.037 A 
ATOM     30  C   UNL     1     -11.042  -5.232  -6.247  0.00  0.00    +0.007 A 
ATOM     31  C   UNL     1     -11.868  -4.790  -7.263  0.00  0.00    +0.033 A 
ATOM     32  C   UNL     1     -11.380  -4.676  -8.551  0.00  0.00    +0.126 A 
ATOM     33  C   UNL     1     -10.065  -5.003  -8.823  0.00  0.00    +0.033 A 
ATOM     34  C   UNL     1      -9.237  -5.441  -7.806  0.00  0.00    +0.007 A 
BRANCH  32  35
ATOM     35  N   UNL     1     -12.265  -4.204  -9.639  0.00  0.00    +0.056 N 
ATOM     36  O   UNL     1     -13.416  -3.918  -9.401  0.00  0.00    -0.126 OA
ATOM     37  O   UNL     1     -11.838  -4.104 -10.766  0.00  0.00    -0.126 OA
ENDBRANCH  32  35
ENDBRANCH  28  29
ENDBRANCH  27  28
ENDBRANCH  14  27
TORSDOF 6
