REMARK  Name = ZINC36569076
REMARK  16 active torsions:
REMARK  status: ('A' for Active; 'I' for Inactive)
REMARK    1  A    between atoms: C_1  and  C_2
REMARK    2  A    between atoms: C_2  and  C_3
REMARK    3  A    between atoms: C_3  and  N_4
REMARK    4  A    between atoms: N_4  and  C_5
REMARK    5  A    between atoms: C_5  and  C_7
REMARK    6  A    between atoms: C_5  and  C_17
REMARK    7  A    between atoms: C_9  and  N_14
REMARK    8  A    between atoms: N_19  and  C_20
REMARK    9  A    between atoms: C_20  and  C_21
REMARK   10  A    between atoms: C_20  and  C_22
REMARK   11  A    between atoms: C_20  and  C_23
REMARK   12  A    between atoms: C_23  and  C_24
REMARK   13  A    between atoms: C_24  and  C_25
REMARK   14  A    between atoms: C_24  and  C_26
REMARK   15  A    between atoms: C_24  and  C_27
REMARK   16  A    between atoms: C_28  and  C_30
REMARK                            x       y       z     vdW  Elec       q    Type
REMARK                         _______ _______ _______ _____ _____    ______ ____
ROOT
ATOM      1  C   UNL     1      -0.470  -4.619   1.426  0.00  0.00    +0.194 C 
ENDROOT
BRANCH   1   2
ATOM      2  C   UNL     1       0.545  -4.639   0.313  0.00  0.00    +0.002 A 
ATOM      3  C   UNL     1       0.411  -3.778  -0.761  0.00  0.00    +0.040 A 
ATOM      4  C   UNL     1       1.343  -3.797  -1.782  0.00  0.00    +0.127 A 
ATOM      5  C   UNL     1       2.408  -4.676  -1.731  0.00  0.00    +0.034 A 
ATOM      6  C   UNL     1       2.543  -5.537  -0.658  0.00  0.00    +0.022 A 
ATOM      7  C   UNL     1       1.615  -5.514   0.368  0.00  0.00    +0.047 A 
ATOM      8 CL   UNL     1       1.788  -6.590   1.720  0.00  0.00    -0.083 Cl
BRANCH   4   9
ATOM      9  N   UNL     1       1.198  -2.876  -2.932  0.00  0.00    +0.056 N 
ATOM     10  O   UNL     1       0.266  -2.107  -2.977  0.00  0.00    -0.126 OA
ATOM     11  O   UNL     1       2.013  -2.892  -3.825  0.00  0.00    -0.126 OA
ENDBRANCH   4   9
ENDBRANCH   1   2
BRANCH   1  12
ATOM     12  C   UNL     1      -1.781  -4.093   0.900  0.00  0.00    +0.239 C 
ATOM     13  O   UNL     1      -2.108  -2.947   1.123  0.00  0.00    -0.273 OA
ATOM     14  N   UNL     1      -2.591  -4.897   0.183  0.00  0.00    -0.308 N 
ATOM     15  H   UNL     1      -2.356  -5.830   0.052  0.00  0.00    +0.149 HD
BRANCH  14  16
ATOM     16  C   UNL     1      -3.824  -4.364  -0.400  0.00  0.00    +0.030 C 
ATOM     17  C   UNL     1      -4.835  -4.084   0.714  0.00  0.00    +0.031 C 
ATOM     18  C   UNL     1      -3.515  -3.064  -1.146  0.00  0.00    +0.031 C 
BRANCH  16  19
ATOM     19  C   UNL     1      -4.410  -5.385  -1.376  0.00  0.00    +0.031 C 
BRANCH  19  20
ATOM     20  C   UNL     1      -3.748  -5.220  -2.746  0.00  0.00    -0.036 C 
ATOM     21  C   UNL     1      -2.227  -5.228  -2.581  0.00  0.00    +0.010 C 
ATOM     22  C   UNL     1      -4.168  -6.375  -3.658  0.00  0.00    +0.010 C 
ATOM     23  C   UNL     1      -4.188  -3.893  -3.368  0.00  0.00    +0.010 C 
ENDBRANCH  19  20
ENDBRANCH  16  19
ENDBRANCH  14  16
ENDBRANCH   1  12
BRANCH   1  24
ATOM     24  N   UNL     1       0.006  -3.751   2.506  0.00  0.00    -0.282 N 
ATOM     25  C   UNL     1      -0.103  -4.149   3.789  0.00  0.00    +0.248 C 
ATOM     26  O   UNL     1       0.423  -3.502   4.673  0.00  0.00    -0.270 OA
BRANCH  25  27
ATOM     27  C   UNL     1      -0.861  -5.375   4.120  0.00  0.00    +0.038 A 
ATOM     28  C   UNL     1      -1.810  -5.875   3.227  0.00  0.00    +0.013 A 
ATOM     29  C   UNL     1      -2.514  -7.019   3.542  0.00  0.00    +0.002 A 
ATOM     30  C   UNL     1      -2.281  -7.671   4.739  0.00  0.00    +0.020 A 
ATOM     31  C   UNL     1      -1.341  -7.180   5.630  0.00  0.00    +0.042 A 
ATOM     32  C   UNL     1      -0.626  -6.039   5.325  0.00  0.00    +0.033 A 
ATOM     33 CL   UNL     1      -1.057  -8.005   7.131  0.00  0.00    -0.084 Cl
ENDBRANCH  25  27
BRANCH  24  34
ATOM     34  C   UNL     1       0.600  -2.449   2.191  0.00  0.00    +0.109 C 
BRANCH  34  36
ATOM     35  C   UNL     1       0.170   0.009   2.075  0.00  0.00    +0.005 C 
ATOM     36  C   UNL     1      -0.474  -1.363   2.278  0.00  0.00    +0.016 C 
ENDBRANCH  34  36
ENDBRANCH  24  34
ENDBRANCH   1  24
TORSDOF 10
