REMARK  Name = ZINC53113470
REMARK  7 active torsions:
REMARK  status: ('A' for Active; 'I' for Inactive)
REMARK    1  A    between atoms: C_1  and  C_2
REMARK    2  A    between atoms: C_7  and  C_9
REMARK    3  A    between atoms: C_7  and  N_11
REMARK    4  A    between atoms: C_9  and  O_10
REMARK    5  A    between atoms: N_11  and  S_12
REMARK    6  A    between atoms: S_12  and  C_15
REMARK    7  A    between atoms: C_20  and  N_21
REMARK                            x       y       z     vdW  Elec       q    Type
REMARK                         _______ _______ _______ _____ _____    ______ ____
ROOT
ATOM      1  S   UNL     1       1.216   2.595   2.493  0.00  0.00    +0.061 S 
ATOM      2  O   UNL     1       1.900   2.359   1.270  0.00  0.00    -0.153 OA
ATOM      3  O   UNL     1       0.616   3.846   2.801  0.00  0.00    -0.153 OA
ENDROOT
BRANCH   1   4
ATOM      4  C   UNL     1       2.365   2.257   3.786  0.00  0.00    +0.128 A 
ATOM      5  C   UNL     1       3.662   1.890   3.480  0.00  0.00    +0.068 A 
ATOM      6  C   UNL     1       4.565   1.625   4.495  0.00  0.00    +0.125 A 
ATOM      7  C   UNL     1       4.171   1.726   5.819  0.00  0.00    +0.040 A 
ATOM      8  C   UNL     1       2.877   2.092   6.129  0.00  0.00    +0.027 A 
ATOM      9  C   UNL     1       1.970   2.365   5.112  0.00  0.00    +0.051 A 
ATOM     10  F   UNL     1       5.832   1.266   4.193  0.00  0.00    -0.205 F 
BRANCH   9  11
ATOM     11  N   UNL     1       0.660   2.742   5.425  0.00  0.00    -0.356 N 
ATOM     12  H   UNL     1       0.005   2.851   4.717  0.00  0.00    +0.142 HD
ATOM     13  H   UNL     1       0.407   2.894   6.348  0.00  0.00    +0.142 HD
ENDBRANCH   9  11
ENDBRANCH   1   4
BRANCH   1  14
ATOM     14  N   UNL     1       0.018   1.457   2.594  0.00  0.00    -0.182 NA
ATOM     15  H   UNL     1      -0.875   1.716   2.872  0.00  0.00    +0.149 HD
BRANCH  14  21
ATOM     16  C   UNL     1      -0.925   1.871   0.317  0.00  0.00    +0.007 C 
ATOM     17  C   UNL     1      -0.625   0.412  -0.030  0.00  0.00    -0.012 C 
ATOM     18  C   UNL     1      -1.833  -0.456   0.327  0.00  0.00    +0.003 C 
ATOM     19  C   UNL     1      -2.123  -0.337   1.825  0.00  0.00    +0.002 C 
ATOM     20  C   UNL     1      -0.903  -0.809   2.619  0.00  0.00    +0.026 C 
ATOM     21  C   UNL     1       0.305   0.059   2.262  0.00  0.00    +0.063 C 
ATOM     22  C   UNL     1       0.595  -0.060   0.764  0.00  0.00    +0.029 C 
BRANCH  21  23
ATOM     23  C   UNL     1       1.525  -0.413   3.056  0.00  0.00    +0.179 C 
BRANCH  23  24
ATOM     24  O   UNL     1       1.270  -0.264   4.454  0.00  0.00    -0.393 OA
ATOM     25  H   UNL     1       1.969  -0.616   5.021  0.00  0.00    +0.209 HD
ENDBRANCH  23  24
ENDBRANCH  21  23
ENDBRANCH  14  21
ENDBRANCH   1  14
TORSDOF 6
