REMARK  Name = ZINC16218256
REMARK  11 active torsions:
REMARK  status: ('A' for Active; 'I' for Inactive)
REMARK    1  A    between atoms: C_1  and  C_2
REMARK    2  A    between atoms: C_2  and  C_3
REMARK    3  A    between atoms: C_2  and  C_4
REMARK    4  A    between atoms: C_7  and  N_10
REMARK    5  A    between atoms: N_10  and  C_11
REMARK    6  A    between atoms: C_11  and  N_13
REMARK    7  A    between atoms: N_13  and  N_14
REMARK    8  A    between atoms: N_14  and  C_15
REMARK    9  A    between atoms: C_18  and  S_24
REMARK   10  A    between atoms: C_20  and  N_21
REMARK   11  A    between atoms: S_24  and  N_27
REMARK                            x       y       z     vdW  Elec       q    Type
REMARK                         _______ _______ _______ _____ _____    ______ ____
ROOT
ATOM      1  N   UNL     1      -7.971  -2.607  -0.056  0.00  0.00    -0.263 N 
ATOM      2  H   UNL     1      -7.635  -2.090   0.693  0.00  0.00    +0.170 HD
ENDROOT
BRANCH   1   3
ATOM      3  C   UNL     1      -9.294  -3.054  -0.058  0.00  0.00    +0.075 A 
ATOM      4  C   UNL     1      -9.754  -3.863  -1.090  0.00  0.00    +0.028 A 
ATOM      5  C   UNL     1     -11.063  -4.302  -1.089  0.00  0.00    +0.030 A 
ATOM      6  C   UNL     1     -11.916  -3.938  -0.063  0.00  0.00    +0.107 A 
ATOM      7  C   UNL     1     -11.461  -3.133   0.965  0.00  0.00    +0.063 A 
ATOM      8  C   UNL     1     -10.152  -2.695   0.974  0.00  0.00    +0.150 A 
BRANCH   8   9
ATOM      9  N   UNL     1      -9.664  -1.839   2.078  0.00  0.00    +0.058 N 
ATOM     10  O   UNL     1      -8.545  -1.989   2.511  0.00  0.00    -0.126 OA
ATOM     11  O   UNL     1     -10.384  -0.989   2.548  0.00  0.00    -0.126 OA
ENDBRANCH   8   9
BRANCH   6  12
ATOM     12  S   UNL     1     -13.586  -4.500  -0.067  0.00  0.00    +0.056 S 
ATOM     13  O   UNL     1     -14.328  -3.575   0.716  0.00  0.00    -0.153 OA
ATOM     14  O   UNL     1     -13.914  -4.790  -1.419  0.00  0.00    -0.153 OA
BRANCH  12  15
ATOM     15  N   UNL     1     -13.619  -5.942   0.747  0.00  0.00    -0.204 NA
ATOM     16  H   UNL     1     -14.415  -6.207   1.234  0.00  0.00    +0.144 HD
ATOM     17  H   UNL     1     -12.841  -6.522   0.738  0.00  0.00    +0.144 HD
ENDBRANCH  12  15
ENDBRANCH   6  12
ENDBRANCH   1   3
BRANCH   1  18
ATOM     18  N   UNL     1      -7.129  -2.906  -1.135  0.00  0.00    -0.248 N 
ATOM     19  H   UNL     1      -7.465  -3.422  -1.884  0.00  0.00    +0.172 HD
BRANCH  18  20
ATOM     20  C   UNL     1      -5.852  -2.475  -1.133  0.00  0.00    +0.151 C 
ATOM     21  S   UNL     1      -4.823  -2.839  -2.452  0.00  0.00    -0.017 S 
BRANCH  20  22
ATOM     22  N   UNL     1      -5.385  -1.757  -0.093  0.00  0.00    -0.296 N 
ATOM     23  H   UNL     1      -5.940  -1.620   0.691  0.00  0.00    +0.154 HD
BRANCH  22  27
ATOM     24  C   UNL     1      -1.556  -0.122  -0.241  0.00  0.00    -0.045 A 
ATOM     25  C   UNL     1      -2.364  -0.090  -1.363  0.00  0.00    +0.006 A 
ATOM     26  C   UNL     1      -3.633  -0.631  -1.317  0.00  0.00    +0.023 A 
ATOM     27  C   UNL     1      -4.099  -1.208  -0.143  0.00  0.00    +0.033 A 
ATOM     28  C   UNL     1      -3.285  -1.238   0.983  0.00  0.00    +0.023 A 
ATOM     29  C   UNL     1      -2.014  -0.700   0.928  0.00  0.00    +0.006 A 
BRANCH  24  31
ATOM     30  C   UNL     1       0.649  -0.249  -1.368  0.00  0.00    +0.012 C 
ATOM     31  C   UNL     1      -0.171   0.469  -0.295  0.00  0.00    +0.013 C 
ATOM     32  C   UNL     1      -0.264   1.958  -0.636  0.00  0.00    +0.012 C 
ENDBRANCH  24  31
ENDBRANCH  22  27
ENDBRANCH  20  22
ENDBRANCH  18  20
ENDBRANCH   1  18
TORSDOF 9
