REMARK  Name = ZINC12573871
REMARK  6 active torsions:
REMARK  status: ('A' for Active; 'I' for Inactive)
REMARK    1  A    between atoms: C_1  and  O_2
REMARK    2  A    between atoms: O_2  and  C_3
REMARK    3  A    between atoms: C_6  and  C_10
REMARK    4  A    between atoms: N_12  and  N_13
REMARK    5  A    between atoms: C_14  and  C_15
REMARK    6  A    between atoms: C_17  and  N_22
REMARK                            x       y       z     vdW  Elec       q    Type
REMARK                         _______ _______ _______ _____ _____    ______ ____
ROOT
ATOM      1  C   UNL     1       3.742  -1.589  -0.042  0.00  0.00    +0.263 C 
ATOM      2  O   UNL     1       2.700  -2.216  -0.035  0.00  0.00    -0.268 OA
ATOM      3  N   UNL     1       3.717  -0.241  -0.035  0.00  0.00    -0.203 N 
ATOM      4  H   UNL     1       4.548   0.259  -0.040  0.00  0.00    +0.178 HD
ENDROOT
BRANCH   1   8
ATOM      5  C   UNL     1       7.457  -3.644  -0.089  0.00  0.00    +0.133 A 
ATOM      6  C   UNL     1       7.434  -2.255  -0.082  0.00  0.00    +0.047 A 
ATOM      7  C   UNL     1       6.231  -1.584  -0.072  0.00  0.00    +0.017 A 
ATOM      8  C   UNL     1       5.033  -2.303  -0.058  0.00  0.00    +0.040 A 
ATOM      9  C   UNL     1       5.060  -3.700  -0.066  0.00  0.00    +0.031 A 
ATOM     10  C   UNL     1       6.268  -4.363  -0.082  0.00  0.00    +0.056 A 
ATOM     11  I   UNL     1       6.311  -6.458  -0.092  0.00  0.00    -0.040 I 
BRANCH   5  13
ATOM     12  C   UNL     1       9.829  -3.501  -0.112  0.00  0.00    +0.277 C 
ATOM     13  O   UNL     1       8.645  -4.301  -0.104  0.00  0.00    -0.494 OA
ENDBRANCH   5  13
ENDBRANCH   1   8
BRANCH   3  14
ATOM     14  N   UNL     1       2.492   0.437  -0.019  0.00  0.00    -0.187 NA
ATOM     15  C   UNL     1       2.468   1.735  -0.012  0.00  0.00    +0.139 C 
BRANCH  15  16
ATOM     16  C   UNL     1       1.178   2.449   0.004  0.00  0.00    +0.015 A 
ATOM     17  C   UNL     1       1.149   3.846   0.011  0.00  0.00    +0.043 A 
ATOM     18  C   UNL     1      -0.061   4.507   0.026  0.00  0.00    +0.127 A 
ATOM     19  C   UNL     1      -1.245   3.791   0.033  0.00  0.00    +0.034 A 
ATOM     20  C   UNL     1      -1.226   2.408   0.021  0.00  0.00    +0.023 A 
ATOM     21  C   UNL     1      -0.021   1.732   0.012  0.00  0.00    +0.050 A 
ATOM     22 CL   UNL     1       0.002  -0.004   0.002  0.00  0.00    -0.083 Cl
BRANCH  18  23
ATOM     23  N   UNL     1      -0.093   5.987   0.033  0.00  0.00    +0.056 N 
ATOM     24  O   UNL     1       0.948   6.619   0.026  0.00  0.00    -0.126 OA
ATOM     25  O   UNL     1      -1.161   6.573   0.046  0.00  0.00    -0.126 OA
ENDBRANCH  18  23
ENDBRANCH  15  16
ENDBRANCH   3  14
TORSDOF 5
