REMARK  Name = ZINC37380542
REMARK  11 active torsions:
REMARK  status: ('A' for Active; 'I' for Inactive)
REMARK    1  A    between atoms: C_1  and  C_2
REMARK    2  A    between atoms: C_6  and  C_25
REMARK    3  A    between atoms: C_8  and  N_9
REMARK    4  A    between atoms: C_15  and  C_17
REMARK    5  A    between atoms: C_17  and  S_18
REMARK    6  A    between atoms: S_18  and  C_19
REMARK    7  A    between atoms: C_25  and  C_26
REMARK    8  A    between atoms: C_26  and  C_27
REMARK    9  A    between atoms: C_27  and  C_28
REMARK   10  A    between atoms: C_27  and  C_29
REMARK   11  A    between atoms: N_30  and  C_32
REMARK                            x       y       z     vdW  Elec       q    Type
REMARK                         _______ _______ _______ _____ _____    ______ ____
ROOT
ATOM      1  C   UNL     1       0.535   1.493  -0.088  0.00  0.00    +0.068 C 
ATOM      2  C   UNL     1       0.459  -0.012  -0.079  0.00  0.00    +0.073 A 
ATOM      3  C   UNL     1       0.122  -0.828  -1.182  0.00  0.00    +0.082 A 
ATOM      4  C   UNL     1       0.171  -2.164  -0.737  0.00  0.00    +0.169 A 
ATOM      5  N   UNL     1      -0.110  -3.138  -1.600  0.00  0.00    -0.212 NA
ATOM      6  C   UNL     1      -0.428  -2.861  -2.845  0.00  0.00    +0.134 A 
ATOM      7  N   UNL     1      -0.486  -1.625  -3.308  0.00  0.00    -0.217 NA
ATOM      8  C   UNL     1      -0.223  -0.584  -2.525  0.00  0.00    +0.136 A 
ATOM      9  N   UNL     1       0.525  -2.122   0.581  0.00  0.00    -0.214 N 
ATOM     10  N   UNL     1       0.697  -0.780   0.946  0.00  0.00    -0.169 NA
ENDROOT
BRANCH   8  11
ATOM     11  N   UNL     1      -0.287   0.705  -3.016  0.00  0.00    -0.312 N 
ATOM     12  C   UNL     1       0.923   1.380  -3.506  0.00  0.00    +0.125 C 
ATOM     13  C   UNL     1       0.674   1.851  -4.944  0.00  0.00    +0.126 C 
ATOM     14  N   UNL     1      -0.606   2.572  -4.987  0.00  0.00    -0.298 N 
ATOM     15  C   UNL     1      -1.816   1.897  -4.497  0.00  0.00    +0.126 C 
ATOM     16  C   UNL     1      -1.567   1.425  -3.064  0.00  0.00    +0.125 C 
ATOM     17  C   UNL     1      -0.669   3.830  -5.466  0.00  0.00    +0.226 C 
ATOM     18  O   UNL     1       0.337   4.377  -5.868  0.00  0.00    -0.275 OA
BRANCH  17  19
ATOM     19  C   UNL     1      -1.988   4.557  -5.504  0.00  0.00    +0.170 C 
BRANCH  19  20
ATOM     20  S   UNL     1      -1.744   6.216  -6.197  0.00  0.00    -0.116 S 
BRANCH  20  21
ATOM     21  C   UNL     1      -3.356   6.928  -6.174  0.00  0.00    +0.008 A 
ATOM     22  C   UNL     1      -4.433   6.200  -5.682  0.00  0.00    +0.015 A 
ATOM     23  C   UNL     1      -5.694   6.761  -5.666  0.00  0.00    +0.001 A 
ATOM     24  C   UNL     1      -5.887   8.047  -6.138  0.00  0.00    +0.000 A 
ATOM     25  C   UNL     1      -4.818   8.774  -6.628  0.00  0.00    +0.001 A 
ATOM     26  C   UNL     1      -3.553   8.222  -6.642  0.00  0.00    +0.015 A 
ENDBRANCH  20  21
ENDBRANCH  19  20
ENDBRANCH  17  19
ENDBRANCH   8  11
BRANCH   9  27
ATOM     27  C   UNL     1       0.692  -3.230   1.423  0.00  0.00    +0.068 A 
ATOM     28  C   UNL     1      -0.117  -4.348   1.268  0.00  0.00    +0.030 A 
ATOM     29  C   UNL     1       0.049  -5.439   2.099  0.00  0.00    +0.040 A 
ATOM     30  C   UNL     1       1.021  -5.419   3.084  0.00  0.00    +0.124 A 
ATOM     31  C   UNL     1       1.828  -4.304   3.240  0.00  0.00    +0.040 A 
ATOM     32  C   UNL     1       1.669  -3.213   2.409  0.00  0.00    +0.030 A 
ATOM     33  F   UNL     1       1.182  -6.487   3.896  0.00  0.00    -0.205 F 
ENDBRANCH   9  27
BRANCH   6  34
ATOM     34  C   UNL     1      -0.738  -3.999  -3.783  0.00  0.00    +0.076 C 
BRANCH  34  35
ATOM     35  C   UNL     1      -2.234  -4.312  -3.729  0.00  0.00    +0.011 C 
BRANCH  35  36
ATOM     36  C   UNL     1      -2.549  -5.467  -4.681  0.00  0.00    -0.017 C 
ATOM     37  C   UNL     1      -4.020  -5.862  -4.535  0.00  0.00    +0.007 C 
ATOM     38  C   UNL     1      -2.279  -5.029  -6.122  0.00  0.00    +0.007 C 
ENDBRANCH  35  36
ENDBRANCH  34  35
ENDBRANCH   6  34
TORSDOF 8
