REMARK  Name = ZINC13145816
REMARK  9 active torsions:
REMARK  status: ('A' for Active; 'I' for Inactive)
REMARK    1  A    between atoms: C_1  and  C_2
REMARK    2  A    between atoms: C_5  and  N_9
REMARK    3  A    between atoms: C_6  and  C_8
REMARK    4  A    between atoms: C_10  and  N_17
REMARK    5  A    between atoms: C_11  and  C_14
REMARK    6  A    between atoms: N_17  and  C_18
REMARK    7  A    between atoms: C_18  and  N_20
REMARK    8  A    between atoms: C_21  and  C_23
REMARK    9  A    between atoms: C_24  and  C_25
REMARK                            x       y       z     vdW  Elec       q    Type
REMARK                         _______ _______ _______ _____ _____    ______ ____
ROOT
ATOM      1  N   UNL     1       1.746  -1.683  -0.252  0.00  0.00    -0.281 N 
ATOM      2  H   UNL     1       2.587  -1.857  -0.701  0.00  0.00    +0.155 HD
ENDROOT
BRANCH   1   4
ATOM      3  N   UNL     1       0.051   0.075  -0.309  0.00  0.00    -0.217 N 
ATOM      4  C   UNL     1       1.304  -0.381  -0.090  0.00  0.00    +0.140 A 
ATOM      5  C   UNL     1       2.068   0.705   0.328  0.00  0.00    +0.096 A 
ATOM      6  C   UNL     1       1.211   1.830   0.348  0.00  0.00    +0.149 A 
ATOM      7  N   UNL     1       0.024   1.445  -0.030  0.00  0.00    -0.172 NA
BRANCH   3  12
ATOM      8  C   UNL     1      -4.354  -3.042  -2.063  0.00  0.00    +0.044 C 
ATOM      9  C   UNL     1      -3.184  -2.215  -1.597  0.00  0.00    -0.050 A 
ATOM     10  C   UNL     1      -1.953  -2.353  -2.212  0.00  0.00    +0.005 A 
ATOM     11  C   UNL     1      -0.881  -1.592  -1.791  0.00  0.00    +0.028 A 
ATOM     12  C   UNL     1      -1.036  -0.695  -0.742  0.00  0.00    +0.070 A 
ATOM     13  C   UNL     1      -2.274  -0.559  -0.127  0.00  0.00    -0.025 A 
ATOM     14  C   UNL     1      -3.344  -1.319  -0.556  0.00  0.00    +0.008 A 
ATOM     15  C   UNL     1      -2.449   0.418   1.007  0.00  0.00    +0.046 C 
ENDBRANCH   3  12
BRANCH   5  16
ATOM     16  C   UNL     1       3.494   0.687   0.680  0.00  0.00    +0.246 C 
ATOM     17  O   UNL     1       4.122  -0.354   0.621  0.00  0.00    -0.270 OA
ATOM     18  N   UNL     1       4.106   1.822   1.071  0.00  0.00    -0.325 N 
ATOM     19  H   UNL     1       3.605   2.651   1.118  0.00  0.00    +0.145 HD
ATOM     20  H   UNL     1       5.047   1.810   1.304  0.00  0.00    +0.145 HD
ENDBRANCH   5  16
ENDBRANCH   1   4
BRANCH   1  21
ATOM     21  C   UNL     1       1.006  -2.708   0.216  0.00  0.00    +0.142 C 
ATOM     22  S   UNL     1      -0.437  -2.397   1.082  0.00  0.00    -0.018 S 
BRANCH  21  23
ATOM     23  N   UNL     1       1.402  -3.978   0.000  0.00  0.00    -0.264 N 
ATOM     24  C   UNL     1       0.613  -5.003   0.376  0.00  0.00    +0.242 C 
ATOM     25  O   UNL     1      -0.497  -4.784   0.825  0.00  0.00    -0.270 OA
ATOM     26  H   UNL     1       2.256  -4.154  -0.425  0.00  0.00    +0.157 HD
BRANCH  24  27
ATOM     27  C   UNL     1       1.089  -6.379   0.245  0.00  0.00    +0.068 C 
ATOM     28  C   UNL     1       0.297  -7.406   0.622  0.00  0.00    +0.013 C 
BRANCH  28  29
ATOM     29  C   UNL     1       0.777  -8.790   0.491  0.00  0.00    -0.021 A 
ATOM     30  C   UNL     1       2.053  -9.044  -0.025  0.00  0.00    +0.012 A 
ATOM     31  C   UNL     1       2.499 -10.342  -0.146  0.00  0.00    +0.050 A 
ATOM     32  C   UNL     1       1.687 -11.400   0.240  0.00  0.00    +0.166 A 
ATOM     33  C   UNL     1       0.413 -11.154   0.755  0.00  0.00    +0.167 A 
ATOM     34  C   UNL     1      -0.039  -9.856   0.886  0.00  0.00    +0.057 A 
ATOM     35  O   UNL     1      -0.174 -12.349   1.055  0.00  0.00    -0.453 OA
ATOM     36  C   UNL     1       0.903 -13.304   1.103  0.00  0.00    +0.466 C 
ATOM     37  O   UNL     1       1.894 -12.748   0.219  0.00  0.00    -0.453 OA
ENDBRANCH  28  29
ENDBRANCH  24  27
ENDBRANCH  21  23
ENDBRANCH   1  21
TORSDOF 7
