REMARK  Name = ZINC34833652
REMARK  12 active torsions:
REMARK  status: ('A' for Active; 'I' for Inactive)
REMARK    1  A    between atoms: C_1  and  C_2
REMARK    2  A    between atoms: C_2  and  C_3
REMARK    3  A    between atoms: C_2  and  C_4
REMARK    4  A    between atoms: C_2  and  C_5
REMARK    5  A    between atoms: C_9  and  C_21
REMARK    6  A    between atoms: C_11  and  C_14
REMARK    7  A    between atoms: N_16  and  C_17
REMARK    8  A    between atoms: C_17  and  C_18
REMARK    9  A    between atoms: C_17  and  C_19
REMARK   10  A    between atoms: C_17  and  C_20
REMARK   11  A    between atoms: C_26  and  O_27
REMARK   12  A    between atoms: O_27  and  C_28
REMARK                            x       y       z     vdW  Elec       q    Type
REMARK                         _______ _______ _______ _____ _____    ______ ____
ROOT
ATOM      1  C   UNL     1       0.707  -0.490  -1.238  0.00  0.00    +0.071 A 
ATOM      2  C   UNL     1       2.077  -0.468  -1.444  0.00  0.00    +0.073 A 
ATOM      3  C   UNL     1       2.322  -1.002  -2.706  0.00  0.00    +0.157 A 
ATOM      4  N   UNL     1       3.448  -1.211  -3.393  0.00  0.00    -0.228 NA
ATOM      5  C   UNL     1       3.421  -1.743  -4.601  0.00  0.00    +0.079 A 
ATOM      6  C   UNL     1       2.189  -2.104  -5.192  0.00  0.00    +0.061 A 
ATOM      7  C   UNL     1       1.032  -1.894  -4.497  0.00  0.00    +0.131 A 
ATOM      8  N   UNL     1       1.102  -1.336  -3.240  0.00  0.00    -0.209 N 
ATOM      9  N   UNL     1       0.122  -1.008  -2.295  0.00  0.00    -0.169 NA
ENDROOT
BRANCH   5  10
ATOM     10  C   UNL     1       4.686  -1.963  -5.339  0.00  0.00    +0.042 A 
ATOM     11  C   UNL     1       4.663  -2.520  -6.617  0.00  0.00    +0.013 A 
ATOM     12  C   UNL     1       5.844  -2.723  -7.300  0.00  0.00    +0.001 A 
ATOM     13  C   UNL     1       7.053  -2.375  -6.722  0.00  0.00    +0.004 A 
ATOM     14  C   UNL     1       7.088  -1.823  -5.456  0.00  0.00    +0.046 A 
ATOM     15  C   UNL     1       5.909  -1.608  -4.759  0.00  0.00    +0.129 A 
BRANCH  15  16
ATOM     16  O   UNL     1       5.941  -1.059  -3.518  0.00  0.00    -0.494 OA
ATOM     17  C   UNL     1       7.226  -0.722  -2.991  0.00  0.00    +0.277 C 
ENDBRANCH  15  16
ENDBRANCH   5  10
BRANCH   1  19
ATOM     18  C   UNL     1      -0.019   1.526   0.010  0.00  0.00    +0.017 C 
ATOM     19  C   UNL     1       0.002  -0.004   0.002  0.00  0.00    +0.006 C 
ATOM     20  C   UNL     1       0.742  -0.511   1.242  0.00  0.00    +0.017 C 
ATOM     21  C   UNL     1      -1.433  -0.534   0.013  0.00  0.00    +0.017 C 
ENDBRANCH   1  19
BRANCH   7  22
ATOM     22  C   UNL     1      -0.271  -2.259  -5.085  0.00  0.00    +0.263 C 
ATOM     23  O   UNL     1      -0.321  -2.751  -6.195  0.00  0.00    -0.269 OA
ATOM     24  N   UNL     1      -1.406  -2.047  -4.390  0.00  0.00    -0.305 N 
ATOM     25  H   UNL     1      -1.366  -1.655  -3.504  0.00  0.00    +0.150 HD
BRANCH  24  26
ATOM     26  C   UNL     1      -2.700  -2.410  -4.973  0.00  0.00    +0.027 C 
ATOM     27  C   UNL     1      -2.723  -3.911  -5.270  0.00  0.00    +0.031 C 
ATOM     28  C   UNL     1      -3.818  -2.068  -3.986  0.00  0.00    +0.031 C 
ATOM     29  C   UNL     1      -2.911  -1.630  -6.272  0.00  0.00    +0.031 C 
ENDBRANCH  24  26
ENDBRANCH   7  22
TORSDOF 5
