REMARK  Name = ZINC20504871
REMARK  3 active torsions:
REMARK  status: ('A' for Active; 'I' for Inactive)
REMARK    1  A    between atoms: C_5  and  N_8
REMARK    2  A    between atoms: N_8  and  S_9
REMARK    3  A    between atoms: S_9  and  N_12
REMARK                            x       y       z     vdW  Elec       q    Type
REMARK                         _______ _______ _______ _____ _____    ______ ____
ROOT
ATOM      1  S   UNL     1       0.065   2.264  -2.285  0.00  0.00    +0.131 S 
ATOM      2  O   UNL     1      -0.959   2.999  -2.941  0.00  0.00    -0.136 OA
ATOM      3  O   UNL     1       1.174   2.894  -1.660  0.00  0.00    -0.136 OA
ENDROOT
BRANCH   1   4
ATOM      4  N   UNL     1      -0.679   1.351  -1.121  0.00  0.00    -0.166 NA
ATOM      5  C   UNL     1       0.059   0.895   0.067  0.00  0.00    +0.092 C 
ATOM      6  C   UNL     1      -0.742   1.272   1.318  0.00  0.00    -0.065 C 
ATOM      7  N   UNL     1      -2.111   0.743   1.191  0.00  0.00    +0.381 N 
ATOM      8  C   UNL     1      -2.816   1.349   0.054  0.00  0.00    -0.065 C 
ATOM      9  C   UNL     1      -2.096   0.976  -1.246  0.00  0.00    +0.092 C 
ATOM     10  H   UNL     1      -2.071  -0.345   1.038  0.00  0.00    -0.086 HD
ATOM     11  H   UNL     1      -2.675   0.964   2.109  0.00  0.00    -0.086 HD
ENDBRANCH   1   4
BRANCH   1  12
ATOM     12  N   UNL     1       0.686   1.216  -3.406  0.00  0.00    -0.085 NA
BRANCH  12  17
ATOM     13  C   UNL     1      -1.142  -1.651  -4.807  0.00  0.00    +0.032 A 
ATOM     14  C   UNL     1      -1.876  -1.032  -5.803  0.00  0.00    +0.020 A 
ATOM     15  C   UNL     1      -1.762   0.332  -6.004  0.00  0.00    +0.032 A 
ATOM     16  C   UNL     1      -0.913   1.080  -5.211  0.00  0.00    +0.044 A 
ATOM     17  C   UNL     1      -0.174   0.461  -4.210  0.00  0.00    +0.103 A 
ATOM     18  C   UNL     1      -0.287  -0.909  -4.014  0.00  0.00    +0.044 A 
ATOM     19 BR   UNL     1       0.722  -1.758  -2.658  0.00  0.00    -0.048 Br
ATOM     20 BR   UNL     1      -0.757   2.945  -5.487  0.00  0.00    -0.048 Br
ATOM     21 BR   UNL     1      -3.039  -2.052  -6.891  0.00  0.00    -0.050 Br
ENDBRANCH  12  17
ENDBRANCH   1  12
TORSDOF 3
