REMARK  Name = ZINC42667427
REMARK  7 active torsions:
REMARK  status: ('A' for Active; 'I' for Inactive)
REMARK    1  A    between atoms: C_1  and  C_2
REMARK    2  A    between atoms: C_2  and  C_4
REMARK    3  A    between atoms: C_2  and  N_15
REMARK    4  A    between atoms: N_9  and  C_10
REMARK    5  A    between atoms: N_15  and  C_16
REMARK    6  A    between atoms: C_19  and  N_22
REMARK    7  A    between atoms: N_25  and  C_26
REMARK                            x       y       z     vdW  Elec       q    Type
REMARK                         _______ _______ _______ _____ _____    ______ ____
ROOT
ATOM      1  N   UNL     1      -1.372  -0.485   0.009  0.00  0.00    -0.333 N 
ATOM      2  H   UNL     1      -1.743  -0.836   0.834  0.00  0.00    +0.147 HD
ENDROOT
BRANCH   1   3
ATOM      3  C   UNL     1      -2.076  -0.628  -1.191  0.00  0.00    +0.028 A 
ATOM      4  C   UNL     1      -1.543  -0.131  -2.373  0.00  0.00    +0.025 A 
ATOM      5  C   UNL     1      -2.238  -0.273  -3.558  0.00  0.00    +0.025 A 
ATOM      6  C   UNL     1      -3.471  -0.911  -3.567  0.00  0.00    +0.035 A 
ATOM      7  C   UNL     1      -4.004  -1.408  -2.386  0.00  0.00    +0.025 A 
ATOM      8  C   UNL     1      -3.307  -1.272  -1.202  0.00  0.00    +0.025 A 
BRANCH   6   9
ATOM      9  N   UNL     1      -4.177  -1.054  -4.770  0.00  0.00    -0.269 N 
ATOM     10  C   UNL     1      -3.508  -1.223  -5.928  0.00  0.00    +0.304 C 
ATOM     11  O   UNL     1      -2.299  -1.348  -5.919  0.00  0.00    -0.253 OA
ATOM     12  N   UNL     1      -4.180  -1.253  -7.096  0.00  0.00    -0.296 N 
ATOM     13  H   UNL     1      -5.147  -1.032  -4.768  0.00  0.00    +0.156 HD
ATOM     14  H   UNL     1      -5.145  -1.153  -7.103  0.00  0.00    +0.151 HD
BRANCH  12  15
ATOM     15  C   UNL     1      -3.454  -1.436  -8.354  0.00  0.00    +0.075 C 
ATOM     16  C   UNL     1      -3.854  -0.551  -9.537  0.00  0.00    +0.024 C 
ATOM     17  C   UNL     1      -4.223  -2.036  -9.533  0.00  0.00    +0.024 C 
ENDBRANCH  12  15
ENDBRANCH   6   9
ENDBRANCH   1   3
BRANCH   1  19
ATOM     18  C   UNL     1      -0.290   1.705   0.137  0.00  0.00    +0.038 C 
ATOM     19  C   UNL     1      -0.074   0.195   0.020  0.00  0.00    +0.154 C 
BRANCH  19  20
ATOM     20  C   UNL     1       0.736  -0.289   1.195  0.00  0.00    +0.240 C 
ATOM     21  O   UNL     1       0.276  -1.120   1.948  0.00  0.00    -0.273 OA
ATOM     22  N   UNL     1       1.974   0.201   1.408  0.00  0.00    -0.239 N 
ATOM     23  C   UNL     1       2.699  -0.232   2.458  0.00  0.00    +0.306 C 
ATOM     24  O   UNL     1       2.236  -1.065   3.214  0.00  0.00    -0.252 OA
ATOM     25  N   UNL     1       3.936   0.258   2.671  0.00  0.00    -0.296 N 
ATOM     26  H   UNL     1       2.342   0.865   0.805  0.00  0.00    +0.159 HD
ATOM     27  H   UNL     1       4.304   0.922   2.068  0.00  0.00    +0.151 HD
BRANCH  25  28
ATOM     28  C   UNL     1       4.723  -0.212   3.813  0.00  0.00    +0.074 C 
ATOM     29  C   UNL     1       5.526  -1.470   3.420  0.00  0.00    +0.022 C 
ATOM     30  C   UNL     1       6.921  -0.923   3.028  0.00  0.00    +0.002 C 
ATOM     31  C   UNL     1       7.145   0.211   4.059  0.00  0.00    +0.002 C 
ATOM     32  C   UNL     1       5.753   0.857   4.220  0.00  0.00    +0.022 C 
ENDBRANCH  25  28
ENDBRANCH  19  20
ENDBRANCH   1  19
TORSDOF 6
