REMARK  Name = ZINC21364677
REMARK  13 active torsions:
REMARK  status: ('A' for Active; 'I' for Inactive)
REMARK    1  A    between atoms: C_1  and  C_2
REMARK    2  A    between atoms: C_2  and  C_3
REMARK    3  A    between atoms: C_3  and  C_4
REMARK    4  A    between atoms: C_4  and  N_5
REMARK    5  A    between atoms: N_5  and  C_6
REMARK    6  A    between atoms: N_5  and  C_8
REMARK    7  A    between atoms: C_6  and  C_7
REMARK    8  A    between atoms: C_8  and  C_9
REMARK    9  A    between atoms: C_9  and  N_10
REMARK   10  A    between atoms: C_16  and  C_30
REMARK   11  A    between atoms: C_19  and  C_20
REMARK   12  A    between atoms: C_19  and  C_21
REMARK   13  A    between atoms: N_23  and  C_24
REMARK                            x       y       z     vdW  Elec       q    Type
REMARK                         _______ _______ _______ _____ _____    ______ ____
ROOT
ATOM      1  N   UNL     1      -5.653   4.251   0.188  0.00  0.00    -0.282 N 
ATOM      2  C   UNL     1      -4.766   5.197  -0.197  0.00  0.00    +0.264 C 
ATOM      3  O   UNL     1      -5.126   6.302  -0.559  0.00  0.00    -0.268 OA
ATOM      4  C   UNL     1      -3.350   4.816  -0.170  0.00  0.00    +0.105 A 
ATOM      5  C   UNL     1      -2.218   5.566  -0.326  0.00  0.00    +0.033 A 
ATOM      6  C   UNL     1      -1.128   4.702  -0.215  0.00  0.00    +0.032 A 
ATOM      7  C   UNL     1      -1.621   3.425   0.008  0.00  0.00    +0.085 A 
ATOM      8  N   UNL     1      -2.975   3.490   0.021  0.00  0.00    -0.331 N 
ATOM      9  C   UNL     1      -3.968   2.425   0.189  0.00  0.00    +0.157 C 
ATOM     10  C   UNL     1      -5.227   3.012   0.828  0.00  0.00    +0.128 C 
ATOM     11  C   UNL     1      -4.947   3.289   2.307  0.00  0.00    +0.043 C 
ENDROOT
BRANCH   7  12
ATOM     12  C   UNL     1      -0.815   2.210   0.191  0.00  0.00    +0.151 A 
ATOM     13  C   UNL     1       0.546   2.155   0.268  0.00  0.00    +0.051 A 
ATOM     14  C   UNL     1       0.888   0.802   0.442  0.00  0.00    +0.042 A 
ATOM     15  C   UNL     1      -0.265   0.102   0.464  0.00  0.00    +0.196 A 
ATOM     16  O   UNL     1      -1.290   0.954   0.307  0.00  0.00    -0.461 OA
ENDBRANCH   7  12
BRANCH  10  17
ATOM     17  C   UNL     1      -6.342   2.003   0.724  0.00  0.00    +0.238 C 
ATOM     18  O   UNL     1      -6.695   1.387   1.707  0.00  0.00    -0.273 OA
ATOM     19  N   UNL     1      -6.946   1.787  -0.461  0.00  0.00    -0.311 N 
ATOM     20  H   UNL     1      -6.569   2.279  -1.369  0.00  0.00    +0.149 HD
BRANCH  19  21
ATOM     21  C   UNL     1      -8.107   0.896  -0.539  0.00  0.00    +0.073 C 
ATOM     22  C   UNL     1      -7.630  -0.551  -0.684  0.00  0.00    +0.022 C 
ATOM     23  C   UNL     1      -8.842  -1.481  -0.766  0.00  0.00    +0.002 C 
ATOM     24  C   UNL     1      -9.695  -1.102  -1.978  0.00  0.00    +0.000 C 
ATOM     25  C   UNL     1     -10.172   0.345  -1.833  0.00  0.00    +0.002 C 
ATOM     26  C   UNL     1      -8.960   1.275  -1.751  0.00  0.00    +0.022 C 
ENDBRANCH  19  21
ENDBRANCH  10  17
BRANCH   1  27
ATOM     27  C   UNL     1      -7.083   4.481  -0.036  0.00  0.00    +0.091 C 
BRANCH  27  28
ATOM     28  C   UNL     1      -7.649   5.323   1.109  0.00  0.00    -0.060 C 
BRANCH  28  29
ATOM     29  N   UNL     1      -9.083   5.553   0.884  0.00  0.00    +0.381 N 
ATOM     30  H   UNL     1      -9.558   4.577   0.705  0.00  0.00    -0.082 HD
BRANCH  29  31
ATOM     31  C   UNL     1      -9.302   6.387  -0.305  0.00  0.00    -0.082 C 
ATOM     32  C   UNL     1     -10.790   6.385  -0.662  0.00  0.00    -0.017 C 
ENDBRANCH  29  31
BRANCH  29  33
ATOM     33  C   UNL     1      -9.712   6.151   2.070  0.00  0.00    -0.079 C 
BRANCH  33  34
ATOM     34  C   UNL     1      -9.899   5.077   3.144  0.00  0.00    -0.019 C 
BRANCH  34  36
ATOM     35  C   UNL     1     -10.856   4.594   5.401  0.00  0.00    +0.004 C 
ATOM     36  C   UNL     1     -10.669   5.668   4.327  0.00  0.00    -0.005 C 
ENDBRANCH  34  36
ENDBRANCH  33  34
ENDBRANCH  29  33
ENDBRANCH  28  29
ENDBRANCH  27  28
ENDBRANCH   1  27
TORSDOF 10
