REMARK  Name = ZINC11830730
REMARK  5 active torsions:
REMARK  status: ('A' for Active; 'I' for Inactive)
REMARK    1  A    between atoms: C_1  and  C_2
REMARK    2  A    between atoms: C_2  and  C_4
REMARK    3  A    between atoms: C_2  and  O_16
REMARK    4  A    between atoms: O_16  and  C_17
REMARK    5  A    between atoms: C_17  and  C_19
REMARK                            x       y       z     vdW  Elec       q    Type
REMARK                         _______ _______ _______ _____ _____    ______ ____
ROOT
ATOM      1  C   UNL     1       2.678   1.241  -1.545  0.00  0.00    +0.062 C 
ATOM      2  C   UNL     1       2.382   1.145  -0.047  0.00  0.00    +0.259 C 
ENDROOT
BRANCH   2   3
ATOM      3  C   UNL     1       3.454   1.870   0.725  0.00  0.00    +0.260 C 
ATOM      4  O   UNL     1       3.192   2.904   1.302  0.00  0.00    -0.271 OA
ATOM      5  N   UNL     1       4.705   1.370   0.773  0.00  0.00    -0.268 N 
ATOM      6  C   UNL     1       5.053   0.155   0.024  0.00  0.00    +0.114 C 
ATOM      7  C   UNL     1       5.879  -0.747   0.944  0.00  0.00    +0.024 C 
ATOM      8  C   UNL     1       7.178  -0.030   1.308  0.00  0.00    +0.038 C 
ATOM      9  C   UNL     1       6.890   1.356   1.823  0.00  0.00    -0.026 A 
ATOM     10  C   UNL     1       5.694   1.998   1.543  0.00  0.00    +0.040 A 
ATOM     11  C   UNL     1       5.462   3.279   2.030  0.00  0.00    +0.024 A 
ATOM     12  C   UNL     1       6.422   3.913   2.793  0.00  0.00    +0.002 A 
ATOM     13  C   UNL     1       7.614   3.271   3.073  0.00  0.00    +0.000 A 
ATOM     14  C   UNL     1       7.847   1.998   2.590  0.00  0.00    +0.005 A 
ENDBRANCH   2   3
BRANCH   2  15
ATOM     15  O   UNL     1       1.092   1.750   0.232  0.00  0.00    -0.448 OA
BRANCH  15  16
ATOM     16  C   UNL     1       0.013   0.944   0.176  0.00  0.00    +0.356 C 
ATOM     17  O   UNL     1       0.146  -0.233  -0.099  0.00  0.00    -0.243 OA
BRANCH  16  18
ATOM     18  C   UNL     1      -1.326   1.488   0.440  0.00  0.00    +0.125 A 
ATOM     19  C   UNL     1      -2.486   0.780   0.408  0.00  0.00    +0.042 A 
ATOM     20  C   UNL     1      -3.542   1.669   0.720  0.00  0.00    +0.000 A 
ATOM     21  C   UNL     1      -4.930   1.512   0.835  0.00  0.00    +0.010 A 
ATOM     22  C   UNL     1      -5.710   2.584   1.155  0.00  0.00    +0.001 A 
ATOM     23  C   UNL     1      -5.142   3.833   1.371  0.00  0.00    +0.002 A 
ATOM     24  C   UNL     1      -3.781   4.013   1.264  0.00  0.00    +0.026 A 
ATOM     25  C   UNL     1      -2.964   2.935   0.938  0.00  0.00    +0.047 A 
ATOM     26  N   UNL     1      -1.606   2.801   0.767  0.00  0.00    -0.349 N 
ATOM     27  H   UNL     1      -0.953   3.513   0.858  0.00  0.00    +0.166 HD
ENDBRANCH  16  18
ENDBRANCH  15  16
ENDBRANCH   2  15
TORSDOF 4
