REMARK  Name = ZINC44004587
REMARK  5 active torsions:
REMARK  status: ('A' for Active; 'I' for Inactive)
REMARK    1  A    between atoms: C_10  and  C_11
REMARK    2  A    between atoms: C_11  and  N_12
REMARK    3  A    between atoms: N_15  and  C_16
REMARK    4  A    between atoms: C_16  and  C_17
REMARK    5  A    between atoms: N_25  and  C_26
REMARK                            x       y       z     vdW  Elec       q    Type
REMARK                         _______ _______ _______ _____ _____    ______ ____
ROOT
ATOM      1  N   UNL     1       5.258   0.605   1.324  0.00  0.00    -0.295 N 
ATOM      2  C   UNL     1       6.374   1.325   1.555  0.00  0.00    +0.300 C 
ATOM      3  O   UNL     1       7.122   1.599   0.636  0.00  0.00    -0.253 OA
ATOM      4  N   UNL     1       6.662   1.740   2.805  0.00  0.00    -0.299 N 
ATOM      5  H   UNL     1       4.662   0.387   2.057  0.00  0.00    +0.151 HD
ATOM      6  H   UNL     1       6.066   1.521   3.538  0.00  0.00    +0.150 HD
ENDROOT
BRANCH   1   7
ATOM      7  C   UNL     1       4.946   0.154  -0.034  0.00  0.00    +0.141 C 
BRANCH   7  17
ATOM      8  C   UNL     1      -0.033   1.341   0.038  0.00  0.00    +0.001 A 
ATOM      9  C   UNL     1       1.151   2.078   0.026  0.00  0.00    +0.001 A 
ATOM     10  C   UNL     1       2.362   1.457   0.007  0.00  0.00    +0.009 A 
ATOM     11  C   UNL     1       2.423   0.053  -0.001  0.00  0.00    -0.013 A 
ATOM     12  C   UNL     1       1.220  -0.696   0.011  0.00  0.00    -0.018 A 
ATOM     13  C   UNL     1      -0.012  -0.019   0.030  0.00  0.00    +0.008 A 
ATOM     14  C   UNL     1       1.281  -2.099   0.003  0.00  0.00    +0.008 A 
ATOM     15  C   UNL     1       2.493  -2.720  -0.016  0.00  0.00    +0.001 A 
ATOM     16  C   UNL     1       3.676  -1.984  -0.027  0.00  0.00    +0.006 A 
ATOM     17  C   UNL     1       3.655  -0.623  -0.021  0.00  0.00    -0.023 A 
ENDBRANCH   7  17
ENDBRANCH   1   7
BRANCH   4  18
ATOM     18  C   UNL     1       7.875   2.521   3.056  0.00  0.00    +0.109 C 
BRANCH  18  19
ATOM     19  C   UNL     1       7.963   2.862   4.545  0.00  0.00    +0.009 C 
ATOM     20  C   UNL     1       6.801   3.781   4.927  0.00  0.00    +0.024 C 
ATOM     21  C   UNL     1       6.873   4.092   6.426  0.00  0.00    +0.109 C 
ATOM     22  N   UNL     1       8.201   4.640   6.732  0.00  0.00    -0.285 N 
ATOM     23  C   UNL     1       9.390   3.878   6.325  0.00  0.00    +0.109 C 
ATOM     24  C   UNL     1       9.290   3.570   4.828  0.00  0.00    +0.024 C 
ATOM     25  C   UNL     1       8.327   5.819   7.373  0.00  0.00    +0.307 C 
ATOM     26  O   UNL     1       7.340   6.485   7.619  0.00  0.00    -0.252 OA
ATOM     27  N   UNL     1       9.546   6.259   7.741  0.00  0.00    -0.264 N 
ATOM     28  H   UNL     1      10.339   5.764   7.481  0.00  0.00    +0.157 HD
BRANCH  27  29
ATOM     29  C   UNL     1       9.668   7.428   8.497  0.00  0.00    +0.073 A 
ATOM     30  C   UNL     1      10.796   8.037   8.960  0.00  0.00    +0.031 A 
ATOM     31  C   UNL     1      10.670   9.201   9.697  0.00  0.00    +0.009 A 
ATOM     32  C   UNL     1       9.433   9.699   9.935  0.00  0.00    +0.047 A 
ATOM     33  S   UNL     1       8.388   8.516   9.101  0.00  0.00    -0.082 S 
ENDBRANCH  27  29
ENDBRANCH  18  19
ENDBRANCH   4  18
TORSDOF 5
