REMARK  Name = ZINC40004057
REMARK  14 active torsions:
REMARK  status: ('A' for Active; 'I' for Inactive)
REMARK    1  A    between atoms: C_1  and  C_2
REMARK    2  A    between atoms: C_2  and  C_3
REMARK    3  A    between atoms: C_3  and  C_4
REMARK    4  A    between atoms: C_4  and  O_5
REMARK    5  A    between atoms: O_5  and  C_6
REMARK    6  A    between atoms: C_9  and  C_12
REMARK    7  A    between atoms: C_14  and  C_28
REMARK    8  A    between atoms: N_18  and  C_19
REMARK    9  A    between atoms: C_19  and  C_20
REMARK   10  A    between atoms: C_20  and  C_21
REMARK   11  A    between atoms: C_21  and  N_22
REMARK   12  A    between atoms: C_28  and  C_30
REMARK   13  A    between atoms: C_31  and  C_40
REMARK   14  A    between atoms: C_38  and  C_39
REMARK                            x       y       z     vdW  Elec       q    Type
REMARK                         _______ _______ _______ _____ _____    ______ ____
ROOT
ATOM      1  C   UNL     1       1.994  -8.370   3.156  0.00  0.00    +0.145 C 
ATOM      2  C   UNL     1       0.982  -8.591   4.256  0.00  0.00    +0.078 C 
ATOM      3  C   UNL     1       1.677  -8.943   5.361  0.00  0.00    +0.249 C 
ATOM      4  C   UNL     1       3.117  -8.966   5.042  0.00  0.00    +0.288 C 
ATOM      5  O   UNL     1       4.001  -9.247   5.828  0.00  0.00    -0.266 OA
ATOM      6  N   UNL     1       3.309  -8.632   3.752  0.00  0.00    -0.283 N 
ATOM      7  O   UNL     1       1.137  -9.229   6.570  0.00  0.00    -0.282 OA
ENDROOT
BRANCH   1  11
ATOM      8  C   UNL     1       1.789  -4.336   1.760  0.00  0.00    +0.121 A 
ATOM      9  C   UNL     1       1.379  -5.377   0.940  0.00  0.00    +0.046 A 
ATOM     10  C   UNL     1       1.447  -6.680   1.393  0.00  0.00    +0.009 A 
ATOM     11  C   UNL     1       1.922  -6.947   2.664  0.00  0.00    -0.022 A 
ATOM     12  C   UNL     1       2.330  -5.912   3.484  0.00  0.00    +0.009 A 
ATOM     13  C   UNL     1       2.271  -4.607   3.032  0.00  0.00    +0.046 A 
BRANCH   8  14
ATOM     14  O   UNL     1       1.724  -3.053   1.316  0.00  0.00    -0.492 OA
BRANCH  14  15
ATOM     15  C   UNL     1       1.218  -2.849  -0.005  0.00  0.00    +0.229 C 
BRANCH  15  16
ATOM     16  C   UNL     1       1.220  -1.353  -0.326  0.00  0.00    +0.041 C 
BRANCH  16  18
ATOM     17  C   UNL     1       0.681   0.362  -2.061  0.00  0.00    +0.004 C 
ATOM     18  C   UNL     1       0.678  -1.134  -1.740  0.00  0.00    -0.000 C 
ENDBRANCH  16  18
ENDBRANCH  15  16
ENDBRANCH  14  15
ENDBRANCH   8  14
ENDBRANCH   1  11
BRANCH   2  19
ATOM     19  C   UNL     1      -0.476  -8.450   4.147  0.00  0.00    +0.213 C 
ATOM     20  O   UNL     1      -0.986  -7.343   4.181  0.00  0.00    -0.285 OA
BRANCH  19  21
ATOM     21  C   UNL     1      -1.289  -9.601   4.001  0.00  0.00    +0.116 A 
ATOM     22  C   UNL     1      -0.859 -10.920   3.921  0.00  0.00    +0.068 A 
ATOM     23  N   UNL     1      -1.923 -11.693   3.791  0.00  0.00    -0.232 NA
ATOM     24  C   UNL     1      -3.027 -10.947   3.782  0.00  0.00    +0.141 A 
ATOM     25  N   UNL     1      -2.670  -9.636   3.917  0.00  0.00    -0.296 N 
ATOM     26  C   UNL     1      -3.614  -8.658   3.944  0.00  0.00    +0.093 A 
ATOM     27  C   UNL     1      -4.928  -8.965   3.841  0.00  0.00    +0.018 A 
ATOM     28  C   UNL     1      -5.328 -10.301   3.704  0.00  0.00    +0.008 A 
ATOM     29  C   UNL     1      -4.386 -11.287   3.668  0.00  0.00    -0.008 A 
ATOM     30  C   UNL     1      -4.800 -12.729   3.524  0.00  0.00    +0.047 C 
ATOM     31  C   UNL     1       0.573 -11.387   3.973  0.00  0.00    +0.068 C 
ENDBRANCH  19  21
ENDBRANCH   2  19
BRANCH   6  32
ATOM     32  C   UNL     1       4.600  -8.546   3.064  0.00  0.00    +0.111 C 
BRANCH  32  33
ATOM     33  C   UNL     1       5.156  -7.127   3.200  0.00  0.00    +0.040 C 
BRANCH  33  34
ATOM     34  C   UNL     1       6.504  -7.036   2.482  0.00  0.00    +0.124 C 
BRANCH  34  35
ATOM     35  N   UNL     1       7.037  -5.678   2.612  0.00  0.00    -0.338 N 
ATOM     36  C   UNL     1       6.812  -4.632   1.758  0.00  0.00    +0.104 A 
ATOM     37  C   UNL     1       7.486  -3.575   2.251  0.00  0.00    +0.101 A 
ATOM     38  N   UNL     1       8.104  -3.965   3.375  0.00  0.00    -0.352 N 
ATOM     39  C   UNL     1       7.836  -5.222   3.601  0.00  0.00    +0.173 A 
ATOM     40  H   UNL     1       8.661  -3.400   3.935  0.00  0.00    +0.166 HD
ENDBRANCH  34  35
ENDBRANCH  33  34
ENDBRANCH  32  33
ENDBRANCH   6  32
TORSDOF 11
