REMARK  Name = ZINC04761178
REMARK  14 active torsions:
REMARK  status: ('A' for Active; 'I' for Inactive)
REMARK    1  A    between atoms: C_1  and  C_2
REMARK    2  A    between atoms: C_2  and  N_3
REMARK    3  A    between atoms: N_3  and  C_4
REMARK    4  A    between atoms: N_3  and  C_6
REMARK    5  A    between atoms: C_4  and  C_5
REMARK    6  A    between atoms: C_9  and  C_12
REMARK    7  A    between atoms: C_17  and  C_27
REMARK    8  A    between atoms: C_19  and  C_23
REMARK    9  A    between atoms: C_23  and  O_25
REMARK   10  A    between atoms: O_25  and  C_26
REMARK   11  A    between atoms: C_29  and  C_39
REMARK   12  A    between atoms: C_30  and  C_31
REMARK   13  A    between atoms: C_31  and  O_33
REMARK   14  A    between atoms: O_33  and  C_34
REMARK                            x       y       z     vdW  Elec       q    Type
REMARK                         _______ _______ _______ _____ _____    ______ ____
ROOT
ATOM      1  C   UNL     1       1.071   3.851   0.081  0.00  0.00    +0.092 C 
ATOM      2  C   UNL     1       1.915   4.132   1.300  0.00  0.00    +0.025 C 
ATOM      3  C   UNL     1       3.236   4.384   1.181  0.00  0.00    +0.016 C 
ATOM      4  C   UNL     1       4.085   4.671   2.394  0.00  0.00    +0.055 C 
ATOM      5  C   UNL     1       3.518   3.927   3.606  0.00  0.00    +0.013 C 
ATOM      6  C   UNL     1       2.069   4.378   3.819  0.00  0.00    +0.171 C 
ATOM      7  C   UNL     1       1.288   4.124   2.558  0.00  0.00    +0.176 C 
ATOM      8  O   UNL     1       0.095   3.908   2.629  0.00  0.00    -0.291 OA
ATOM      9  C   UNL     1       3.555   2.420   3.347  0.00  0.00    +0.009 C 
ATOM     10  N   UNL     1       3.834   4.388  -0.051  0.00  0.00    -0.321 N 
ATOM     11  C   UNL     1       3.088   4.544  -1.186  0.00  0.00    +0.016 C 
ATOM     12  C   UNL     1       1.766   4.303  -1.170  0.00  0.00    +0.065 C 
ATOM     13  C   UNL     1       3.753   4.988  -2.463  0.00  0.00    +0.061 C 
ATOM     14  H   UNL     1       4.924   4.266  -0.134  0.00  0.00    +0.152 HD
ENDROOT
BRANCH   1  18
ATOM     15  C   UNL     1       0.322  -0.349  -0.169  0.00  0.00    +0.030 A 
ATOM     16  C   UNL     1      -0.736   0.540  -0.028  0.00  0.00    +0.023 A 
ATOM     17  C   UNL     1      -0.491   1.896   0.053  0.00  0.00    +0.006 A 
ATOM     18  C   UNL     1       0.807   2.370  -0.007  0.00  0.00    -0.035 A 
ATOM     19  C   UNL     1       1.863   1.488  -0.147  0.00  0.00    +0.006 A 
ATOM     20  C   UNL     1       1.624   0.131  -0.228  0.00  0.00    +0.023 A 
BRANCH  15  21
ATOM     21  N   UNL     1       0.077  -1.722  -0.251  0.00  0.00    -0.330 N 
BRANCH  21  23
ATOM     22  C   UNL     1       1.688  -3.087   0.984  0.00  0.00    +0.024 C 
ATOM     23  C   UNL     1       1.194  -2.658  -0.399  0.00  0.00    +0.102 C 
ENDBRANCH  21  23
BRANCH  21  24
ATOM     24  C   UNL     1      -1.297  -2.226  -0.187  0.00  0.00    +0.102 C 
ATOM     25  C   UNL     1      -1.879  -2.297  -1.600  0.00  0.00    +0.024 C 
ENDBRANCH  21  24
ENDBRANCH  15  21
ENDBRANCH   1  18
BRANCH   6  26
ATOM     26  C   UNL     1       1.461   3.599   4.957  0.00  0.00    +0.318 C 
ATOM     27  O   UNL     1       2.118   2.769   5.540  0.00  0.00    -0.250 OA
BRANCH  26  28
ATOM     28  O   UNL     1       0.191   3.828   5.324  0.00  0.00    -0.467 OA
ATOM     29  C   UNL     1      -0.329   3.042   6.428  0.00  0.00    +0.280 C 
ENDBRANCH  26  28
ENDBRANCH   6  26
BRANCH  12  30
ATOM     30  C   UNL     1       1.014   4.479  -2.355  0.00  0.00    +0.338 C 
ATOM     31  O   UNL     1       1.538   4.961  -3.342  0.00  0.00    -0.245 OA
BRANCH  30  32
ATOM     32  O   UNL     1      -0.284   4.113  -2.392  0.00  0.00    -0.458 OA
BRANCH  32  33
ATOM     33  C   UNL     1      -0.983   4.320  -3.621  0.00  0.00    +0.177 C 
ATOM     34  C   UNL     1      -1.671   5.700  -3.613  0.00  0.00    +0.044 C 
ATOM     35  C   UNL     1      -3.012   5.460  -4.350  0.00  0.00    +0.004 C 
ATOM     36  C   UNL     1      -3.428   4.052  -3.856  0.00  0.00    +0.004 C 
ATOM     37  C   UNL     1      -2.099   3.272  -3.776  0.00  0.00    +0.044 C 
ENDBRANCH  32  33
ENDBRANCH  30  32
ENDBRANCH  12  30
TORSDOF 9
