REMARK  Name = ZINC36702549
REMARK  14 active torsions:
REMARK  status: ('A' for Active; 'I' for Inactive)
REMARK    1  A    between atoms: C_1  and  C_2
REMARK    2  A    between atoms: C_2  and  N_3
REMARK    3  A    between atoms: N_3  and  C_4
REMARK    4  A    between atoms: N_3  and  S_6
REMARK    5  A    between atoms: C_4  and  C_5
REMARK    6  A    between atoms: S_6  and  C_9
REMARK    7  A    between atoms: C_12  and  C_15
REMARK    8  A    between atoms: N_17  and  C_18
REMARK    9  A    between atoms: C_18  and  C_19
REMARK   10  A    between atoms: C_19  and  N_20
REMARK   11  A    between atoms: N_20  and  C_21
REMARK   12  A    between atoms: N_20  and  C_22
REMARK   13  A    between atoms: C_26  and  O_33
REMARK   14  A    between atoms: O_33  and  C_34
REMARK                            x       y       z     vdW  Elec       q    Type
REMARK                         _______ _______ _______ _____ _____    ______ ____
ROOT
ATOM      1  C   UNL     1      -0.596   3.797  -5.596  0.00  0.00    +0.252 C 
ATOM      2  O   UNL     1      -1.663   4.333  -5.366  0.00  0.00    -0.270 OA
ATOM      3  N   UNL     1       0.191   4.261  -6.588  0.00  0.00    -0.248 N 
ATOM      4  C   UNL     1      -0.156   5.419  -7.264  0.00  0.00    +0.168 A 
ATOM      5  N   UNL     1      -1.196   6.198  -7.082  0.00  0.00    -0.221 NA
ATOM      6  C   UNL     1      -1.411   7.308  -7.822  0.00  0.00    +0.123 A 
ATOM      7  C   UNL     1      -2.486   8.228  -7.730  0.00  0.00    +0.147 A 
ATOM      8  C   UNL     1      -2.553   9.315  -8.569  0.00  0.00    +0.049 A 
ATOM      9  C   UNL     1      -1.579   9.549  -9.529  0.00  0.00    +0.025 A 
ATOM     10  C   UNL     1      -0.516   8.671  -9.645  0.00  0.00    +0.057 A 
ATOM     11  C   UNL     1      -0.440   7.581  -8.811  0.00  0.00    +0.063 A 
ATOM     12  S   UNL     1       0.703   6.237  -8.600  0.00  0.00    -0.050 S 
ATOM     13 CL   UNL     1       0.714   8.943 -10.839  0.00  0.00    -0.082 Cl
ENDROOT
BRANCH   1  17
ATOM     14  C   UNL     1       0.651   0.466  -3.277  0.00  0.00    +0.106 A 
ATOM     15  C   UNL     1       0.776   0.431  -4.654  0.00  0.00    +0.029 A 
ATOM     16  C   UNL     1       0.372   1.510  -5.414  0.00  0.00    +0.015 A 
ATOM     17  C   UNL     1      -0.163   2.638  -4.789  0.00  0.00    +0.037 A 
ATOM     18  C   UNL     1      -0.285   2.666  -3.399  0.00  0.00    +0.015 A 
ATOM     19  C   UNL     1       0.117   1.578  -2.652  0.00  0.00    +0.029 A 
BRANCH  14  20
ATOM     20  S   UNL     1       1.169  -0.917  -2.314  0.00  0.00    +0.061 S 
ATOM     21  O   UNL     1       1.448  -0.423  -1.011  0.00  0.00    -0.153 OA
ATOM     22  O   UNL     1       2.137  -1.611  -3.089  0.00  0.00    -0.153 OA
BRANCH  20  23
ATOM     23  N   UNL     1      -0.135  -1.927  -2.168  0.00  0.00    -0.177 NA
BRANCH  23  25
ATOM     24  C   UNL     1      -1.334  -2.474  -4.228  0.00  0.00    +0.022 C 
ATOM     25  C   UNL     1      -0.360  -2.980  -3.162  0.00  0.00    +0.106 C 
ENDBRANCH  23  25
BRANCH  23  26
ATOM     26  C   UNL     1      -1.062  -1.769  -1.046  0.00  0.00    +0.106 C 
ATOM     27  C   UNL     1      -0.662  -2.719   0.085  0.00  0.00    +0.022 C 
ENDBRANCH  23  26
ENDBRANCH  20  23
ENDBRANCH  14  20
ENDBRANCH   1  17
BRANCH   7  28
ATOM     28  O   UNL     1      -3.460   8.033  -6.802  0.00  0.00    -0.493 OA
ATOM     29  C   UNL     1      -4.516   8.995  -6.758  0.00  0.00    +0.277 C 
ENDBRANCH   7  28
BRANCH   3  30
ATOM     30  C   UNL     1       1.413   3.539  -6.950  0.00  0.00    +0.097 C 
BRANCH  30  31
ATOM     31  C   UNL     1       1.141   2.654  -8.168  0.00  0.00    -0.060 C 
BRANCH  31  32
ATOM     32  N   UNL     1       2.326   1.833  -8.452  0.00  0.00    +0.377 N 
ATOM     33  C   UNL     1       2.024   0.899  -9.544  0.00  0.00    -0.097 C 
ATOM     34  C   UNL     1       3.442   2.704  -8.845  0.00  0.00    -0.097 C 
ATOM     35  H   UNL     1       2.580   1.313  -7.625  0.00  0.00    -0.083 HD
ENDBRANCH  31  32
ENDBRANCH  30  31
ENDBRANCH   3  30
TORSDOF 9
