REMARK  Name = ZINC09222859
REMARK  11 active torsions:
REMARK  status: ('A' for Active; 'I' for Inactive)
REMARK    1  A    between atoms: C_1  and  C_2
REMARK    2  A    between atoms: C_2  and  C_3
REMARK    3  A    between atoms: C_2  and  C_4
REMARK    4  A    between atoms: C_4  and  N_5
REMARK    5  A    between atoms: C_6  and  C_8
REMARK    6  A    between atoms: C_13  and  N_14
REMARK    7  A    between atoms: C_15  and  C_17
REMARK    8  A    between atoms: C_17  and  S_18
REMARK    9  A    between atoms: S_18  and  C_19
REMARK   10  A    between atoms: C_22  and  C_30
REMARK   11  A    between atoms: N_23  and  C_24
REMARK                            x       y       z     vdW  Elec       q    Type
REMARK                         _______ _______ _______ _____ _____    ______ ____
ROOT
ATOM      1  N   UNL     1      -3.809   2.931   0.221  0.00  0.00    -0.284 N 
ATOM      2  C   UNL     1      -5.002   3.526   0.425  0.00  0.00    +0.228 C 
ATOM      3  O   UNL     1      -5.992   2.851   0.611  0.00  0.00    -0.275 OA
ATOM      4  H   UNL     1      -3.005   3.468   0.149  0.00  0.00    +0.155 HD
ENDROOT
BRANCH   1  10
ATOM      5  C   UNL     1      -2.616   0.860   0.618  0.00  0.00    +0.058 A 
ATOM      6  C   UNL     1      -2.548  -0.530   0.500  0.00  0.00    +0.015 A 
ATOM      7  C   UNL     1      -3.579  -1.220  -0.099  0.00  0.00    +0.001 A 
ATOM      8  C   UNL     1      -4.681  -0.541  -0.594  0.00  0.00    +0.002 A 
ATOM      9  C   UNL     1      -4.760   0.833  -0.489  0.00  0.00    +0.024 A 
ATOM     10  C   UNL     1      -3.732   1.544   0.115  0.00  0.00    +0.046 A 
BRANCH   5  12
ATOM     11  N   UNL     1      -0.494   0.937   1.832  0.00  0.00    -0.311 N 
ATOM     12  C   UNL     1      -1.517   1.604   1.262  0.00  0.00    +0.246 C 
ATOM     13  O   UNL     1      -1.534   2.820   1.278  0.00  0.00    -0.270 OA
ATOM     14  H   UNL     1      -0.480  -0.033   1.818  0.00  0.00    +0.149 HD
BRANCH  11  15
ATOM     15  C   UNL     1       0.600   1.677   2.466  0.00  0.00    +0.107 C 
BRANCH  15  17
ATOM     16  C   UNL     1       2.273  -0.081   1.871  0.00  0.00    +0.009 C 
ATOM     17  C   UNL     1       1.626   0.689   3.024  0.00  0.00    -0.000 C 
ATOM     18  C   UNL     1       2.704   1.455   3.794  0.00  0.00    +0.009 C 
ENDBRANCH  15  17
ENDBRANCH  11  15
ENDBRANCH   5  12
ENDBRANCH   1  10
BRANCH   2  19
ATOM     19  C   UNL     1      -5.104   5.029   0.421  0.00  0.00    +0.173 C 
BRANCH  19  20
ATOM     20  S   UNL     1      -6.821   5.518   0.720  0.00  0.00    -0.077 S 
BRANCH  20  21
ATOM     21  C   UNL     1      -6.654   7.271   0.665  0.00  0.00    +0.193 A 
ATOM     22  N   UNL     1      -5.542   7.942   0.463  0.00  0.00    -0.122 NA
ATOM     23  N   UNL     1      -5.777   9.205   0.481  0.00  0.00    -0.125 NA
ATOM     24  C   UNL     1      -7.055   9.420   0.706  0.00  0.00    +0.201 A 
ATOM     25  N   UNL     1      -7.655   8.187   0.830  0.00  0.00    -0.297 N 
BRANCH  25  26
ATOM     26  C   UNL     1      -9.072   7.912   1.085  0.00  0.00    +0.091 C 
ATOM     27  C   UNL     1      -9.212   7.127   2.391  0.00  0.00    +0.025 C 
ATOM     28  C   UNL     1     -10.691   6.840   2.657  0.00  0.00    +0.002 C 
ATOM     29  C   UNL     1     -11.268   6.019   1.503  0.00  0.00    +0.000 C 
ATOM     30  C   UNL     1     -11.128   6.805   0.198  0.00  0.00    +0.002 C 
ATOM     31  C   UNL     1      -9.649   7.091  -0.069  0.00  0.00    +0.025 C 
ENDBRANCH  25  26
BRANCH  24  32
ATOM     32  C   UNL     1      -7.718  10.730   0.805  0.00  0.00    +0.172 A 
ATOM     33  C   UNL     1      -7.096  11.931   0.968  0.00  0.00    +0.053 A 
ATOM     34  C   UNL     1      -8.108  12.909   1.012  0.00  0.00    +0.042 A 
ATOM     35  C   UNL     1      -9.285  12.267   0.877  0.00  0.00    +0.196 A 
ATOM     36  O   UNL     1      -9.046  10.951   0.747  0.00  0.00    -0.460 OA
ENDBRANCH  24  32
ENDBRANCH  20  21
ENDBRANCH  19  20
ENDBRANCH   2  19
TORSDOF 9
