REMARK  Name = ZINC09579849
REMARK  11 active torsions:
REMARK  status: ('A' for Active; 'I' for Inactive)
REMARK    1  A    between atoms: C_1  and  C_2
REMARK    2  A    between atoms: C_2  and  C_3
REMARK    3  A    between atoms: C_2  and  O_4
REMARK    4  A    between atoms: O_4  and  C_5
REMARK    5  A    between atoms: C_8  and  S_26
REMARK    6  A    between atoms: C_10  and  N_11
REMARK    7  A    between atoms: C_12  and  C_14
REMARK    8  A    between atoms: C_14  and  N_70
REMARK    9  A    between atoms: C_18  and  C_20
REMARK   10  A    between atoms: N_24  and  C_25
REMARK   11  A    between atoms: S_26  and  N_29
REMARK                            x       y       z     vdW  Elec       q    Type
REMARK                         _______ _______ _______ _____ _____    ______ ____
ROOT
ATOM      1  C   UNL     1       5.350  -4.628   1.823  0.00  0.00    +0.142 A 
ATOM      2  C   UNL     1       6.340  -4.959   2.735  0.00  0.00    +0.049 A 
ATOM      3  C   UNL     1       6.494  -4.214   3.889  0.00  0.00    +0.032 A 
ATOM      4  C   UNL     1       5.662  -3.138   4.138  0.00  0.00    +0.107 A 
ATOM      5  C   UNL     1       4.675  -2.799   3.232  0.00  0.00    +0.055 A 
ATOM      6  C   UNL     1       4.511  -3.545   2.074  0.00  0.00    +0.077 A 
ENDROOT
BRANCH   6   7
ATOM      7  N   UNL     1       3.508  -3.206   1.156  0.00  0.00    -0.284 N 
ATOM      8  C   UNL     1       2.418  -2.528   1.569  0.00  0.00    +0.201 C 
ATOM      9  O   UNL     1       2.255  -2.304   2.749  0.00  0.00    -0.278 OA
ATOM     10  H   UNL     1       3.598  -3.459   0.224  0.00  0.00    +0.155 HD
BRANCH   8  11
ATOM     11  C   UNL     1       1.403  -2.050   0.563  0.00  0.00    +0.020 C 
BRANCH  11  16
ATOM     12  C   UNL     1       0.793  -0.065   1.816  0.00  0.00    -0.077 C 
ATOM     13  C   UNL     1      -0.102   1.048   1.232  0.00  0.00    -0.020 C 
ATOM     14  C   UNL     1      -1.388   0.283   0.824  0.00  0.00    -0.011 C 
ATOM     15  C   UNL     1      -0.809  -1.070   0.343  0.00  0.00    -0.020 C 
ATOM     16  N   UNL     1       0.305  -1.343   1.272  0.00  0.00    +0.391 N 
ATOM     17  H   UNL     1      -0.031  -1.933   2.042  0.00  0.00    -0.080 HD
BRANCH  15  18
ATOM     18  C   UNL     1      -1.849  -2.155   0.452  0.00  0.00    +0.005 A 
ATOM     19  C   UNL     1      -1.719  -3.310   1.135  0.00  0.00    +0.021 A 
ATOM     20  C   UNL     1      -2.919  -4.031   0.978  0.00  0.00    +0.019 A 
ATOM     21  C   UNL     1      -3.734  -3.293   0.197  0.00  0.00    +0.085 A 
ATOM     22  N   UNL     1      -3.083  -2.140  -0.130  0.00  0.00    -0.355 N 
ATOM     23  C   UNL     1      -3.620  -1.064  -0.966  0.00  0.00    +0.148 C 
ENDBRANCH  15  18
ENDBRANCH  11  16
ENDBRANCH   8  11
ENDBRANCH   6   7
BRANCH   4  24
ATOM     24  S   UNL     1       5.864  -2.194   5.612  0.00  0.00    +0.061 S 
ATOM     25  O   UNL     1       4.611  -1.575   5.873  0.00  0.00    -0.153 OA
ATOM     26  O   UNL     1       6.505  -3.043   6.554  0.00  0.00    -0.153 OA
BRANCH  24  27
ATOM     27  N   UNL     1       6.931  -0.975   5.270  0.00  0.00    -0.177 NA
ATOM     28  C   UNL     1       8.375  -1.167   5.467  0.00  0.00    +0.109 C 
ATOM     29  C   UNL     1       9.097  -0.819   4.157  0.00  0.00    +0.017 C 
ATOM     30  C   UNL     1       8.704   0.595   3.724  0.00  0.00    +0.003 C 
ATOM     31  C   UNL     1       7.196   0.654   3.473  0.00  0.00    +0.017 C 
ATOM     32  C   UNL     1       6.453   0.321   4.770  0.00  0.00    +0.109 C 
ENDBRANCH  24  27
ENDBRANCH   4  24
BRANCH   1  33
ATOM     33  O   UNL     1       5.197  -5.360   0.687  0.00  0.00    -0.488 OA
BRANCH  33  35
ATOM     34  C   UNL     1       5.227  -7.612  -0.190  0.00  0.00    +0.051 C 
ATOM     35  C   UNL     1       6.010  -6.528   0.554  0.00  0.00    +0.167 C 
ATOM     36  C   UNL     1       7.275  -6.182  -0.234  0.00  0.00    +0.051 C 
ENDBRANCH  33  35
ENDBRANCH   1  33
TORSDOF 8
