REMARK  Name = ZINC61534036
REMARK  6 active torsions:
REMARK  status: ('A' for Active; 'I' for Inactive)
REMARK    1  A    between atoms: C_1  and  C_2
REMARK    2  A    between atoms: C_2  and  N_3
REMARK    3  A    between atoms: C_4  and  C_6
REMARK    4  A    between atoms: C_12  and  C_14
REMARK    5  A    between atoms: C_14  and  C_15
REMARK    6  A    between atoms: C_16  and  C_21
REMARK                            x       y       z     vdW  Elec       q    Type
REMARK                         _______ _______ _______ _____ _____    ______ ____
ROOT
ATOM      1  C   UNL     1       1.583  -2.313   2.615  0.00  0.00    +0.092 C 
ATOM      2  C   UNL     1       1.600  -3.843   2.609  0.00  0.00    +0.016 C 
ATOM      3  C   UNL     1       2.369  -4.351   3.831  0.00  0.00    +0.020 C 
ATOM      4  C   UNL     1       1.661  -3.880   5.106  0.00  0.00    +0.108 C 
ATOM      5  N   UNL     1       1.510  -2.420   5.051  0.00  0.00    -0.300 N 
ATOM      6  C   UNL     1       0.866  -1.819   3.875  0.00  0.00    +0.120 C 
ATOM      7  C   UNL     1       1.955  -1.646   6.061  0.00  0.00    +0.220 C 
ATOM      8  O   UNL     1       1.825  -0.441   6.004  0.00  0.00    -0.275 OA
ENDROOT
BRANCH   1  10
ATOM      9  N   UNL     1       0.711  -0.489   1.189  0.00  0.00    -0.315 N 
ATOM     10  C   UNL     1       0.854  -1.814   1.394  0.00  0.00    +0.218 C 
ATOM     11  O   UNL     1       0.396  -2.604   0.595  0.00  0.00    -0.275 OA
ATOM     12  H   UNL     1       1.077   0.142   1.827  0.00  0.00    +0.149 HD
BRANCH   9  14
ATOM     13  C   UNL     1      -0.019   1.526   0.010  0.00  0.00    +0.024 C 
ATOM     14  C   UNL     1       0.002  -0.004   0.002  0.00  0.00    +0.101 C 
ENDBRANCH   9  14
ENDBRANCH   1  10
BRANCH   7  15
ATOM     15  C   UNL     1       2.613  -2.276   7.261  0.00  0.00    +0.140 C 
BRANCH  15  16
ATOM     16  C   UNL     1       3.015  -1.201   8.237  0.00  0.00    +0.022 A 
ATOM     17  C   UNL     1       2.318  -0.667   9.269  0.00  0.00    +0.050 A 
ATOM     18  N   UNL     1       2.917   0.276   9.974  0.00  0.00    -0.237 NA
ATOM     19  C   UNL     1       4.138   0.673   9.680  0.00  0.00    +0.146 A 
ATOM     20  S   UNL     1       5.113   1.902  10.481  0.00  0.00    -0.023 SA
ATOM     21  S   UNL     1       4.543  -0.286   8.357  0.00  0.00    -0.064 S 
ATOM     22  C   UNL     1       0.921  -1.127   9.597  0.00  0.00    +0.066 C 
ENDBRANCH  15  16
ENDBRANCH   7  15
TORSDOF 4
