REMARK  Name = ZINC01689002
REMARK  6 active torsions:
REMARK  status: ('A' for Active; 'I' for Inactive)
REMARK    1  A    between atoms: C_1  and  C_2
REMARK    2  A    between atoms: C_2  and  C_3
REMARK    3  A    between atoms: C_2  and  C_4
REMARK    4  A    between atoms: C_4  and  C_6
REMARK    5  A    between atoms: C_9  and  C_12
REMARK    6  A    between atoms: C_15  and  N_18
REMARK                            x       y       z     vdW  Elec       q    Type
REMARK                         _______ _______ _______ _____ _____    ______ ____
ROOT
ATOM      1  C   UNL     1      -1.293   1.885  -0.251  0.00  0.00    +0.019 A 
ATOM      2  C   UNL     1      -1.343   3.282  -0.331  0.00  0.00    +0.012 A 
ATOM      3  C   UNL     1      -2.536   3.911  -0.579  0.00  0.00    +0.009 A 
ATOM      4  C   UNL     1      -3.702   3.161  -0.740  0.00  0.00    -0.018 A 
ATOM      5  C   UNL     1      -3.655   1.768  -0.654  0.00  0.00    +0.009 A 
ATOM      6  C   UNL     1      -2.464   1.135  -0.412  0.00  0.00    +0.012 A 
ENDROOT
BRANCH   4   7
ATOM      7  C   UNL     1      -4.991   3.843  -1.001  0.00  0.00    -0.018 A 
ATOM      8  C   UNL     1      -6.157   3.097  -1.168  0.00  0.00    +0.011 A 
ATOM      9  C   UNL     1      -7.355   3.738  -1.407  0.00  0.00    +0.033 A 
ATOM     10  C   UNL     1      -7.400   5.118  -1.491  0.00  0.00    +0.126 A 
ATOM     11  C   UNL     1      -6.245   5.864  -1.332  0.00  0.00    +0.033 A 
ATOM     12  C   UNL     1      -5.042   5.234  -1.088  0.00  0.00    +0.011 A 
BRANCH  10  13
ATOM     13  N   UNL     1      -8.687   5.800  -1.753  0.00  0.00    +0.056 N 
ATOM     14  O   UNL     1      -8.729   7.015  -1.828  0.00  0.00    -0.126 OA
ATOM     15  O   UNL     1      -9.705   5.146  -1.893  0.00  0.00    -0.126 OA
ENDBRANCH  10  13
ENDBRANCH   4   7
BRANCH   1  16
ATOM     16  C   UNL     1      -0.014   1.209   0.009  0.00  0.00    +0.179 C 
ATOM     17  O   UNL     1       1.016   1.847   0.031  0.00  0.00    -0.291 OA
BRANCH  16  19
ATOM     18  C   UNL     1      -0.247  -1.016  -1.061  0.00  0.00    +0.031 C 
ATOM     19  C   UNL     1       0.015  -0.278   0.253  0.00  0.00    +0.083 C 
ATOM     20  C   UNL     1       1.388  -0.678   0.798  0.00  0.00    +0.031 C 
ATOM     21 BR   UNL     1      -1.373  -0.755   1.561  0.00  0.00    -0.077 Br
ENDBRANCH  16  19
ENDBRANCH   1  16
TORSDOF 4
