REMARK  Name = ZINC12832914
REMARK  12 active torsions:
REMARK  status: ('A' for Active; 'I' for Inactive)
REMARK    1  A    between atoms: C_1  and  C_2
REMARK    2  A    between atoms: C_7  and  C_15
REMARK    3  A    between atoms: C_13  and  C_14
REMARK    4  A    between atoms: C_15  and  N_59
REMARK    5  A    between atoms: C_16  and  C_17
REMARK    6  A    between atoms: C_16  and  N_59
REMARK    7  A    between atoms: C_22  and  C_23
REMARK    8  A    between atoms: C_22  and  N_59
REMARK    9  A    between atoms: N_27  and  C_28
REMARK   10  A    between atoms: C_28  and  C_29
REMARK   11  A    between atoms: C_28  and  C_30
REMARK   12  A    between atoms: C_28  and  C_31
REMARK                            x       y       z     vdW  Elec       q    Type
REMARK                         _______ _______ _______ _____ _____    ______ ____
ROOT
ATOM      1  N   UNL     1       3.083   1.638  -0.583  0.00  0.00    +0.390 N 
ATOM      2  H   UNL     1       2.704   2.475  -1.042  0.00  0.00    -0.080 HD
ENDROOT
BRANCH   1   3
ATOM      3  C   UNL     1       2.325   0.455  -1.040  0.00  0.00    -0.036 C 
BRANCH   3  10
ATOM      4  C   UNL     1      -5.260   2.561  -2.324  0.00  0.00    +0.044 C 
ATOM      5  C   UNL     1      -3.794   2.213  -2.308  0.00  0.00    -0.046 A 
ATOM      6  C   UNL     1      -3.046   2.333  -3.471  0.00  0.00    +0.004 A 
ATOM      7  C   UNL     1      -1.716   2.022  -3.478  0.00  0.00    +0.010 A 
ATOM      8  C   UNL     1      -1.101   1.579  -2.301  0.00  0.00    -0.001 A 
ATOM      9  C   UNL     1       0.323   1.243  -2.272  0.00  0.00    +0.017 A 
ATOM     10  C   UNL     1       0.863   0.814  -1.104  0.00  0.00    +0.001 A 
ATOM     11  C   UNL     1       0.062   0.707   0.053  0.00  0.00    +0.251 A 
ATOM     12  O   UNL     1       0.568   0.324   1.093  0.00  0.00    -0.268 OA
ATOM     13  N   UNL     1      -1.246   1.018   0.036  0.00  0.00    -0.322 N 
ATOM     14  H   UNL     1      -1.768   0.934   0.850  0.00  0.00    +0.169 HD
ATOM     15  C   UNL     1      -1.856   1.456  -1.120  0.00  0.00    +0.052 A 
ATOM     16  C   UNL     1      -3.210   1.778  -1.137  0.00  0.00    -0.024 A 
ATOM     17  C   UNL     1      -4.034   1.652   0.118  0.00  0.00    +0.046 C 
ENDBRANCH   3  10
ENDBRANCH   1   3
BRANCH   1  18
ATOM     18  C   UNL     1       2.948   1.790   0.881  0.00  0.00    -0.035 C 
BRANCH  18  19
ATOM     19  C   UNL     1       3.537   0.600   1.593  0.00  0.00    -0.027 A 
ATOM     20  C   UNL     1       4.806   0.408   2.028  0.00  0.00    +0.009 A 
ATOM     21  C   UNL     1       5.125  -0.780   2.659  0.00  0.00    +0.008 A 
ATOM     22  C   UNL     1       4.157  -1.712   2.834  0.00  0.00    +0.045 A 
ATOM     23  S   UNL     1       2.744  -0.923   2.083  0.00  0.00    -0.103 S 
ENDBRANCH  18  19
ENDBRANCH   1  18
BRANCH   1  24
ATOM     24  C   UNL     1       4.509   1.496  -0.946  0.00  0.00    +0.001 C 
BRANCH  24  25
ATOM     25  C   UNL     1       5.227   2.778  -0.613  0.00  0.00    +0.136 A 
ATOM     26  N   UNL     1       5.732   3.113   0.549  0.00  0.00    -0.115 NA
ATOM     27  N   UNL     1       6.264   4.281   0.430  0.00  0.00    -0.023 NA
ATOM     28  N   UNL     1       6.104   4.703  -0.775  0.00  0.00    -0.043 NA
ATOM     29  N   UNL     1       5.469   3.805  -1.450  0.00  0.00    -0.226 N 
BRANCH  29  30
ATOM     30  C   UNL     1       5.083   3.887  -2.860  0.00  0.00    +0.059 C 
ATOM     31  C   UNL     1       3.578   3.642  -2.993  0.00  0.00    +0.036 C 
ATOM     32  C   UNL     1       5.423   5.277  -3.402  0.00  0.00    +0.036 C 
ATOM     33  C   UNL     1       5.844   2.828  -3.660  0.00  0.00    +0.036 C 
ENDBRANCH  29  30
ENDBRANCH  24  25
ENDBRANCH   1  24
TORSDOF 7
