REMARK  Name = ZINC38555965
REMARK  4 active torsions:
REMARK  status: ('A' for Active; 'I' for Inactive)
REMARK    1  A    between atoms: C_1  and  C_2
REMARK    2  A    between atoms: C_5  and  N_8
REMARK    3  A    between atoms: C_9  and  O_33
REMARK    4  A    between atoms: C_11  and  C_18
REMARK                            x       y       z     vdW  Elec       q    Type
REMARK                         _______ _______ _______ _____ _____    ______ ____
ROOT
ATOM      1  N   UNL     1       0.056  -4.071   0.195  0.00  0.00    -0.228 N 
ATOM      2  C   UNL     1       0.200  -4.914   1.383  0.00  0.00    +0.225 C 
ATOM      3  C   UNL     1       1.026  -6.154   1.032  0.00  0.00    +0.145 C 
ATOM      4  C   UNL     1       0.511  -6.745  -0.256  0.00  0.00    +0.229 C 
ATOM      5  O   UNL     1       0.526  -7.946  -0.421  0.00  0.00    -0.275 OA
ATOM      6  N   UNL     1       0.035  -5.939  -1.222  0.00  0.00    -0.239 N 
ATOM      7  C   UNL     1      -0.079  -4.614  -1.026  0.00  0.00    +0.315 C 
ATOM      8  O   UNL     1      -0.306  -3.890  -1.976  0.00  0.00    -0.252 OA
ATOM      9  H   UNL     1      -0.234  -6.319  -2.073  0.00  0.00    +0.159 HD
ENDROOT
BRANCH   3  10
ATOM     10  C   UNL     1       2.494  -5.759   0.864  0.00  0.00    +0.117 C 
ATOM     11  C   UNL     1       3.034  -5.243   2.177  0.00  0.00    +0.038 A 
ATOM     12  H   UNL     1       2.313  -6.571   3.611  0.00  0.00    +0.166 HD
ATOM     13  C   UNL     1       3.812  -4.140   2.271  0.00  0.00    -0.016 A 
ATOM     14  C   UNL     1       4.129  -3.959   3.670  0.00  0.00    +0.003 A 
ATOM     15  C   UNL     1       4.885  -3.005   4.358  0.00  0.00    +0.010 A 
ATOM     16  C   UNL     1       4.974  -3.147   5.721  0.00  0.00    +0.001 A 
ATOM     17  C   UNL     1       4.348  -4.182   6.395  0.00  0.00    +0.002 A 
ATOM     18  C   UNL     1       3.595  -5.141   5.740  0.00  0.00    +0.026 A 
ATOM     19  C   UNL     1       3.487  -5.023   4.356  0.00  0.00    +0.047 A 
ATOM     20  N   UNL     1       2.836  -5.777   3.421  0.00  0.00    -0.356 N 
ATOM     21  C   UNL     1       4.227  -3.311   1.082  0.00  0.00    +0.052 C 
ATOM     22  C   UNL     1       3.968  -4.137  -0.185  0.00  0.00    +0.086 C 
ATOM     23  N   UNL     1       2.607  -4.692  -0.143  0.00  0.00    -0.307 NA
ATOM     24  H   UNL     1       2.319  -5.021  -1.052  0.00  0.00    +0.123 HD
ENDBRANCH   3  10
BRANCH   1  29
ATOM     25  C   UNL     1       0.050   1.574   0.760  0.00  0.00    +0.044 C 
ATOM     26  C   UNL     1       0.052   0.075   0.610  0.00  0.00    -0.050 A 
ATOM     27  C   UNL     1      -0.983  -0.673   1.142  0.00  0.00    +0.005 A 
ATOM     28  C   UNL     1      -0.984  -2.047   1.006  0.00  0.00    +0.024 A 
ATOM     29  C   UNL     1       0.054  -2.678   0.334  0.00  0.00    +0.040 A 
ATOM     30  C   UNL     1       1.091  -1.924  -0.200  0.00  0.00    +0.024 A 
ATOM     31  C   UNL     1       1.084  -0.550  -0.065  0.00  0.00    +0.005 A 
ENDBRANCH   1  29
BRANCH   2  32
ATOM     32  O   UNL     1      -1.093  -5.317   1.839  0.00  0.00    -0.373 OA
ATOM     33  H   UNL     1      -1.672  -4.582   2.080  0.00  0.00    +0.212 HD
ENDBRANCH   2  32
TORSDOF 3
