REMARK  Name = ZINC59446816
REMARK  13 active torsions:
REMARK  status: ('A' for Active; 'I' for Inactive)
REMARK    1  A    between atoms: C_1  and  C_2
REMARK    2  A    between atoms: C_2  and  N_3
REMARK    3  A    between atoms: N_3  and  C_4
REMARK    4  A    between atoms: N_3  and  C_6
REMARK    5  A    between atoms: C_4  and  C_5
REMARK    6  A    between atoms: C_6  and  S_8
REMARK    7  A    between atoms: S_8  and  C_9
REMARK    8  A    between atoms: C_9  and  C_10
REMARK    9  A    between atoms: N_12  and  C_13
REMARK   10  A    between atoms: C_20  and  S_22
REMARK   11  A    between atoms: S_22  and  C_23
REMARK   12  A    between atoms: C_23  and  C_24
REMARK   13  A    between atoms: C_27  and  N_30
REMARK                            x       y       z     vdW  Elec       q    Type
REMARK                         _______ _______ _______ _____ _____    ______ ____
ROOT
ATOM      1  C   UNL     1      -5.677  -0.691  -5.616  0.00  0.00    +0.035 A 
ATOM      2  C   UNL     1      -6.470  -0.149  -4.607  0.00  0.00    +0.025 A 
ATOM      3  C   UNL     1      -7.802   0.103  -4.803  0.00  0.00    +0.031 A 
ATOM      4  C   UNL     1      -8.419  -0.183  -6.042  0.00  0.00    +0.080 A 
ATOM      5  C   UNL     1      -7.588  -0.733  -7.044  0.00  0.00    +0.042 A 
ATOM      6  C   UNL     1      -6.252  -0.978  -6.848  0.00  0.00    +0.040 A 
ATOM      7  S   UNL     1      -8.714  -0.937  -8.403  0.00  0.00    -0.061 S 
ATOM      8  C   UNL     1     -10.171  -0.302  -7.585  0.00  0.00    +0.136 A 
ATOM      9  N   UNL     1      -9.712   0.005  -6.392  0.00  0.00    -0.233 NA
ENDROOT
BRANCH   1  12
ATOM     10  C   UNL     1      -3.713  -1.980  -6.001  0.00  0.00    +0.227 C 
ATOM     11  O   UNL     1      -4.366  -2.757  -6.665  0.00  0.00    -0.275 OA
ATOM     12  N   UNL     1      -4.316  -0.940  -5.393  0.00  0.00    -0.285 N 
ATOM     13  H   UNL     1      -3.809  -0.363  -4.801  0.00  0.00    +0.155 HD
BRANCH  10  14
ATOM     14  C   UNL     1      -2.226  -2.178  -5.857  0.00  0.00    +0.172 C 
BRANCH  14  15
ATOM     15  S   UNL     1      -1.719  -3.652  -6.785  0.00  0.00    -0.093 S 
BRANCH  15  16
ATOM     16  C   UNL     1       0.021  -3.745  -6.520  0.00  0.00    +0.110 C 
ATOM     17  S   UNL     1       0.803  -2.568  -5.554  0.00  0.00    -0.028 S 
BRANCH  16  18
ATOM     18  N   UNL     1       0.735  -4.742  -7.078  0.00  0.00    -0.320 N 
BRANCH  18  20
ATOM     19  C   UNL     1      -0.391  -6.913  -7.021  0.00  0.00    +0.024 C 
ATOM     20  C   UNL     1       0.065  -5.750  -7.904  0.00  0.00    +0.102 C 
ENDBRANCH  18  20
BRANCH  18  21
ATOM     21  C   UNL     1       2.181  -4.820  -6.857  0.00  0.00    +0.102 C 
ATOM     22  C   UNL     1       2.906  -4.034  -7.952  0.00  0.00    +0.024 C 
ENDBRANCH  18  21
ENDBRANCH  16  18
ENDBRANCH  15  16
ENDBRANCH  14  15
ENDBRANCH  10  14
ENDBRANCH   1  12
BRANCH   8  23
ATOM     23  S   UNL     1     -11.807  -0.130  -8.216  0.00  0.00    -0.094 S 
BRANCH  23  24
ATOM     24  C   UNL     1     -12.740   0.578  -6.831  0.00  0.00    +0.111 C 
BRANCH  24  25
ATOM     25  C   UNL     1     -14.176   0.778  -7.243  0.00  0.00    -0.037 A 
ATOM     26  C   UNL     1     -14.569   1.970  -7.822  0.00  0.00    +0.007 A 
ATOM     27  C   UNL     1     -15.885   2.154  -8.200  0.00  0.00    +0.033 A 
ATOM     28  C   UNL     1     -16.809   1.146  -7.999  0.00  0.00    +0.126 A 
ATOM     29  C   UNL     1     -16.416  -0.046  -7.421  0.00  0.00    +0.033 A 
ATOM     30  C   UNL     1     -15.098  -0.232  -7.047  0.00  0.00    +0.007 A 
BRANCH  28  31
ATOM     31  N   UNL     1     -18.220   1.343  -8.403  0.00  0.00    +0.056 N 
ATOM     32  O   UNL     1     -18.564   2.386  -8.909  0.00  0.00    -0.126 OA
ATOM     33  O   UNL     1     -19.028   0.461  -8.227  0.00  0.00    -0.126 OA
ENDBRANCH  28  31
ENDBRANCH  24  25
ENDBRANCH  23  24
ENDBRANCH   8  23
TORSDOF 11
