REMARK  Name = ZINC40744725
REMARK  13 active torsions:
REMARK  status: ('A' for Active; 'I' for Inactive)
REMARK    1  A    between atoms: C_1  and  N_2
REMARK    2  A    between atoms: C_3  and  S_7
REMARK    3  A    between atoms: S_7  and  C_8
REMARK    4  A    between atoms: C_8  and  C_9
REMARK    5  A    between atoms: C_9  and  C_10
REMARK    6  A    between atoms: C_10  and  N_11
REMARK    7  A    between atoms: N_11  and  C_12
REMARK    8  A    between atoms: C_12  and  C_13
REMARK    9  A    between atoms: C_15  and  O_29
REMARK   10  A    between atoms: C_16  and  O_20
REMARK   11  A    between atoms: O_20  and  C_21
REMARK   12  A    between atoms: C_21  and  C_22
REMARK   13  A    between atoms: O_29  and  C_30
REMARK                            x       y       z     vdW  Elec       q    Type
REMARK                         _______ _______ _______ _____ _____    ______ ____
ROOT
ATOM      1  C   UNL     1       0.008  -3.608  -9.632  0.00  0.00    -0.060 A 
ATOM      2  C   UNL     1      -1.196  -3.488 -10.303  0.00  0.00    +0.051 A 
ATOM      3  C   UNL     1      -1.208  -3.223 -11.663  0.00  0.00    +0.163 A 
ATOM      4  C   UNL     1      -0.007  -3.079 -12.351  0.00  0.00    +0.176 A 
ATOM      5  C   UNL     1       1.196  -3.201 -11.674  0.00  0.00    +0.063 A 
ATOM      6  C   UNL     1       1.200  -3.460 -10.314  0.00  0.00    +0.021 A 
ATOM      7 BR   UNL     1       2.830  -3.006 -12.605  0.00  0.00    -0.046 Br
ENDROOT
BRANCH   3   8
ATOM      8  O   UNL     1      -2.391  -3.105 -12.323  0.00  0.00    -0.491 OA
ATOM      9  C   UNL     1      -3.583  -3.266 -11.552  0.00  0.00    +0.277 C 
ENDBRANCH   3   8
BRANCH   1  10
ATOM     10  C   UNL     1       0.018  -3.896  -8.153  0.00  0.00    -0.047 C 
BRANCH  10  11
ATOM     11  N   UNL     1       0.004  -2.630  -7.408  0.00  0.00    +0.382 N 
ATOM     12  H   UNL     1      -0.828  -2.110  -7.643  0.00  0.00    -0.085 HD
ATOM     13  H   UNL     1       0.820  -2.088  -7.651  0.00  0.00    -0.085 HD
BRANCH  11  14
ATOM     14  C   UNL     1       0.015  -2.910  -5.966  0.00  0.00    -0.081 C 
BRANCH  14  15
ATOM     15  C   UNL     1       0.000  -1.592  -5.190  0.00  0.00    -0.008 C 
BRANCH  15  16
ATOM     16  C   UNL     1       0.011  -1.884  -3.688  0.00  0.00    +0.075 C 
BRANCH  16  17
ATOM     17  S   UNL     1      -0.006  -0.321  -2.768  0.00  0.00    -0.085 S 
BRANCH  17  20
ATOM     18  C   UNL     1      -0.018   1.461   0.010  0.00  0.00    +0.177 C 
ATOM     19  N   UNL     1       0.002  -0.004   0.002  0.00  0.00    -0.223 N 
ATOM     20  C   UNL     1       0.008  -0.820  -1.078  0.00  0.00    +0.209 A 
ATOM     21  N   UNL     1       0.027  -2.056  -0.629  0.00  0.00    -0.102 NA
ATOM     22  N   UNL     1       0.033  -2.068   0.655  0.00  0.00    -0.022 NA
ATOM     23  N   UNL     1       0.025  -0.864   1.114  0.00  0.00    -0.043 NA
ENDBRANCH  17  20
ENDBRANCH  16  17
ENDBRANCH  15  16
ENDBRANCH  14  15
ENDBRANCH  11  14
ENDBRANCH  10  11
ENDBRANCH   1  10
BRANCH   4  24
ATOM     24  O   UNL     1      -0.014  -2.820 -13.686  0.00  0.00    -0.483 OA
BRANCH  24  25
ATOM     25  C   UNL     1      -0.028  -1.447 -14.081  0.00  0.00    +0.264 C 
BRANCH  25  26
ATOM     26  C   UNL     1      -0.034  -1.356 -15.585  0.00  0.00    -0.009 A 
ATOM     27  C   UNL     1       1.161  -1.309 -16.279  0.00  0.00    +0.007 A 
ATOM     28  C   UNL     1       1.156  -1.225 -17.659  0.00  0.00    +0.002 A 
ATOM     29  C   UNL     1      -0.043  -1.189 -18.345  0.00  0.00    +0.020 A 
ATOM     30  C   UNL     1      -1.239  -1.236 -17.651  0.00  0.00    +0.041 A 
ATOM     31  C   UNL     1      -1.234  -1.325 -16.270  0.00  0.00    +0.027 A 
ATOM     32 CL   UNL     1      -2.745  -1.190 -18.513  0.00  0.00    -0.084 Cl
ENDBRANCH  25  26
ENDBRANCH  24  25
ENDBRANCH   4  24
TORSDOF 11
