REMARK  Name = ZINC16354826
REMARK  17 active torsions:
REMARK  status: ('A' for Active; 'I' for Inactive)
REMARK    1  A    between atoms: C_1  and  C_2
REMARK    2  A    between atoms: C_2  and  C_3
REMARK    3  A    between atoms: C_3  and  O_4
REMARK    4  A    between atoms: O_4  and  C_5
REMARK    5  A    between atoms: C_14  and  C_15
REMARK    6  A    between atoms: C_15  and  N_68
REMARK    7  A    between atoms: C_16  and  N_68
REMARK    8  A    between atoms: C_17  and  C_18
REMARK    9  A    between atoms: C_17  and  N_68
REMARK   10  A    between atoms: N_20  and  C_21
REMARK   11  A    between atoms: C_21  and  C_22
REMARK   12  A    between atoms: C_24  and  O_32
REMARK   13  A    between atoms: C_25  and  O_30
REMARK   14  A    between atoms: C_27  and  O_28
REMARK   15  A    between atoms: O_28  and  C_29
REMARK   16  A    between atoms: O_30  and  C_31
REMARK   17  A    between atoms: O_32  and  C_33
REMARK                            x       y       z     vdW  Elec       q    Type
REMARK                         _______ _______ _______ _____ _____    ______ ____
ROOT
ATOM      1  C   UNL     1      -0.129   0.650   6.285  0.00  0.00    +0.019 C 
ENDROOT
BRANCH   1   2
ATOM      2  C   UNL     1      -1.228   1.143   5.379  0.00  0.00    +0.197 C 
ATOM      3  O   UNL     1      -2.369   0.773   5.554  0.00  0.00    -0.278 OA
ATOM      4  N   UNL     1      -0.942   1.995   4.374  0.00  0.00    -0.313 N 
ATOM      5  H   UNL     1      -0.029   2.291   4.234  0.00  0.00    +0.149 HD
BRANCH   4   6
ATOM      6  C   UNL     1      -2.010   2.474   3.494  0.00  0.00    +0.143 C 
BRANCH   6   7
ATOM      7  C   UNL     1      -1.430   3.407   2.462  0.00  0.00    +0.015 A 
ATOM      8  C   UNL     1      -1.534   4.776   2.632  0.00  0.00    +0.058 A 
ATOM      9  C   UNL     1      -1.007   5.635   1.682  0.00  0.00    +0.162 A 
ATOM     10  C   UNL     1      -0.367   5.120   0.559  0.00  0.00    +0.165 A 
ATOM     11  C   UNL     1      -0.258   3.750   0.393  0.00  0.00    +0.095 A 
ATOM     12  C   UNL     1      -0.787   2.893   1.346  0.00  0.00    +0.128 A 
BRANCH  12  13
ATOM     13  O   UNL     1      -0.682   1.547   1.184  0.00  0.00    -0.495 OA
ATOM     14  C   UNL     1      -0.013   1.086   0.008  0.00  0.00    +0.277 C 
ENDBRANCH  12  13
BRANCH  10  15
ATOM     15  O   UNL     1       0.152   5.963  -0.374  0.00  0.00    -0.491 OA
ATOM     16  C   UNL     1       0.796   5.365  -1.501  0.00  0.00    +0.277 C 
ENDBRANCH  10  15
BRANCH   9  17
ATOM     17  O   UNL     1      -1.115   6.981   1.848  0.00  0.00    -0.491 OA
ATOM     18  C   UNL     1      -1.784   7.439   3.024  0.00  0.00    +0.277 C 
ENDBRANCH   9  17
ENDBRANCH   6   7
ENDBRANCH   4   6
ENDBRANCH   1   2
BRANCH   1  20
ATOM     19  C   UNL     1      -1.206  -1.485   6.663  0.00  0.00    -0.095 C 
ATOM     20  N   UNL     1      -0.717  -0.246   7.303  0.00  0.00    +0.386 N 
ATOM     21  H   UNL     1      -1.506   0.232   7.752  0.00  0.00    -0.081 HD
BRANCH  20  22
ATOM     22  C   UNL     1       0.294  -0.574   8.331  0.00  0.00    -0.038 C 
BRANCH  22  32
ATOM     23  C   UNL     1      -0.914  -0.600  10.510  0.00  0.00    +0.122 A 
ATOM     24  C   UNL     1      -1.550  -1.259  11.566  0.00  0.00    +0.046 A 
ATOM     25  C   UNL     1      -1.648  -2.615  11.585  0.00  0.00    +0.012 A 
ATOM     26  C   UNL     1      -1.109  -3.369  10.528  0.00  0.00    -0.017 A 
ATOM     27  C   UNL     1      -1.193  -4.771  10.516  0.00  0.00    +0.008 A 
ATOM     28  C   UNL     1      -0.660  -5.470   9.477  0.00  0.00    +0.001 A 
ATOM     29  C   UNL     1      -0.030  -4.814   8.420  0.00  0.00    +0.001 A 
ATOM     30  C   UNL     1       0.070  -3.457   8.397  0.00  0.00    +0.009 A 
ATOM     31  C   UNL     1      -0.469  -2.702   9.453  0.00  0.00    -0.013 A 
ATOM     32  C   UNL     1      -0.384  -1.300   9.464  0.00  0.00    -0.015 A 
BRANCH  23  33
ATOM     33  O   UNL     1      -0.826   0.756  10.521  0.00  0.00    -0.492 OA
BRANCH  33  34
ATOM     34  C   UNL     1      -1.399   1.434  11.641  0.00  0.00    +0.229 C 
BRANCH  34  36
ATOM     35  C   UNL     1      -1.818   3.668  12.678  0.00  0.00    +0.007 C 
ATOM     36  C   UNL     1      -1.205   2.943  11.479  0.00  0.00    +0.038 C 
ENDBRANCH  34  36
ENDBRANCH  33  34
ENDBRANCH  23  33
ENDBRANCH  22  32
ENDBRANCH  20  22
ENDBRANCH   1  20
TORSDOF 12
