REMARK  Name = ZINC36743606
REMARK  4 active torsions:
REMARK  status: ('A' for Active; 'I' for Inactive)
REMARK    1  A    between atoms: C_1  and  C_2
REMARK    2  A    between atoms: C_7  and  N_22
REMARK    3  A    between atoms: N_11  and  S_12
REMARK    4  A    between atoms: S_12  and  C_15
REMARK                            x       y       z     vdW  Elec       q    Type
REMARK                         _______ _______ _______ _____ _____    ______ ____
ROOT
ATOM      1  C   UNL     1      -0.019   1.526   0.010  0.00  0.00    +0.030 C 
ATOM      2  C   UNL     1       0.002  -0.004   0.002  0.00  0.00    +0.099 C 
ATOM      3  C   UNL     1      -1.430  -0.557   0.082  0.00  0.00    +0.061 C 
ATOM      4  C   UNL     1      -1.457  -1.361   1.363  0.00  0.00    -0.021 A 
ATOM      5  C   UNL     1      -2.474  -2.086   1.955  0.00  0.00    +0.028 A 
ATOM      6  C   UNL     1      -2.249  -2.749   3.153  0.00  0.00    +0.025 A 
ATOM      7  C   UNL     1      -0.998  -2.682   3.752  0.00  0.00    +0.024 A 
ATOM      8  C   UNL     1       0.015  -1.958   3.161  0.00  0.00    +0.027 A 
ATOM      9  C   UNL     1      -0.207  -1.289   1.956  0.00  0.00    +0.055 A 
ATOM     10  N   UNL     1       0.679  -0.510   1.199  0.00  0.00    -0.200 N 
ENDROOT
BRANCH  10  11
ATOM     11  S   UNL     1       2.257  -0.204   1.598  0.00  0.00    +0.075 S 
ATOM     12  O   UNL     1       2.673  -1.263   2.449  0.00  0.00    -0.150 OA
ATOM     13  O   UNL     1       2.929   0.108   0.385  0.00  0.00    -0.150 OA
BRANCH  11  14
ATOM     14  C   UNL     1       2.273   1.262   2.574  0.00  0.00    +0.109 A 
ATOM     15  C   UNL     1       2.397   2.497   1.964  0.00  0.00    +0.030 A 
ATOM     16  C   UNL     1       2.409   3.648   2.730  0.00  0.00    +0.022 A 
ATOM     17  C   UNL     1       2.298   3.564   4.106  0.00  0.00    +0.041 A 
ATOM     18  C   UNL     1       2.175   2.329   4.716  0.00  0.00    +0.022 A 
ATOM     19  C   UNL     1       2.156   1.179   3.949  0.00  0.00    +0.030 A 
ATOM     20 CL   UNL     1       2.314   5.009   5.068  0.00  0.00    -0.084 Cl
ENDBRANCH  11  14
ENDBRANCH  10  11
BRANCH   6  21
ATOM     21  N   UNL     1      -3.278  -3.484   3.753  0.00  0.00    -0.358 N 
ATOM     22  H   UNL     1      -4.151  -3.530   3.333  0.00  0.00    +0.142 HD
ATOM     23  H   UNL     1      -3.119  -3.947   4.591  0.00  0.00    +0.142 HD
ENDBRANCH   6  21
TORSDOF 3
