REMARK  Name = ZINC40816187
REMARK  5 active torsions:
REMARK  status: ('A' for Active; 'I' for Inactive)
REMARK    1  A    between atoms: C_1  and  C_2
REMARK    2  A    between atoms: C_6  and  O_23
REMARK    3  A    between atoms: C_7  and  O_22
REMARK    4  A    between atoms: C_13  and  C_15
REMARK    5  A    between atoms: C_17  and  N_21
REMARK                            x       y       z     vdW  Elec       q    Type
REMARK                         _______ _______ _______ _____ _____    ______ ____
ROOT
ATOM      1  C   UNL     1      -0.433   1.037  -0.153  0.00  0.00    +0.033 C 
ATOM      2  C   UNL     1      -0.151  -0.461  -0.021  0.00  0.00    +0.104 C 
ATOM      3  C   UNL     1      -1.456  -1.210   0.080  0.00  0.00    -0.020 A 
ATOM      4  C   UNL     1      -2.239  -1.301  -1.064  0.00  0.00    +0.055 A 
ATOM      5  C   UNL     1      -3.451  -1.965  -1.035  0.00  0.00    +0.159 A 
ATOM      6  C   UNL     1      -3.888  -2.546   0.152  0.00  0.00    +0.158 A 
ATOM      7  C   UNL     1      -3.103  -2.457   1.287  0.00  0.00    +0.053 A 
ATOM      8  C   UNL     1      -1.882  -1.793   1.252  0.00  0.00    -0.037 A 
ATOM      9  C   UNL     1      -1.071  -1.762   2.522  0.00  0.00    +0.054 C 
ATOM     10  C   UNL     1      -0.040  -0.635   2.481  0.00  0.00    +0.113 C 
ATOM     11  N   UNL     1       0.650  -0.702   1.183  0.00  0.00    -0.290 N 
ATOM     12  C   UNL     1       1.968  -0.974   1.105  0.00  0.00    +0.249 C 
ATOM     13  O   UNL     1       2.626  -1.092   2.121  0.00  0.00    -0.270 OA
ENDROOT
BRANCH  12  14
ATOM     14  C   UNL     1       2.615  -1.127  -0.215  0.00  0.00    +0.057 A 
ATOM     15  C   UNL     1       2.369  -0.205  -1.238  0.00  0.00    +0.038 A 
ATOM     16  C   UNL     1       3.002  -0.395  -2.461  0.00  0.00    +0.044 A 
ATOM     17  C   UNL     1       3.850  -1.485  -2.623  0.00  0.00    +0.133 A 
ATOM     18  N   UNL     1       4.058  -2.335  -1.636  0.00  0.00    -0.261 NA
ATOM     19  C   UNL     1       3.484  -2.191  -0.460  0.00  0.00    +0.123 A 
BRANCH  16  20
ATOM     20  N   UNL     1       2.789   0.498  -3.515  0.00  0.00    -0.357 N 
ATOM     21  H   UNL     1       2.196   1.256  -3.396  0.00  0.00    +0.142 HD
ATOM     22  H   UNL     1       3.234   0.359  -4.366  0.00  0.00    +0.142 HD
ENDBRANCH  16  20
ENDBRANCH  12  14
BRANCH   6  23
ATOM     23  O   UNL     1      -5.081  -3.198   0.196  0.00  0.00    -0.503 OA
ATOM     24  H   UNL     1      -5.022  -4.140  -0.012  0.00  0.00    +0.292 HD
ENDBRANCH   6  23
BRANCH   5  25
ATOM     25  O   UNL     1      -4.212  -2.050  -2.159  0.00  0.00    -0.503 OA
ATOM     26  H   UNL     1      -4.024  -2.828  -2.703  0.00  0.00    +0.292 HD
ENDBRANCH   5  25
TORSDOF 4
