REMARK  Name = ZINC35646114
REMARK  13 active torsions:
REMARK  status: ('A' for Active; 'I' for Inactive)
REMARK    1  A    between atoms: C_1  and  C_2
REMARK    2  A    between atoms: C_2  and  O_3
REMARK    3  A    between atoms: O_3  and  C_4
REMARK    4  A    between atoms: C_4  and  C_6
REMARK    5  A    between atoms: C_7  and  C_25
REMARK    6  A    between atoms: N_8  and  C_24
REMARK    7  A    between atoms: C_12  and  C_14
REMARK    8  A    between atoms: C_17  and  C_20
REMARK    9  A    between atoms: C_20  and  C_21
REMARK   10  A    between atoms: C_20  and  C_22
REMARK   11  A    between atoms: C_20  and  C_23
REMARK   12  A    between atoms: C_25  and  N_26
REMARK   13  A    between atoms: C_33  and  C_35
REMARK                            x       y       z     vdW  Elec       q    Type
REMARK                         _______ _______ _______ _____ _____    ______ ____
ROOT
ATOM      1  C   UNL     1      -2.522  -2.441   0.532  0.00  0.00    +0.080 C 
ATOM      2  C   UNL     1      -2.923  -3.653   0.092  0.00  0.00    +0.041 C 
ATOM      3  N   UNL     1      -4.213  -3.867  -0.303  0.00  0.00    -0.260 N 
ATOM      4  C   UNL     1      -5.161  -2.922  -0.289  0.00  0.00    +0.307 C 
ATOM      5  O   UNL     1      -6.282  -3.208  -0.661  0.00  0.00    -0.252 OA
ATOM      6  N   UNL     1      -4.912  -1.663   0.123  0.00  0.00    -0.288 N 
ATOM      7  C   UNL     1      -3.551  -1.330   0.577  0.00  0.00    +0.144 C 
ATOM      8  C   UNL     1      -4.579  -5.207  -0.769  0.00  0.00    +0.139 C 
ATOM      9  H   UNL     1      -5.614  -0.993   0.125  0.00  0.00    +0.151 HD
ENDROOT
BRANCH   7  10
ATOM     10  C   UNL     1      -3.047  -0.195  -0.276  0.00  0.00    -0.022 A 
ATOM     11  C   UNL     1      -3.192  -0.245  -1.650  0.00  0.00    +0.006 A 
ATOM     12  C   UNL     1      -2.729   0.796  -2.432  0.00  0.00    +0.004 A 
ATOM     13  C   UNL     1      -2.122   1.888  -1.841  0.00  0.00    -0.042 A 
ATOM     14  C   UNL     1      -1.978   1.939  -0.467  0.00  0.00    +0.004 A 
ATOM     15  C   UNL     1      -2.445   0.900   0.316  0.00  0.00    +0.006 A 
BRANCH  13  16
ATOM     16  C   UNL     1      -1.617   3.023  -2.694  0.00  0.00    -0.013 C 
ATOM     17  C   UNL     1      -2.782   3.628  -3.480  0.00  0.00    +0.015 C 
ATOM     18  C   UNL     1      -0.994   4.096  -1.799  0.00  0.00    +0.015 C 
ATOM     19  C   UNL     1      -0.562   2.498  -3.670  0.00  0.00    +0.015 C 
ENDBRANCH  13  16
ENDBRANCH   7  10
BRANCH   1  20
ATOM     20  C   UNL     1      -1.186  -2.218   0.943  0.00  0.00    +0.339 C 
ATOM     21  O   UNL     1      -0.408  -3.150   1.014  0.00  0.00    -0.245 OA
BRANCH  20  22
ATOM     22  O   UNL     1      -0.776  -0.971   1.255  0.00  0.00    -0.462 OA
BRANCH  22  24
ATOM     23  C   UNL     1       0.863   0.653   1.972  0.00  0.00    +0.048 C 
ATOM     24  C   UNL     1       0.585  -0.819   1.661  0.00  0.00    +0.229 C 
ENDBRANCH  22  24
ENDBRANCH  20  22
ENDBRANCH   1  20
BRANCH   2  25
ATOM     25  C   UNL     1      -1.933  -4.787   0.036  0.00  0.00    +0.136 C 
BRANCH  25  26
ATOM     26  N   UNL     1      -1.785  -5.375   1.375  0.00  0.00    -0.295 NA
ATOM     27  C   UNL     1      -0.531  -6.119   1.485  0.00  0.00    +0.086 C 
ATOM     28  C   UNL     1       0.016  -5.959   2.886  0.00  0.00    +0.034 C 
ATOM     29  C   UNL     1      -0.482  -7.114   3.771  0.00  0.00    +0.109 C 
ATOM     30  N   UNL     1      -1.893  -7.439   3.483  0.00  0.00    -0.300 N 
ATOM     31  C   UNL     1      -2.898  -6.419   3.263  0.00  0.00    +0.123 C 
ATOM     32  C   UNL     1      -2.960  -6.064   1.758  0.00  0.00    +0.103 C 
ATOM     33  C   UNL     1      -2.261  -8.735   3.423  0.00  0.00    +0.219 C 
ATOM     34  O   UNL     1      -3.414  -9.027   3.188  0.00  0.00    -0.275 OA
BRANCH  33  35
ATOM     35  C   UNL     1      -1.239  -9.819   3.648  0.00  0.00    +0.075 C 
ATOM     36  C   UNL     1      -0.854 -10.686   2.448  0.00  0.00    +0.013 C 
ATOM     37  C   UNL     1      -1.719 -11.270   3.567  0.00  0.00    +0.013 C 
ENDBRANCH  33  35
ENDBRANCH  25  26
ENDBRANCH   2  25
TORSDOF 8
