REMARK  Name = ZINC16870514
REMARK  11 active torsions:
REMARK  status: ('A' for Active; 'I' for Inactive)
REMARK    1  A    between atoms: C_1  and  C_2
REMARK    2  A    between atoms: C_2  and  C_4
REMARK    3  A    between atoms: C_2  and  O_17
REMARK    4  A    between atoms: N_6  and  C_7
REMARK    5  A    between atoms: C_12  and  O_13
REMARK    6  A    between atoms: O_13  and  C_14
REMARK    7  A    between atoms: O_17  and  C_18
REMARK    8  A    between atoms: C_18  and  C_20
REMARK    9  A    between atoms: N_29  and  C_31
REMARK   10  A    between atoms: C_31  and  C_32
REMARK   11  A    between atoms: C_31  and  C_33
REMARK                            x       y       z     vdW  Elec       q    Type
REMARK                         _______ _______ _______ _____ _____    ______ ____
ROOT
ATOM      1  O   UNL     1       0.677  -0.488  -1.164  0.00  0.00    -0.448 OA
ENDROOT
BRANCH   1   3
ATOM      2  C   UNL     1      -0.001   1.508   0.017  0.00  0.00    +0.062 C 
ATOM      3  C   UNL     1       0.008  -0.021   0.009  0.00  0.00    +0.259 C 
BRANCH   3   4
ATOM      4  C   UNL     1      -1.410  -0.532   0.015  0.00  0.00    +0.258 C 
ATOM      5  O   UNL     1      -1.836  -1.151  -0.937  0.00  0.00    -0.271 OA
ATOM      6  N   UNL     1      -2.204  -0.302   1.079  0.00  0.00    -0.280 N 
ATOM      7  H   UNL     1      -1.846   0.136   1.867  0.00  0.00    +0.155 HD
BRANCH   6   8
ATOM      8  C   UNL     1      -3.549  -0.694   1.048  0.00  0.00    +0.076 A 
ATOM      9  C   UNL     1      -3.920  -1.851   0.378  0.00  0.00    +0.027 A 
ATOM     10  C   UNL     1      -5.247  -2.237   0.348  0.00  0.00    +0.002 A 
ATOM     11  C   UNL     1      -6.207  -1.472   0.984  0.00  0.00    +0.004 A 
ATOM     12  C   UNL     1      -5.845  -0.317   1.654  0.00  0.00    +0.048 A 
ATOM     13  C   UNL     1      -4.516   0.073   1.693  0.00  0.00    +0.148 A 
BRANCH  13  14
ATOM     14  O   UNL     1      -4.158   1.205   2.356  0.00  0.00    -0.432 OA
BRANCH  14  15
ATOM     15  C   UNL     1      -5.202   1.941   2.994  0.00  0.00    +0.541 C 
ATOM     16  F   UNL     1      -6.139   2.347   2.037  0.00  0.00    -0.166 F 
ATOM     17  F   UNL     1      -5.830   1.131   3.946  0.00  0.00    -0.166 F 
ENDBRANCH  14  15
ENDBRANCH  13  14
ENDBRANCH   6   8
ENDBRANCH   3   4
ENDBRANCH   1   3
BRANCH   1  18
ATOM     18  C   UNL     1       2.007  -0.685  -1.072  0.00  0.00    +0.361 C 
ATOM     19  O   UNL     1       2.583  -0.466  -0.025  0.00  0.00    -0.243 OA
BRANCH  18  20
ATOM     20  C   UNL     1       2.764  -1.165  -2.243  0.00  0.00    +0.176 A 
ATOM     21  C   UNL     1       4.216  -1.389  -2.151  0.00  0.00    +0.021 A 
ATOM     22  C   UNL     1       4.940  -1.165  -0.985  0.00  0.00    +0.011 A 
ATOM     23  C   UNL     1       6.300  -1.397  -0.977  0.00  0.00    +0.001 A 
ATOM     24  C   UNL     1       6.950  -1.850  -2.118  0.00  0.00    +0.001 A 
ATOM     25  C   UNL     1       6.251  -2.078  -3.284  0.00  0.00    +0.014 A 
ATOM     26  C   UNL     1       4.879  -1.850  -3.312  0.00  0.00    +0.050 A 
ATOM     27  C   UNL     1       4.058  -2.067  -4.512  0.00  0.00    +0.275 A 
ATOM     28  O   UNL     1       4.561  -2.463  -5.547  0.00  0.00    -0.266 OA
ATOM     29  N   UNL     1       2.735  -1.816  -4.439  0.00  0.00    -0.226 N 
ATOM     30  N   UNL     1       2.151  -1.404  -3.377  0.00  0.00    -0.161 NA
BRANCH  29  31
ATOM     31  C   UNL     1       1.921  -2.033  -5.638  0.00  0.00    +0.105 C 
ATOM     32  C   UNL     1       0.846  -3.080  -5.341  0.00  0.00    +0.032 C 
ATOM     33  C   UNL     1       1.254  -0.719  -6.046  0.00  0.00    +0.032 C 
ENDBRANCH  29  31
ENDBRANCH  18  20
ENDBRANCH   1  18
TORSDOF 8
