REMARK  Name = ZINC58963639
REMARK  13 active torsions:
REMARK  status: ('A' for Active; 'I' for Inactive)
REMARK    1  A    between atoms: C_1  and  C_2
REMARK    2  A    between atoms: C_2  and  C_4
REMARK    3  A    between atoms: C_2  and  S_16
REMARK    4  A    between atoms: N_6  and  C_7
REMARK    5  A    between atoms: C_10  and  C_13
REMARK    6  A    between atoms: C_13  and  C_15
REMARK    7  A    between atoms: S_16  and  C_17
REMARK    8  A    between atoms: C_19  and  C_27
REMARK    9  A    between atoms: C_21  and  C_23
REMARK   10  A    between atoms: C_30  and  O_35
REMARK   11  A    between atoms: C_31  and  O_33
REMARK   12  A    between atoms: O_33  and  C_34
REMARK   13  A    between atoms: O_35  and  C_36
REMARK                            x       y       z     vdW  Elec       q    Type
REMARK                         _______ _______ _______ _____ _____    ______ ____
ROOT
ATOM      1  C   UNL     1       2.534  -0.028   1.236  0.00  0.00    +0.190 A 
ATOM      2  N   UNL     1       3.450  -0.313   2.149  0.00  0.00    -0.222 NA
ATOM      3  C   UNL     1       4.705   0.106   2.003  0.00  0.00    +0.076 A 
ATOM      4  C   UNL     1       5.042   0.854   0.871  0.00  0.00    +0.060 A 
ATOM      5  C   UNL     1       4.053   1.129  -0.056  0.00  0.00    +0.148 A 
ATOM      6  N   UNL     1       2.827   0.675   0.151  0.00  0.00    -0.218 NA
ENDROOT
BRANCH   3   7
ATOM      7  C   UNL     1       5.728  -0.214   3.026  0.00  0.00    +0.004 A 
ATOM      8  C   UNL     1       7.039   0.235   2.867  0.00  0.00    +0.014 A 
ATOM      9  C   UNL     1       7.991  -0.063   3.819  0.00  0.00    +0.050 A 
ATOM     10  C   UNL     1       7.648  -0.809   4.937  0.00  0.00    +0.162 A 
ATOM     11  C   UNL     1       6.340  -1.260   5.101  0.00  0.00    +0.162 A 
ATOM     12  C   UNL     1       5.381  -0.960   4.152  0.00  0.00    +0.059 A 
BRANCH  11  13
ATOM     13  O   UNL     1       6.006  -1.992   6.198  0.00  0.00    -0.491 OA
ATOM     14  C   UNL     1       4.647  -2.422   6.301  0.00  0.00    +0.277 C 
ENDBRANCH  11  13
BRANCH  10  15
ATOM     15  O   UNL     1       8.589  -1.101   5.873  0.00  0.00    -0.491 OA
ATOM     16  C   UNL     1       9.910  -0.607   5.641  0.00  0.00    +0.277 C 
ENDBRANCH  10  15
ENDBRANCH   3   7
BRANCH   5  17
ATOM     17  C   UNL     1       4.370   1.931  -1.292  0.00  0.00    +0.434 C 
ATOM     18  F   UNL     1       4.765   1.068  -2.320  0.00  0.00    -0.164 F 
ATOM     19  F   UNL     1       3.233   2.642  -1.691  0.00  0.00    -0.164 F 
ATOM     20  F   UNL     1       5.406   2.829  -1.012  0.00  0.00    -0.164 F 
ENDBRANCH   5  17
BRANCH   1  21
ATOM     21  S   UNL     1       0.884  -0.602   1.466  0.00  0.00    -0.074 S 
BRANCH  21  23
ATOM     22  C   UNL     1      -0.030   1.532   0.020  0.00  0.00    +0.029 C 
ATOM     23  C   UNL     1       0.000   0.002   0.002  0.00  0.00    +0.137 C 
BRANCH  23  24
ATOM     24  C   UNL     1      -1.410  -0.529   0.012  0.00  0.00    +0.230 C 
ATOM     25  O   UNL     1      -1.934  -0.840   1.061  0.00  0.00    -0.274 OA
ATOM     26  N   UNL     1      -2.090  -0.657  -1.144  0.00  0.00    -0.285 N 
ATOM     27  H   UNL     1      -1.697  -0.347  -1.975  0.00  0.00    +0.155 HD
BRANCH  26  28
ATOM     28  C   UNL     1      -3.357  -1.236  -1.147  0.00  0.00    +0.033 A 
ATOM     29  C   UNL     1      -3.757  -2.027  -2.221  0.00  0.00    +0.024 A 
ATOM     30  C   UNL     1      -5.003  -2.599  -2.227  0.00  0.00    +0.013 A 
ATOM     31  C   UNL     1      -5.874  -2.387  -1.151  0.00  0.00    +0.017 A 
ATOM     32  C   UNL     1      -5.468  -1.590  -0.073  0.00  0.00    +0.013 A 
ATOM     33  C   UNL     1      -4.218  -1.027  -0.073  0.00  0.00    +0.024 A 
BRANCH  31  34
ATOM     34  C   UNL     1      -7.210  -2.997  -1.154  0.00  0.00    +0.160 C 
ATOM     35  O   UNL     1      -7.560  -3.686  -2.089  0.00  0.00    -0.292 OA
ATOM     36  C   UNL     1      -8.145  -2.767   0.005  0.00  0.00    +0.091 C 
ENDBRANCH  31  34
ENDBRANCH  26  28
ENDBRANCH  23  24
ENDBRANCH  21  23
ENDBRANCH   1  21
TORSDOF 9
