REMARK  Name = ZINC52266287
REMARK  4 active torsions:
REMARK  status: ('A' for Active; 'I' for Inactive)
REMARK    1  A    between atoms: C_2  and  C_13
REMARK    2  A    between atoms: C_13  and  C_15
REMARK    3  A    between atoms: C_13  and  O_21
REMARK    4  A    between atoms: C_15  and  C_16
REMARK                            x       y       z     vdW  Elec       q    Type
REMARK                         _______ _______ _______ _____ _____    ______ ____
ROOT
ATOM      1  C   UNL     1      -0.017   1.380   0.010  0.00  0.00    +0.055 A 
ATOM      2  C   UNL     1       1.175   2.083   0.002  0.00  0.00    -0.008 A 
ATOM      3  C   UNL     1       2.381   1.407  -0.013  0.00  0.00    +0.025 A 
ATOM      4  C   UNL     1       2.404   0.023  -0.022  0.00  0.00    +0.063 A 
ATOM      5  C   UNL     1       1.212  -0.683  -0.014  0.00  0.00    +0.176 A 
ATOM      6  C   UNL     1       0.002  -0.004   0.002  0.00  0.00    +0.163 A 
ATOM      7  O   UNL     1      -1.167  -0.709   0.010  0.00  0.00    -0.488 OA
ATOM      8  C   UNL     1      -1.468  -1.433  -1.184  0.00  0.00    +0.232 C 
ATOM      9  C   UNL     1      -0.780  -2.789  -1.181  0.00  0.00    +0.082 C 
ATOM     10  C   UNL     1       0.736  -2.670  -1.212  0.00  0.00    +0.232 C 
ATOM     11  O   UNL     1       1.220  -2.048  -0.021  0.00  0.00    -0.487 OA
ATOM     12 BR   UNL     1       4.054  -0.900  -0.044  0.00  0.00    -0.046 Br
ENDROOT
BRANCH   2  13
ATOM     13  C   UNL     1       1.159   3.590   0.010  0.00  0.00    +0.225 C 
BRANCH  13  14
ATOM     14  C   UNL     1       1.266   4.109  -1.425  0.00  0.00    +0.376 C 
ATOM     15  F   UNL     1       2.403   3.566  -2.034  0.00  0.00    -0.190 F 
ATOM     16  F   UNL     1       0.127   3.730  -2.144  0.00  0.00    -0.190 F 
BRANCH  14  17
ATOM     17  C   UNL     1       1.373   5.612  -1.409  0.00  0.00    +0.427 C 
ATOM     18  O   UNL     1       2.308   6.162  -1.966  0.00  0.00    -0.239 OA
ATOM     19  O   UNL     1       0.525   6.277  -0.840  0.00  0.00    -0.239 OA
ENDBRANCH  14  17
ENDBRANCH  13  14
BRANCH  13  20
ATOM     20  O   UNL     1       2.265   4.074   0.775  0.00  0.00    -0.381 OA
ATOM     21  H   UNL     1       3.128   3.800   0.436  0.00  0.00    +0.211 HD
ENDBRANCH  13  20
ENDBRANCH   2  13
TORSDOF 4
