REMARK  Name = ZINC53113548
REMARK  7 active torsions:
REMARK  status: ('A' for Active; 'I' for Inactive)
REMARK    1  A    between atoms: C_1  and  C_2
REMARK    2  A    between atoms: C_7  and  C_9
REMARK    3  A    between atoms: C_7  and  N_11
REMARK    4  A    between atoms: C_9  and  O_10
REMARK    5  A    between atoms: N_11  and  S_12
REMARK    6  A    between atoms: S_12  and  C_15
REMARK    7  A    between atoms: C_16  and  N_22
REMARK                            x       y       z     vdW  Elec       q    Type
REMARK                         _______ _______ _______ _____ _____    ______ ____
ROOT
ATOM      1  S   UNL     1      -0.855   2.373   3.514  0.00  0.00    +0.063 S 
ATOM      2  O   UNL     1      -0.580   3.738   3.233  0.00  0.00    -0.153 OA
ATOM      3  O   UNL     1      -2.150   1.808   3.357  0.00  0.00    -0.153 OA
ENDROOT
BRANCH   1   4
ATOM      4  C   UNL     1      -0.385   2.098   5.189  0.00  0.00    +0.161 A 
ATOM      5  C   UNL     1       0.829   2.582   5.659  0.00  0.00    +0.054 A 
ATOM      6  C   UNL     1       1.196   2.363   6.981  0.00  0.00    +0.025 A 
ATOM      7  C   UNL     1       0.353   1.667   7.825  0.00  0.00    +0.005 A 
ATOM      8  C   UNL     1      -0.855   1.185   7.356  0.00  0.00    +0.040 A 
ATOM      9  C   UNL     1      -1.227   1.406   6.040  0.00  0.00    +0.151 A 
ATOM     10  F   UNL     1      -2.411   0.939   5.587  0.00  0.00    -0.203 F 
BRANCH   5  11
ATOM     11  N   UNL     1       1.680   3.285   4.804  0.00  0.00    -0.356 N 
ATOM     12  H   UNL     1       1.395   3.496   3.901  0.00  0.00    +0.142 HD
ATOM     13  H   UNL     1       2.557   3.564   5.113  0.00  0.00    +0.142 HD
ENDBRANCH   5  11
ENDBRANCH   1   4
BRANCH   1  14
ATOM     14  N   UNL     1       0.168   1.480   2.566  0.00  0.00    -0.182 NA
ATOM     15  H   UNL     1       0.817   1.925   1.999  0.00  0.00    +0.149 HD
BRANCH  14  21
ATOM     16  C   UNL     1      -0.058   1.526   0.077  0.00  0.00    +0.007 C 
ATOM     17  C   UNL     1      -0.136  -0.001   0.095  0.00  0.00    -0.012 C 
ATOM     18  C   UNL     1      -1.597  -0.436   0.233  0.00  0.00    +0.003 C 
ATOM     19  C   UNL     1      -2.173   0.120   1.536  0.00  0.00    +0.002 C 
ATOM     20  C   UNL     1      -1.368  -0.417   2.721  0.00  0.00    +0.026 C 
ATOM     21  C   UNL     1       0.093   0.017   2.583  0.00  0.00    +0.063 C 
ATOM     22  C   UNL     1       0.670  -0.539   1.280  0.00  0.00    +0.029 C 
BRANCH  21  23
ATOM     23  C   UNL     1       0.899  -0.521   3.767  0.00  0.00    +0.179 C 
BRANCH  23  24
ATOM     24  O   UNL     1       0.279  -0.115   4.989  0.00  0.00    -0.393 OA
ATOM     25  H   UNL     1       0.691  -0.485   5.782  0.00  0.00    +0.209 HD
ENDBRANCH  23  24
ENDBRANCH  21  23
ENDBRANCH  14  21
ENDBRANCH   1  14
TORSDOF 6
