REMARK  Name = ZINC39487153
REMARK  7 active torsions:
REMARK  status: ('A' for Active; 'I' for Inactive)
REMARK    1  A    between atoms: C_1  and  C_2
REMARK    2  A    between atoms: C_2  and  C_3
REMARK    3  A    between atoms: C_3  and  C_24
REMARK    4  A    between atoms: N_8  and  C_9
REMARK    5  A    between atoms: C_9  and  C_10
REMARK    6  A    between atoms: C_10  and  C_17
REMARK    7  A    between atoms: N_13  and  O_16
REMARK                            x       y       z     vdW  Elec       q    Type
REMARK                         _______ _______ _______ _____ _____    ______ ____
ROOT
ATOM      1  C   UNL     1      -0.670  -3.295  -0.042  0.00  0.00    -0.008 C 
ATOM      2  C   UNL     1      -0.683  -2.016  -0.884  0.00  0.00    +0.026 C 
ATOM      3  C   UNL     1       0.702  -1.367  -0.837  0.00  0.00    +0.115 C 
ATOM      4  N   UNL     1       1.703  -2.307  -1.357  0.00  0.00    -0.191 NA
ATOM      5  C   UNL     1       1.767  -3.523  -0.536  0.00  0.00    +0.115 C 
ATOM      6  C   UNL     1       0.413  -4.237  -0.574  0.00  0.00    +0.026 C 
ENDROOT
BRANCH   1   7
ATOM      7  C   UNL     1      -2.034  -3.982  -0.132  0.00  0.00    -0.003 C 
ATOM      8  C   UNL     1      -1.952  -5.366   0.515  0.00  0.00    +0.004 C 
ATOM      9  C   UNL     1      -3.317  -6.053   0.424  0.00  0.00    +0.000 C 
ATOM     10  C   UNL     1      -3.717  -6.200  -1.045  0.00  0.00    +0.000 C 
ATOM     11  C   UNL     1      -3.799  -4.816  -1.692  0.00  0.00    +0.000 C 
ATOM     12  C   UNL     1      -2.434  -4.129  -1.602  0.00  0.00    +0.004 C 
ENDBRANCH   1   7
BRANCH   4  13
ATOM     13  O   UNL     1       3.018  -1.672  -1.456  0.00  0.00    -0.312 OA
ATOM     14  H   UNL     1       3.711  -2.255  -1.795  0.00  0.00    +0.237 HD
ENDBRANCH   4  13
BRANCH   1  15
ATOM     15  C   UNL     1      -0.370  -2.944   1.417  0.00  0.00    +0.117 C 
BRANCH  15  21
ATOM     16  C   UNL     1      -2.441  -2.212   2.825  0.00  0.00    +0.054 C 
ATOM     17  C   UNL     1      -3.132  -0.842   2.974  0.00  0.00    +0.172 C 
ATOM     18  N   UNL     1      -2.345   0.046   2.105  0.00  0.00    -0.120 N 
ATOM     19  C   UNL     1      -1.358  -0.658   1.535  0.00  0.00    +0.332 C 
ATOM     20  O   UNL     1      -0.553  -0.168   0.766  0.00  0.00    -0.250 OA
ATOM     21  N   UNL     1      -1.338  -1.950   1.889  0.00  0.00    -0.276 N 
ATOM     22  F   UNL     1      -2.571   1.312   1.920  0.00  0.00    -0.105 F 
ATOM     23  C   UNL     1      -1.899  -2.692   4.173  0.00  0.00    +0.033 C 
BRANCH  16  25
ATOM     24  C   UNL     1      -4.485  -3.576   3.275  0.00  0.00    +0.006 C 
ATOM     25  C   UNL     1      -3.409  -3.241   2.239  0.00  0.00    +0.024 C 
ENDBRANCH  16  25
ENDBRANCH  15  21
ENDBRANCH   1  15
TORSDOF 5
