REMARK  Name = ZINC33261388
REMARK  12 active torsions:
REMARK  status: ('A' for Active; 'I' for Inactive)
REMARK    1  A    between atoms: C_1  and  C_2
REMARK    2  A    between atoms: C_5  and  N_14
REMARK    3  A    between atoms: N_6  and  C_8
REMARK    4  A    between atoms: N_21  and  C_23
REMARK    5  A    between atoms: C_23  and  C_24
REMARK    6  A    between atoms: C_24  and  C_25
REMARK    7  A    between atoms: C_25  and  C_26
REMARK    8  A    between atoms: N_28  and  C_29
REMARK    9  A    between atoms: C_29  and  C_31
REMARK   10  A    between atoms: C_29  and  C_32
REMARK   11  A    between atoms: C_32  and  C_33
REMARK   12  A    between atoms: C_33  and  C_34
REMARK                            x       y       z     vdW  Elec       q    Type
REMARK                         _______ _______ _______ _____ _____    ______ ____
ROOT
ATOM      1  C   UNL     1      11.443  -9.372   0.478  0.00  0.00    +0.070 C 
ATOM      2  C   UNL     1      10.588  -8.599   1.450  0.00  0.00    +0.086 A 
ATOM      3  C   UNL     1      11.056  -8.373   2.821  0.00  0.00    +0.123 A 
ATOM      4  C   UNL     1      10.178  -7.611   3.727  0.00  0.00    +0.112 A 
ATOM      5  C   UNL     1      10.836  -7.537   4.940  0.00  0.00    +0.154 A 
ATOM      6  N   UNL     1      12.011  -8.188   4.807  0.00  0.00    -0.215 N 
ATOM      7  N   UNL     1      12.128  -8.692   3.506  0.00  0.00    -0.162 NA
ATOM      8  C   UNL     1       8.902  -7.135   3.196  0.00  0.00    +0.280 A 
ATOM      9  O   UNL     1       8.136  -6.500   3.899  0.00  0.00    -0.265 OA
ATOM     10  N   UNL     1       8.590  -7.412   1.913  0.00  0.00    -0.229 N 
ATOM     11  N   UNL     1       9.434  -8.139   1.077  0.00  0.00    -0.171 NA
ENDROOT
BRANCH   6  12
ATOM     12  C   UNL     1      12.968  -8.338   5.818  0.00  0.00    +0.068 A 
ATOM     13  C   UNL     1      13.177  -7.317   6.736  0.00  0.00    +0.028 A 
ATOM     14  C   UNL     1      14.117  -7.470   7.735  0.00  0.00    +0.002 A 
ATOM     15  C   UNL     1      14.860  -8.634   7.815  0.00  0.00    +0.000 A 
ATOM     16  C   UNL     1      14.659  -9.650   6.899  0.00  0.00    +0.002 A 
ATOM     17  C   UNL     1      13.716  -9.506   5.901  0.00  0.00    +0.028 A 
ENDBRANCH   6  12
BRANCH   5  18
ATOM     18  N   UNL     1      10.372  -6.907   6.089  0.00  0.00    -0.307 N 
ATOM     19  C   UNL     1       9.801  -5.666   6.143  0.00  0.00    +0.092 A 
ATOM     20  C   UNL     1       9.480  -5.405   7.426  0.00  0.00    +0.019 A 
ATOM     21  C   UNL     1       9.875  -6.518   8.196  0.00  0.00    +0.019 A 
ATOM     22  C   UNL     1      10.417  -7.421   7.355  0.00  0.00    +0.092 A 
ENDBRANCH   5  18
BRANCH  10  23
ATOM     23  C   UNL     1       7.311  -6.934   1.381  0.00  0.00    +0.148 C 
BRANCH  23  24
ATOM     24  C   UNL     1       7.498  -5.541   0.777  0.00  0.00    +0.033 C 
BRANCH  24  25
ATOM     25  C   UNL     1       6.162  -5.043   0.222  0.00  0.00    +0.097 C 
BRANCH  25  26
ATOM     26  C   UNL     1       6.347  -3.671  -0.373  0.00  0.00    +0.213 C 
ATOM     27  O   UNL     1       7.439  -3.143  -0.355  0.00  0.00    -0.276 OA
ATOM     28  N   UNL     1       5.298  -3.029  -0.926  0.00  0.00    -0.313 N 
ATOM     29  H   UNL     1       4.307  -3.507  -0.943  0.00  0.00    +0.149 HD
BRANCH  28  30
ATOM     30  C   UNL     1       5.477  -1.695  -1.504  0.00  0.00    +0.070 C 
ATOM     31  C   UNL     1       5.969  -1.827  -2.947  0.00  0.00    +0.028 C 
BRANCH  30  32
ATOM     32  C   UNL     1       4.142  -0.948  -1.487  0.00  0.00    +0.026 C 
BRANCH  32  33
ATOM     33  C   UNL     1       3.711  -0.707  -0.039  0.00  0.00    +0.037 C 
BRANCH  33  34
ATOM     34  C   UNL     1       2.396   0.029  -0.022  0.00  0.00    -0.047 A 
ATOM     35  C   UNL     1       1.208  -0.679  -0.014  0.00  0.00    +0.003 A 
ATOM     36  C   UNL     1       0.002  -0.004   0.002  0.00  0.00    +0.000 A 
ATOM     37  C   UNL     1      -0.017   1.378   0.010  0.00  0.00    +0.000 A 
ATOM     38  C   UNL     1       1.171   2.086   0.002  0.00  0.00    +0.000 A 
ATOM     39  C   UNL     1       2.377   1.411  -0.014  0.00  0.00    +0.003 A 
ENDBRANCH  33  34
ENDBRANCH  32  33
ENDBRANCH  30  32
ENDBRANCH  28  30
ENDBRANCH  25  26
ENDBRANCH  24  25
ENDBRANCH  23  24
ENDBRANCH  10  23
TORSDOF 10
