REMARK  Name = ZINC31397944
REMARK  8 active torsions:
REMARK  status: ('A' for Active; 'I' for Inactive)
REMARK    1  A    between atoms: C_1  and  C_2
REMARK    2  A    between atoms: C_2  and  C_4
REMARK    3  A    between atoms: C_2  and  N_16
REMARK    4  A    between atoms: C_7  and  N_10
REMARK    5  A    between atoms: C_11  and  C_13
REMARK    6  A    between atoms: C_17  and  C_19
REMARK    7  A    between atoms: C_19  and  N_20
REMARK    8  A    between atoms: C_21  and  C_23
REMARK                            x       y       z     vdW  Elec       q    Type
REMARK                         _______ _______ _______ _____ _____    ______ ____
ROOT
ATOM      1  C   UNL     1      -1.577   1.870   1.525  0.00  0.00    +0.033 C 
ATOM      2  C   UNL     1      -1.306   1.693   0.029  0.00  0.00    +0.100 C 
ENDROOT
BRANCH   2   3
ATOM      3  C   UNL     1      -2.372   0.814  -0.574  0.00  0.00    -0.027 A 
ATOM      4  C   UNL     1      -2.292  -0.559  -0.437  0.00  0.00    +0.007 A 
ATOM      5  C   UNL     1      -3.270  -1.367  -0.985  0.00  0.00    +0.023 A 
ATOM      6  C   UNL     1      -4.327  -0.799  -1.683  0.00  0.00    +0.033 A 
ATOM      7  C   UNL     1      -4.401   0.581  -1.823  0.00  0.00    +0.023 A 
ATOM      8  C   UNL     1      -3.424   1.383  -1.268  0.00  0.00    +0.007 A 
BRANCH   6   9
ATOM      9  N   UNL     1      -5.316  -1.615  -2.244  0.00  0.00    -0.285 N 
ATOM     10  C   UNL     1      -5.913  -1.254  -3.397  0.00  0.00    +0.220 C 
ATOM     11  O   UNL     1      -5.528  -0.273  -3.998  0.00  0.00    -0.275 OA
ATOM     12  H   UNL     1      -5.606  -2.550  -1.743  0.00  0.00    +0.155 HD
BRANCH  10  13
ATOM     13  C   UNL     1      -7.059  -2.068  -3.939  0.00  0.00    +0.075 C 
ATOM     14  C   UNL     1      -6.816  -2.860  -5.226  0.00  0.00    +0.013 C 
ATOM     15  C   UNL     1      -7.694  -1.607  -5.252  0.00  0.00    +0.013 C 
ENDBRANCH  10  13
ENDBRANCH   6   9
ENDBRANCH   2   3
BRANCH   2  16
ATOM     16  N   UNL     1       0.006   1.068  -0.158  0.00  0.00    -0.307 N 
ATOM     17  C   UNL     1       1.117   1.830  -0.184  0.00  0.00    +0.231 C 
ATOM     18  O   UNL     1       1.032   3.032  -0.047  0.00  0.00    -0.274 OA
ATOM     19  H   UNL     1       0.084  -0.022  -0.279  0.00  0.00    +0.149 HD
BRANCH  17  20
ATOM     20  C   UNL     1       2.466   1.189  -0.383  0.00  0.00    +0.200 C 
BRANCH  20  21
ATOM     21  N   UNL     1       3.505   2.222  -0.373  0.00  0.00    -0.300 N 
ATOM     22  C   UNL     1       4.798   1.879  -0.534  0.00  0.00    +0.280 C 
ATOM     23  O   UNL     1       5.103   0.711  -0.689  0.00  0.00    -0.267 OA
ATOM     24  H   UNL     1       3.229   3.277  -0.233  0.00  0.00    +0.150 HD
BRANCH  22  25
ATOM     25  C   UNL     1       5.837   2.912  -0.524  0.00  0.00    +0.191 A 
ATOM     26  C   UNL     1       7.179   2.703  -0.670  0.00  0.00    +0.056 A 
ATOM     27  C   UNL     1       7.794   3.962  -0.600  0.00  0.00    +0.058 A 
ATOM     28  C   UNL     1       6.814   4.874  -0.407  0.00  0.00    +0.171 A 
ATOM     29  O   UNL     1       5.636   4.237  -0.362  0.00  0.00    -0.444 OA
ATOM     30 BR   UNL     1       7.064   6.740  -0.231  0.00  0.00    -0.008 Br
ENDBRANCH  22  25
ENDBRANCH  20  21
ENDBRANCH  17  20
ENDBRANCH   2  16
TORSDOF 7
