REMARK  Name = ZINC33716539
REMARK  12 active torsions:
REMARK  status: ('A' for Active; 'I' for Inactive)
REMARK    1  A    between atoms: C_1  and  C_2
REMARK    2  A    between atoms: C_5  and  N_8
REMARK    3  A    between atoms: N_11  and  C_12
REMARK    4  A    between atoms: N_11  and  C_20
REMARK    5  A    between atoms: C_12  and  C_13
REMARK    6  A    between atoms: C_13  and  N_14
REMARK    7  A    between atoms: C_20  and  C_21
REMARK    8  A    between atoms: N_23  and  C_24
REMARK    9  A    between atoms: N_23  and  C_32
REMARK   10  A    between atoms: C_24  and  C_25
REMARK   11  A    between atoms: C_32  and  C_33
REMARK   12  A    between atoms: C_36  and  C_38
REMARK                            x       y       z     vdW  Elec       q    Type
REMARK                         _______ _______ _______ _____ _____    ______ ____
ROOT
ATOM      1  N   UNL     1      -0.011   0.966   0.007  0.00  0.00    -0.269 N 
ATOM      2  C   UNL     1       1.042   1.787  -0.175  0.00  0.00    +0.307 C 
ATOM      3  O   UNL     1       0.860   2.964  -0.418  0.00  0.00    -0.252 OA
ATOM      4  N   UNL     1       2.297   1.303  -0.088  0.00  0.00    -0.278 N 
ATOM      5  H   UNL     1       0.150  -0.114   0.143  0.00  0.00    +0.156 HD
ENDROOT
BRANCH   1  10
ATOM      6  C   UNL     1      -5.277   3.076   0.076  0.00  0.00    +0.044 C 
ATOM      7  C   UNL     1      -3.878   2.516   0.057  0.00  0.00    -0.050 A 
ATOM      8  C   UNL     1      -3.648   1.250  -0.451  0.00  0.00    +0.005 A 
ATOM      9  C   UNL     1      -2.368   0.734  -0.468  0.00  0.00    +0.023 A 
ATOM     10  C   UNL     1      -1.310   1.487   0.024  0.00  0.00    +0.035 A 
ATOM     11  C   UNL     1      -1.544   2.755   0.538  0.00  0.00    +0.023 A 
ATOM     12  C   UNL     1      -2.827   3.268   0.548  0.00  0.00    +0.005 A 
ENDBRANCH   1  10
BRANCH   4  13
ATOM     13  C   UNL     1       2.516  -0.115   0.206  0.00  0.00    +0.091 C 
BRANCH  13  14
ATOM     14  C   UNL     1       2.578  -0.903  -1.104  0.00  0.00    -0.060 C 
BRANCH  14  15
ATOM     15  N   UNL     1       2.798  -2.325  -0.810  0.00  0.00    +0.381 N 
ATOM     16  C   UNL     1       4.119  -2.539  -0.205  0.00  0.00    -0.079 C 
ATOM     17  C   UNL     1       4.256  -4.003   0.220  0.00  0.00    -0.019 C 
ATOM     18  C   UNL     1       4.083  -4.904  -1.006  0.00  0.00    -0.004 C 
ATOM     19  C   UNL     1       2.720  -4.627  -1.646  0.00  0.00    -0.019 C 
ATOM     20  C   UNL     1       2.627  -3.145  -2.017  0.00  0.00    -0.079 C 
ATOM     21  H   UNL     1       2.039  -2.643  -0.080  0.00  0.00    -0.082 HD
ENDBRANCH  14  15
ENDBRANCH  13  14
ENDBRANCH   4  13
BRANCH   4  22
ATOM     22  C   UNL     1       3.441   2.196  -0.286  0.00  0.00    +0.205 C 
BRANCH  22  23
ATOM     23  C   UNL     1       3.849   2.792   1.037  0.00  0.00    +0.234 C 
ATOM     24  O   UNL     1       3.243   2.500   2.046  0.00  0.00    -0.274 OA
ATOM     25  N   UNL     1       4.886   3.650   1.099  0.00  0.00    -0.291 N 
BRANCH  25  26
ATOM     26  C   UNL     1       5.282   4.229   2.385  0.00  0.00    +0.143 C 
BRANCH  26  27
ATOM     27  C   UNL     1       6.305   3.339   3.043  0.00  0.00    -0.030 A 
ATOM     28  C   UNL     1       5.896   2.328   3.893  0.00  0.00    +0.008 A 
ATOM     29  C   UNL     1       6.832   1.508   4.494  0.00  0.00    +0.038 A 
ATOM     30  C   UNL     1       8.181   1.706   4.252  0.00  0.00    +0.123 A 
ATOM     31  C   UNL     1       8.590   2.723   3.405  0.00  0.00    +0.038 A 
ATOM     32  C   UNL     1       7.651   3.538   2.801  0.00  0.00    +0.008 A 
ATOM     33  F   UNL     1       9.098   0.909   4.843  0.00  0.00    -0.205 F 
ENDBRANCH  26  27
ENDBRANCH  25  26
BRANCH  25  34
ATOM     34  C   UNL     1       5.619   4.003  -0.120  0.00  0.00    +0.150 C 
BRANCH  34  35
ATOM     35  C   UNL     1       4.983   5.212  -0.755  0.00  0.00    +0.007 A 
ATOM     36  C   UNL     1       5.255   6.525  -0.554  0.00  0.00    +0.013 A 
ATOM     37  C   UNL     1       4.537   7.474  -1.256  0.00  0.00    +0.011 A 
ATOM     38  C   UNL     1       3.582   7.064  -2.127  0.00  0.00    -0.013 A 
ATOM     39  S   UNL     1       3.681   5.288  -1.975  0.00  0.00    -0.097 S 
ATOM     40  C   UNL     1       2.675   7.893  -2.999  0.00  0.00    +0.051 C 
ENDBRANCH  34  35
ENDBRANCH  25  34
ENDBRANCH  22  23
ENDBRANCH   4  22
TORSDOF 10
