REMARK  Name = ZINC16567716
REMARK  9 active torsions:
REMARK  status: ('A' for Active; 'I' for Inactive)
REMARK    1  A    between atoms: C_4  and  C_7
REMARK    2  A    between atoms: C_7  and  S_8
REMARK    3  A    between atoms: S_8  and  C_9
REMARK    4  A    between atoms: C_12  and  C_23
REMARK    5  A    between atoms: N_13  and  C_14
REMARK    6  A    between atoms: C_17  and  N_20
REMARK    7  A    between atoms: C_23  and  N_24
REMARK    8  A    between atoms: C_25  and  C_27
REMARK    9  A    between atoms: C_30  and  C_33
REMARK                            x       y       z     vdW  Elec       q    Type
REMARK                         _______ _______ _______ _____ _____    ______ ____
ROOT
ATOM      1  C   UNL     1       5.740  -1.842  -1.483  0.00  0.00    +0.196 A 
ATOM      2  N   UNL     1       6.275  -2.135  -0.321  0.00  0.00    -0.122 NA
ATOM      3  N   UNL     1       7.384  -2.761  -0.494  0.00  0.00    -0.132 NA
ATOM      4  C   UNL     1       7.627  -2.898  -1.767  0.00  0.00    +0.156 A 
ATOM      5  N   UNL     1       6.589  -2.317  -2.445  0.00  0.00    -0.273 N 
ENDROOT
BRANCH   5   6
ATOM      6  C   UNL     1       6.429  -2.227  -3.836  0.00  0.00    +0.050 A 
ATOM      7  C   UNL     1       6.263  -3.378  -4.593  0.00  0.00    +0.028 A 
ATOM      8  C   UNL     1       6.101  -3.286  -5.961  0.00  0.00    +0.035 A 
ATOM      9  C   UNL     1       6.114  -2.049  -6.579  0.00  0.00    +0.126 A 
ATOM     10  C   UNL     1       6.285  -0.900  -5.828  0.00  0.00    +0.035 A 
ATOM     11  C   UNL     1       6.442  -0.986  -4.458  0.00  0.00    +0.028 A 
BRANCH   9  12
ATOM     12  N   UNL     1       5.946  -1.954  -8.046  0.00  0.00    +0.056 N 
ATOM     13  O   UNL     1       5.958  -0.864  -8.591  0.00  0.00    -0.126 OA
ATOM     14  O   UNL     1       5.796  -2.964  -8.709  0.00  0.00    -0.126 OA
ENDBRANCH   9  12
ENDBRANCH   5   6
BRANCH   1  15
ATOM     15  S   UNL     1       4.220  -0.992  -1.753  0.00  0.00    -0.081 S 
BRANCH  15  16
ATOM     16  C   UNL     1       3.711  -0.707  -0.039  0.00  0.00    +0.112 C 
BRANCH  16  20
ATOM     17  C   UNL     1      -0.017   1.378   0.010  0.00  0.00    +0.000 A 
ATOM     18  C   UNL     1       1.171   2.086   0.002  0.00  0.00    +0.000 A 
ATOM     19  C   UNL     1       2.377   1.411  -0.014  0.00  0.00    +0.004 A 
ATOM     20  C   UNL     1       2.396   0.029  -0.022  0.00  0.00    -0.037 A 
ATOM     21  C   UNL     1       1.208  -0.679  -0.014  0.00  0.00    +0.004 A 
ATOM     22  C   UNL     1       0.002  -0.004   0.002  0.00  0.00    +0.000 A 
ENDBRANCH  16  20
ENDBRANCH  15  16
ENDBRANCH   1  15
BRANCH   4  23
ATOM     23  C   UNL     1       8.829  -3.570  -2.380  0.00  0.00    +0.181 C 
BRANCH  23  24
ATOM     24  N   UNL     1       9.893  -2.582  -2.578  0.00  0.00    -0.304 N 
ATOM     25  C   UNL     1      11.070  -2.958  -3.117  0.00  0.00    +0.244 C 
ATOM     26  O   UNL     1      11.248  -4.117  -3.438  0.00  0.00    -0.270 OA
ATOM     27  H   UNL     1       9.750  -1.658  -2.322  0.00  0.00    +0.149 HD
BRANCH  25  28
ATOM     28  C   UNL     1      12.143  -1.962  -3.317  0.00  0.00    +0.037 A 
ATOM     29  C   UNL     1      11.939  -0.629  -2.955  0.00  0.00    +0.013 A 
ATOM     30  C   UNL     1      12.946   0.295  -3.140  0.00  0.00    +0.013 A 
ATOM     31  C   UNL     1      14.153  -0.095  -3.694  0.00  0.00    +0.055 A 
ATOM     32  C   UNL     1      14.360  -1.413  -4.059  0.00  0.00    +0.013 A 
ATOM     33  C   UNL     1      13.363  -2.348  -3.875  0.00  0.00    +0.013 A 
BRANCH  31  34
ATOM     34  C   UNL     1      15.247   0.921  -3.898  0.00  0.00    +0.417 C 
ATOM     35  F   UNL     1      15.118   1.497  -5.167  0.00  0.00    -0.166 F 
ATOM     36  F   UNL     1      15.146   1.918  -2.922  0.00  0.00    -0.166 F 
ATOM     37  F   UNL     1      16.493   0.293  -3.796  0.00  0.00    -0.166 F 
ENDBRANCH  31  34
ENDBRANCH  25  28
ENDBRANCH  23  24
ENDBRANCH   4  23
TORSDOF 9
