REMARK  Name = ZINC45818718
REMARK  5 active torsions:
REMARK  status: ('A' for Active; 'I' for Inactive)
REMARK    1  A    between atoms: C_10  and  C_11
REMARK    2  A    between atoms: C_11  and  C_12
REMARK    3  A    between atoms: N_14  and  C_15
REMARK    4  A    between atoms: C_15  and  C_16
REMARK    5  A    between atoms: C_19  and  N_22
REMARK                            x       y       z     vdW  Elec       q    Type
REMARK                         _______ _______ _______ _____ _____    ______ ____
ROOT
ATOM      1  C   UNL     1       5.464   0.302   1.437  0.00  0.00    +0.218 C 
ATOM      2  O   UNL     1       4.691   0.077   2.344  0.00  0.00    -0.275 OA
ATOM      3  N   UNL     1       6.573   1.034   1.663  0.00  0.00    -0.311 N 
ATOM      4  H   UNL     1       7.192   1.214   0.938  0.00  0.00    +0.149 HD
ENDROOT
BRANCH   1   5
ATOM      5  C   UNL     1       5.185  -0.236   0.058  0.00  0.00    +0.131 C 
BRANCH   5  15
ATOM      6  C   UNL     1       0.219   0.920  -0.397  0.00  0.00    +0.001 A 
ATOM      7  C   UNL     1       1.403   1.656  -0.413  0.00  0.00    +0.001 A 
ATOM      8  C   UNL     1       2.610   1.045  -0.262  0.00  0.00    +0.009 A 
ATOM      9  C   UNL     1       2.667  -0.348  -0.086  0.00  0.00    -0.014 A 
ATOM     10  C   UNL     1       1.463  -1.096  -0.069  0.00  0.00    -0.018 A 
ATOM     11  C   UNL     1       0.236  -0.430  -0.229  0.00  0.00    +0.008 A 
ATOM     12  C   UNL     1       1.520  -2.489   0.107  0.00  0.00    +0.008 A 
ATOM     13  C   UNL     1       2.728  -3.100   0.259  0.00  0.00    +0.001 A 
ATOM     14  C   UNL     1       3.911  -2.364   0.242  0.00  0.00    +0.005 A 
ATOM     15  C   UNL     1       3.894  -1.014   0.073  0.00  0.00    -0.031 A 
ENDBRANCH   5  15
ENDBRANCH   1   5
BRANCH   3  16
ATOM     16  C   UNL     1       6.845   1.558   3.004  0.00  0.00    +0.139 C 
BRANCH  16  17
ATOM     17  C   UNL     1       8.136   2.335   2.988  0.00  0.00    -0.030 A 
ATOM     18  C   UNL     1       9.332   1.690   3.243  0.00  0.00    +0.007 A 
ATOM     19  C   UNL     1      10.517   2.400   3.229  0.00  0.00    +0.023 A 
ATOM     20  C   UNL     1      10.506   3.762   2.959  0.00  0.00    +0.035 A 
ATOM     21  C   UNL     1       9.302   4.406   2.704  0.00  0.00    +0.023 A 
ATOM     22  C   UNL     1       8.122   3.690   2.713  0.00  0.00    +0.007 A 
BRANCH  20  23
ATOM     23  N   UNL     1      11.704   4.484   2.945  0.00  0.00    -0.270 N 
ATOM     24  C   UNL     1      12.842   3.894   2.527  0.00  0.00    +0.301 C 
ATOM     25  O   UNL     1      12.810   2.767   2.071  0.00  0.00    -0.253 OA
ATOM     26  N   UNL     1      14.014   4.553   2.613  0.00  0.00    -0.313 N 
ATOM     27  H   UNL     1      11.717   5.409   3.236  0.00  0.00    +0.156 HD
ATOM     28  H   UNL     1      14.040   5.452   2.977  0.00  0.00    +0.146 HD
ATOM     29  H   UNL     1      14.833   4.128   2.312  0.00  0.00    +0.146 HD
ENDBRANCH  20  23
ENDBRANCH  16  17
ENDBRANCH   3  16
TORSDOF 5
