REMARK  Name = ZINC46123624
REMARK  7 active torsions:
REMARK  status: ('A' for Active; 'I' for Inactive)
REMARK    1  A    between atoms: C_1  and  C_2
REMARK    2  A    between atoms: C_5  and  C_29
REMARK    3  A    between atoms: N_8  and  C_10
REMARK    4  A    between atoms: C_10  and  C_11
REMARK    5  A    between atoms: C_14  and  C_17
REMARK    6  A    between atoms: C_17  and  N_18
REMARK    7  A    between atoms: N_21  and  N_22
REMARK                            x       y       z     vdW  Elec       q    Type
REMARK                         _______ _______ _______ _____ _____    ______ ____
ROOT
ATOM      1  C   UNL     1       2.154   0.211   3.646  0.00  0.00    -0.064 A 
ATOM      2  C   UNL     1       3.232  -0.391   3.024  0.00  0.00    +0.002 A 
ATOM      3  C   UNL     1       4.468   0.229   3.031  0.00  0.00    +0.005 A 
ATOM      4  C   UNL     1       4.625   1.450   3.658  0.00  0.00    -0.030 A 
ATOM      5  C   UNL     1       3.547   2.053   4.279  0.00  0.00    +0.005 A 
ATOM      6  C   UNL     1       2.310   1.435   4.269  0.00  0.00    +0.002 A 
ENDROOT
BRANCH   1   7
ATOM      7  C   UNL     1       0.807  -0.464   3.639  0.00  0.00    -0.043 C 
BRANCH   7  13
ATOM      8  C   UNL     1      -0.019   1.526   0.010  0.00  0.00    +0.005 C 
ATOM      9  C   UNL     1       0.002  -0.004   0.002  0.00  0.00    -0.031 C 
ATOM     10  C   UNL     1      -1.434  -0.535   0.015  0.00  0.00    +0.003 C 
ATOM     11  C   UNL     1      -2.117  -0.099   1.315  0.00  0.00    -0.031 C 
ATOM     12  C   UNL     1      -1.302  -0.604   2.507  0.00  0.00    -0.075 C 
ATOM     13  N   UNL     1       0.052  -0.040   2.452  0.00  0.00    +0.383 N 
ATOM     14  C   UNL     1       0.740  -0.512   1.242  0.00  0.00    -0.075 C 
ATOM     15  C   UNL     1      -3.528  -0.689   1.373  0.00  0.00    +0.005 C 
ATOM     16  H   UNL     1      -0.004   0.967   2.434  0.00  0.00    -0.081 HD
ENDBRANCH   7  13
ENDBRANCH   1   7
BRANCH   4  17
ATOM     17  C   UNL     1       5.973   2.125   3.666  0.00  0.00    +0.141 C 
BRANCH  17  18
ATOM     18  N   UNL     1       6.092   2.991   2.490  0.00  0.00    -0.294 N 
ATOM     19  C   UNL     1       7.220   3.699   2.287  0.00  0.00    +0.316 C 
ATOM     20  O   UNL     1       8.139   3.621   3.080  0.00  0.00    -0.251 OA
ATOM     21  N   UNL     1       7.330   4.495   1.205  0.00  0.00    -0.218 N 
ATOM     22  H   UNL     1       5.359   3.054   1.858  0.00  0.00    +0.151 HD
ATOM     23  H   UNL     1       8.142   5.006   1.059  0.00  0.00    +0.174 HD
BRANCH  21  24
ATOM     24  N   UNL     1       6.272   4.586   0.291  0.00  0.00    -0.231 N 
ATOM     25  C   UNL     1       6.385   5.404  -0.820  0.00  0.00    +0.232 A 
ATOM     26  N   UNL     1       7.503   6.089  -1.007  0.00  0.00    -0.222 NA
ATOM     27  C   UNL     1       7.644   6.880  -2.058  0.00  0.00    +0.116 A 
ATOM     28  C   UNL     1       6.604   6.985  -2.969  0.00  0.00    +0.039 A 
ATOM     29  C   UNL     1       5.448   6.254  -2.742  0.00  0.00    +0.116 A 
ATOM     30  N   UNL     1       5.375   5.478  -1.673  0.00  0.00    -0.222 NA
ATOM     31  H   UNL     1       5.460   4.076   0.438  0.00  0.00    +0.173 HD
ENDBRANCH  21  24
ENDBRANCH  17  18
ENDBRANCH   4  17
TORSDOF 5
