REMARK  Name = ZINC40985785
REMARK  10 active torsions:
REMARK  status: ('A' for Active; 'I' for Inactive)
REMARK    1  A    between atoms: C_1  and  C_2
REMARK    2  A    between atoms: C_2  and  C_3
REMARK    3  A    between atoms: C_6  and  C_9
REMARK    4  A    between atoms: C_9  and  C_11
REMARK    5  A    between atoms: C_9  and  N_30
REMARK    6  A    between atoms: C_11  and  N_12
REMARK    7  A    between atoms: C_13  and  C_15
REMARK    8  A    between atoms: C_18  and  S_22
REMARK    9  A    between atoms: S_22  and  C_23
REMARK   10  A    between atoms: C_23  and  C_24
REMARK                            x       y       z     vdW  Elec       q    Type
REMARK                         _______ _______ _______ _____ _____    ______ ____
ROOT
ATOM      1  N   UNL     1       3.915   0.221   4.966  0.00  0.00    -0.312 N 
ATOM      2  C   UNL     1       4.261   1.346   5.623  0.00  0.00    +0.248 C 
ATOM      3  O   UNL     1       3.740   1.611   6.690  0.00  0.00    -0.270 OA
ATOM      4  H   UNL     1       4.330   0.009   4.115  0.00  0.00    +0.149 HD
ENDROOT
BRANCH   2   5
ATOM      5  C   UNL     1       5.269   2.255   5.049  0.00  0.00    +0.092 A 
ATOM      6  C   UNL     1       5.876   1.970   3.818  0.00  0.00    +0.129 A 
ATOM      7  N   UNL     1       6.774   2.809   3.338  0.00  0.00    -0.229 NA
ATOM      8  C   UNL     1       7.104   3.910   4.003  0.00  0.00    +0.190 A 
ATOM      9  N   UNL     1       6.553   4.216   5.171  0.00  0.00    -0.209 NA
ATOM     10  C   UNL     1       5.642   3.431   5.718  0.00  0.00    +0.146 A 
ATOM     11 CL   UNL     1       4.923   3.844   7.242  0.00  0.00    -0.061 Cl
BRANCH   8  12
ATOM     12  S   UNL     1       8.310   4.996   3.316  0.00  0.00    -0.081 S 
BRANCH  12  13
ATOM     13  C   UNL     1       8.442   6.333   4.534  0.00  0.00    +0.112 C 
BRANCH  13  14
ATOM     14  C   UNL     1       9.455   7.344   4.062  0.00  0.00    -0.037 A 
ATOM     15  C   UNL     1      10.786   7.202   4.408  0.00  0.00    +0.004 A 
ATOM     16  C   UNL     1      11.715   8.130   3.975  0.00  0.00    +0.000 A 
ATOM     17  C   UNL     1      11.313   9.199   3.196  0.00  0.00    +0.000 A 
ATOM     18  C   UNL     1       9.982   9.340   2.850  0.00  0.00    +0.000 A 
ATOM     19  C   UNL     1       9.054   8.410   3.279  0.00  0.00    +0.004 A 
ENDBRANCH  13  14
ENDBRANCH  12  13
ENDBRANCH   8  12
ENDBRANCH   2   5
BRANCH   1  20
ATOM     20  C   UNL     1       2.913  -0.683   5.537  0.00  0.00    +0.094 C 
BRANCH  20  21
ATOM     21  C   UNL     1       2.611  -1.804   4.540  0.00  0.00    -0.020 C 
BRANCH  21  22
ATOM     22  N   UNL     1       1.666  -2.753   5.143  0.00  0.00    +0.385 N 
ATOM     23  C   UNL     1       2.276  -3.360   6.332  0.00  0.00    -0.078 C 
ATOM     24  C   UNL     1       1.267  -4.289   7.010  0.00  0.00    -0.019 C 
ATOM     25  C   UNL     1       0.854  -5.389   6.029  0.00  0.00    -0.004 C 
ATOM     26  C   UNL     1       0.288  -4.743   4.761  0.00  0.00    -0.019 C 
ATOM     27  C   UNL     1       1.333  -3.797   4.166  0.00  0.00    -0.078 C 
ATOM     28  H   UNL     1       0.825  -2.265   5.412  0.00  0.00    -0.081 HD
ENDBRANCH  21  22
BRANCH  21  32
ATOM     29  C   UNL     1       0.893  -0.141   1.001  0.00  0.00    -0.048 A 
ATOM     30  C   UNL     1       2.233  -0.476   1.026  0.00  0.00    +0.004 A 
ATOM     31  C   UNL     1       2.789  -1.014   2.172  0.00  0.00    +0.002 A 
ATOM     32  C   UNL     1       2.005  -1.216   3.292  0.00  0.00    -0.059 A 
ATOM     33  C   UNL     1       0.664  -0.880   3.267  0.00  0.00    +0.002 A 
ATOM     34  C   UNL     1       0.109  -0.338   2.122  0.00  0.00    +0.004 A 
BRANCH  29  36
ATOM     35  C   UNL     1       0.410   1.970  -0.208  0.00  0.00    +0.009 C 
ATOM     36  C   UNL     1       0.286   0.446  -0.248  0.00  0.00    +0.032 C 
ENDBRANCH  29  36
ENDBRANCH  21  32
ENDBRANCH  20  21
ENDBRANCH   1  20
TORSDOF 9
