REMARK  Name = ZINC38827753
REMARK  15 active torsions:
REMARK  status: ('A' for Active; 'I' for Inactive)
REMARK    1  A    between atoms: C_1  and  C_2
REMARK    2  A    between atoms: C_2  and  N_3
REMARK    3  A    between atoms: N_3  and  C_4
REMARK    4  A    between atoms: N_3  and  C_6
REMARK    5  A    between atoms: C_4  and  C_5
REMARK    6  A    between atoms: C_6  and  C_7
REMARK    7  A    between atoms: C_7  and  N_8
REMARK    8  A    between atoms: C_12  and  O_18
REMARK    9  A    between atoms: O_18  and  C_19
REMARK   10  A    between atoms: C_19  and  C_20
REMARK   11  A    between atoms: C_21  and  C_23
REMARK   12  A    between atoms: C_23  and  C_24
REMARK   13  A    between atoms: C_24  and  C_25
REMARK   14  A    between atoms: C_25  and  S_26
REMARK   15  A    between atoms: S_26  and  C_29
REMARK                            x       y       z     vdW  Elec       q    Type
REMARK                         _______ _______ _______ _____ _____    ______ ____
ROOT
ATOM      1  N   UNL     1      -2.915  -4.087   0.184  0.00  0.00    -0.252 N 
ATOM      2  C   UNL     1      -3.083  -4.630   1.448  0.00  0.00    +0.168 A 
ATOM      3  N   UNL     1      -3.102  -5.893   1.806  0.00  0.00    -0.221 NA
ATOM      4  C   UNL     1      -3.277  -6.281   3.088  0.00  0.00    +0.122 A 
ATOM      5  C   UNL     1      -3.318  -7.601   3.605  0.00  0.00    +0.147 A 
ATOM      6  C   UNL     1      -3.506  -7.822   4.949  0.00  0.00    +0.048 A 
ATOM      7  C   UNL     1      -3.660  -6.771   5.840  0.00  0.00    +0.005 A 
ATOM      8  C   UNL     1      -3.624  -5.471   5.369  0.00  0.00    +0.017 A 
ATOM      9  C   UNL     1      -3.437  -5.239   4.027  0.00  0.00    +0.044 A 
ATOM     10  S   UNL     1      -3.319  -3.789   3.007  0.00  0.00    -0.052 S 
ATOM     11  C   UNL     1      -2.748  -4.897  -0.881  0.00  0.00    +0.221 C 
ATOM     12  O   UNL     1      -2.745  -6.100  -0.733  0.00  0.00    -0.275 OA
ENDROOT
BRANCH   1  13
ATOM     13  C   UNL     1      -2.919  -2.633   0.005  0.00  0.00    +0.097 C 
BRANCH  13  14
ATOM     14  C   UNL     1      -1.492  -2.098   0.144  0.00  0.00    -0.059 C 
BRANCH  14  15
ATOM     15  N   UNL     1      -1.476  -0.660  -0.156  0.00  0.00    +0.380 N 
ATOM     16  H   UNL     1      -1.879  -0.503  -1.068  0.00  0.00    -0.082 HD
BRANCH  15  18
ATOM     17  C   UNL     1      -2.348   1.539   0.475  0.00  0.00    -0.017 C 
ATOM     18  C   UNL     1      -2.260   0.060   0.856  0.00  0.00    -0.082 C 
ENDBRANCH  15  18
BRANCH  15  19
ATOM     19  C   UNL     1      -0.091  -0.172  -0.142  0.00  0.00    -0.082 C 
ATOM     20  C   UNL     1       0.685  -0.807  -1.298  0.00  0.00    -0.017 C 
ENDBRANCH  15  19
ENDBRANCH  14  15
ENDBRANCH  13  14
ENDBRANCH   1  13
BRANCH   5  21
ATOM     21  O   UNL     1      -3.171  -8.659   2.763  0.00  0.00    -0.490 OA
BRANCH  21  22
ATOM     22  C   UNL     1      -3.223  -9.963   3.344  0.00  0.00    +0.226 C 
ATOM     23  C   UNL     1      -3.039 -11.017   2.250  0.00  0.00    +0.048 C 
ENDBRANCH  21  22
ENDBRANCH   5  21
BRANCH  11  24
ATOM     24  C   UNL     1      -2.566  -4.306  -2.255  0.00  0.00    +0.098 C 
BRANCH  24  25
ATOM     25  C   UNL     1      -2.399  -5.433  -3.276  0.00  0.00    +0.032 C 
BRANCH  25  26
ATOM     26  C   UNL     1      -2.214  -4.833  -4.672  0.00  0.00    +0.172 C 
BRANCH  26  27
ATOM     27  S   UNL     1      -2.016  -6.170  -5.883  0.00  0.00    -0.003 S 
ATOM     28  O   UNL     1      -0.786  -6.847  -5.667  0.00  0.00    -0.169 OA
ATOM     29  O   UNL     1      -3.231  -6.896  -6.012  0.00  0.00    -0.169 OA
BRANCH  27  30
ATOM     30  C   UNL     1      -1.814  -5.352  -7.430  0.00  0.00    +0.088 A 
ATOM     31  C   UNL     1      -2.921  -5.050  -8.202  0.00  0.00    +0.030 A 
ATOM     32  C   UNL     1      -2.764  -4.408  -9.415  0.00  0.00    +0.040 A 
ATOM     33  C   UNL     1      -1.497  -4.068  -9.859  0.00  0.00    +0.124 A 
ATOM     34  C   UNL     1      -0.389  -4.370  -9.085  0.00  0.00    +0.040 A 
ATOM     35  C   UNL     1      -0.549  -5.008  -7.870  0.00  0.00    +0.030 A 
ATOM     36  F   UNL     1      -1.342  -3.441 -11.046  0.00  0.00    -0.205 F 
ENDBRANCH  27  30
ENDBRANCH  26  27
ENDBRANCH  25  26
ENDBRANCH  24  25
ENDBRANCH  11  24
TORSDOF 12
