REMARK  Name = ZINC59021877
REMARK  10 active torsions:
REMARK  status: ('A' for Active; 'I' for Inactive)
REMARK    1  A    between atoms: C_1  and  C_2
REMARK    2  A    between atoms: N_4  and  C_5
REMARK    3  A    between atoms: C_13  and  C_16
REMARK    4  A    between atoms: C_17  and  C_18
REMARK    5  A    between atoms: C_23  and  N_26
REMARK    6  A    between atoms: C_27  and  O_29
REMARK    7  A    between atoms: O_29  and  C_30
REMARK    8  A    between atoms: C_30  and  C_31
REMARK    9  A    between atoms: C_30  and  C_32
REMARK   10  A    between atoms: C_30  and  C_33
REMARK                            x       y       z     vdW  Elec       q    Type
REMARK                         _______ _______ _______ _____ _____    ______ ____
ROOT
ATOM      1  C   UNL     1      -3.589   2.992   0.322  0.00  0.00    +0.033 C 
ATOM      2  C   UNL     1      -2.622   3.933   0.225  0.00  0.00    +0.069 C 
ENDROOT
BRANCH   1   9
ATOM      3  C   UNL     1       0.593   1.630   0.076  0.00  0.00    +0.110 C 
ATOM      4  C   UNL     1       0.738   0.130   0.071  0.00  0.00    +0.223 C 
ATOM      5  O   UNL     1       1.842  -0.372   0.068  0.00  0.00    -0.275 OA
ATOM      6  N   UNL     1      -0.358  -0.653   0.069  0.00  0.00    -0.219 N 
ATOM      7  C   UNL     1      -1.621  -0.081   0.177  0.00  0.00    +0.172 A 
ATOM      8  N   UNL     1      -1.958   1.192   0.194  0.00  0.00    -0.225 NA
ATOM      9  C   UNL     1      -3.232   1.569   0.305  0.00  0.00    +0.073 A 
ATOM     10  C   UNL     1      -4.207   0.602   0.404  0.00  0.00    +0.076 A 
ATOM     11  S   UNL     1      -3.212  -0.881   0.322  0.00  0.00    -0.059 S 
BRANCH   6  12
ATOM     12  C   UNL     1      -0.227  -2.043  -0.042  0.00  0.00    +0.043 A 
ATOM     13  C   UNL     1       0.390  -2.766   0.971  0.00  0.00    +0.024 A 
ATOM     14  C   UNL     1       0.519  -4.137   0.859  0.00  0.00    +0.002 A 
ATOM     15  C   UNL     1       0.034  -4.789  -0.261  0.00  0.00    +0.000 A 
ATOM     16  C   UNL     1      -0.580  -4.072  -1.271  0.00  0.00    +0.002 A 
ATOM     17  C   UNL     1      -0.717  -2.702  -1.162  0.00  0.00    +0.024 A 
ENDBRANCH   6  12
ENDBRANCH   1   9
BRANCH   2  18
ATOM     18  C   UNL     1      -2.967   5.307   0.241  0.00  0.00    +0.239 C 
ATOM     19  O   UNL     1      -4.138   5.640   0.253  0.00  0.00    -0.271 OA
ATOM     20  N   UNL     1      -1.999   6.245   0.245  0.00  0.00    -0.298 N 
ATOM     21  C   UNL     1      -0.587   5.864   0.107  0.00  0.00    +0.110 C 
ATOM     22  C   UNL     1       0.027   6.659  -1.049  0.00  0.00    +0.041 C 
ATOM     23  C   UNL     1      -0.200   8.154  -0.812  0.00  0.00    +0.079 C 
ATOM     24  C   UNL     1      -1.702   8.443  -0.772  0.00  0.00    +0.041 C 
ATOM     25  C   UNL     1      -2.337   7.668   0.381  0.00  0.00    +0.110 C 
BRANCH  23  26
ATOM     26  N   UNL     1       0.415   8.919  -1.899  0.00  0.00    -0.278 N 
ATOM     27  C   UNL     1       0.796  10.195  -1.693  0.00  0.00    +0.401 C 
ATOM     28  O   UNL     1       0.629  10.711  -0.606  0.00  0.00    -0.226 OA
ATOM     29  H   UNL     1       0.548   8.508  -2.768  0.00  0.00    +0.152 HD
BRANCH  27  30
ATOM     30  O   UNL     1       1.362  10.899  -2.692  0.00  0.00    -0.445 OA
BRANCH  30  31
ATOM     31  C   UNL     1       1.741  12.246  -2.403  0.00  0.00    +0.107 C 
ATOM     32  C   UNL     1       2.763  12.255  -1.265  0.00  0.00    +0.055 C 
ATOM     33  C   UNL     1       2.361  12.880  -3.650  0.00  0.00    +0.055 C 
ATOM     34  C   UNL     1       0.505  13.046  -1.986  0.00  0.00    +0.055 C 
ENDBRANCH  30  31
ENDBRANCH  27  30
ENDBRANCH  23  26
ENDBRANCH   2  18
TORSDOF 6
