REMARK  Name = ZINC21273396
REMARK  7 active torsions:
REMARK  status: ('A' for Active; 'I' for Inactive)
REMARK    1  A    between atoms: C_1  and  C_2
REMARK    2  A    between atoms: C_2  and  C_3
REMARK    3  A    between atoms: C_2  and  C_4
REMARK    4  A    between atoms: C_2  and  C_5
REMARK    5  A    between atoms: C_12  and  C_14
REMARK    6  A    between atoms: N_16  and  N_17
REMARK    7  A    between atoms: C_18  and  C_20
REMARK                            x       y       z     vdW  Elec       q    Type
REMARK                         _______ _______ _______ _____ _____    ______ ____
ROOT
ATOM      1  C   UNL     1       4.954  -4.056  -0.046  0.00  0.00    +0.267 C 
ATOM      2  O   UNL     1       3.909  -4.680  -0.043  0.00  0.00    -0.268 OA
ATOM      3  N   UNL     1       4.934  -2.708  -0.040  0.00  0.00    -0.230 N 
ATOM      4  H   UNL     1       5.878  -2.144  -0.043  0.00  0.00    +0.173 HD
ENDROOT
BRANCH   1  11
ATOM      5  C   UNL     1       9.620  -8.174  -0.554  0.00  0.00    -0.001 C 
ATOM      6  C   UNL     1      10.525  -7.268   0.285  0.00  0.00    +0.009 C 
ATOM      7  C   UNL     1      10.238  -5.806  -0.083  0.00  0.00    +0.043 C 
ATOM      8  C   UNL     1       8.755  -5.599  -0.075  0.00  0.00    -0.006 A 
ATOM      9  C   UNL     1       7.789  -6.565  -0.074  0.00  0.00    -0.036 A 
ATOM     10  C   UNL     1       6.473  -6.132  -0.064  0.00  0.00    +0.024 A 
ATOM     11  C   UNL     1       6.234  -4.770  -0.056  0.00  0.00    +0.076 A 
ATOM     12  S   UNL     1       7.892  -4.109  -0.071  0.00  0.00    -0.088 S 
ATOM     13  C   UNL     1       8.171  -8.043  -0.083  0.00  0.00    +0.040 C 
BRANCH   5  15
ATOM     14  C   UNL     1       9.177 -10.533  -1.250  0.00  0.00    +0.011 C 
ATOM     15  C   UNL     1      10.074  -9.627  -0.403  0.00  0.00    -0.035 C 
ATOM     16  C   UNL     1      11.523  -9.760  -0.874  0.00  0.00    +0.011 C 
ATOM     17  C   UNL     1       9.975 -10.042   1.066  0.00  0.00    +0.011 C 
ENDBRANCH   5  15
ENDBRANCH   1  11
BRANCH   3  18
ATOM     18  N   UNL     1       3.711  -2.026  -0.030  0.00  0.00    -0.230 N 
ATOM     19  C   UNL     1       3.691  -0.678  -0.024  0.00  0.00    +0.260 C 
ATOM     20  O   UNL     1       4.735  -0.055  -0.027  0.00  0.00    -0.269 OA
ATOM     21  H   UNL     1       2.766  -2.590  -0.027  0.00  0.00    +0.173 HD
BRANCH  19  22
ATOM     22  C   UNL     1       2.403   0.040  -0.013  0.00  0.00    +0.040 A 
ATOM     23  C   UNL     1       1.203  -0.678  -0.010  0.00  0.00    +0.014 A 
ATOM     24  C   UNL     1       0.002  -0.004   0.002  0.00  0.00    +0.017 A 
ATOM     25  C   UNL     1      -0.017   1.384   0.010  0.00  0.00    +0.030 A 
ATOM     26  C   UNL     1       1.176   2.116   0.002  0.00  0.00    +0.048 A 
ATOM     27  C   UNL     1       2.384   1.437  -0.007  0.00  0.00    +0.037 A 
ATOM     28  N   UNL     1       1.175   3.509  -0.003  0.00  0.00    -0.284 N 
ATOM     29  C   UNL     1       0.182   4.297   0.399  0.00  0.00    +0.227 C 
ATOM     30  O   UNL     1       0.343   5.497   0.340  0.00  0.00    -0.275 OA
ATOM     31  C   UNL     1      -1.131   3.781   0.921  0.00  0.00    +0.170 C 
ATOM     32  S   UNL     1      -1.554   2.251   0.036  0.00  0.00    -0.114 S 
ATOM     33  H   UNL     1       2.058   4.058  -0.363  0.00  0.00    +0.155 HD
ENDBRANCH  19  22
ENDBRANCH   3  18
TORSDOF 4
