REMARK  Name = ZINC14159065
REMARK  7 active torsions:
REMARK  status: ('A' for Active; 'I' for Inactive)
REMARK    1  A    between atoms: C_1  and  C_2
REMARK    2  A    between atoms: C_4  and  C_29
REMARK    3  A    between atoms: N_10  and  C_11
REMARK    4  A    between atoms: N_13  and  C_14
REMARK    5  A    between atoms: N_21  and  C_22
REMARK    6  A    between atoms: C_22  and  C_23
REMARK    7  A    between atoms: C_23  and  C_24
REMARK                            x       y       z     vdW  Elec       q    Type
REMARK                         _______ _______ _______ _____ _____    ______ ____
ROOT
ATOM      1  C   UNL     1      -0.143  -6.909   3.993  0.00  0.00    +0.066 C 
ATOM      2  C   UNL     1      -0.125  -5.963   2.820  0.00  0.00    +0.044 A 
ATOM      3  C   UNL     1      -0.061  -6.452   1.525  0.00  0.00    +0.046 A 
ATOM      4  C   UNL     1      -0.047  -5.548   0.474  0.00  0.00    +0.044 A 
ATOM      5  N   UNL     1      -0.096  -4.253   0.738  0.00  0.00    -0.217 NA
ATOM      6  C   UNL     1      -0.157  -3.818   1.988  0.00  0.00    +0.231 A 
ATOM      7  N   UNL     1      -0.177  -4.655   3.013  0.00  0.00    -0.217 NA
ATOM      8  N   UNL     1      -0.206  -2.451   2.228  0.00  0.00    -0.297 N 
ATOM      9  C   UNL     1      -0.164  -1.980   3.512  0.00  0.00    +0.198 C 
ATOM     10  N   UNL     1       0.026  -2.818   4.517  0.00  0.00    -0.129 NA
ATOM     11  N   UNL     1      -0.318  -0.647   3.755  0.00  0.00    -0.357 N 
ATOM     12  C   UNL     1       0.022  -6.034  -0.950  0.00  0.00    +0.066 C 
ATOM     13  H   UNL     1      -0.271  -1.830   1.486  0.00  0.00    +0.171 HD
ATOM     14  H   UNL     1      -0.207  -0.302   4.654  0.00  0.00    +0.162 HD
ENDROOT
BRANCH  10  15
ATOM     15  C   UNL     1       0.176  -2.346   5.763  0.00  0.00    +0.330 C 
ATOM     16  O   UNL     1       0.032  -1.158   5.986  0.00  0.00    -0.250 OA
ATOM     17  N   UNL     1       0.486  -3.188   6.770  0.00  0.00    -0.268 N 
ATOM     18  H   UNL     1       0.677  -4.120   6.581  0.00  0.00    +0.156 HD
BRANCH  17  19
ATOM     19  C   UNL     1       0.532  -2.717   8.086  0.00  0.00    +0.036 A 
ATOM     20  C   UNL     1      -0.356  -1.735   8.505  0.00  0.00    +0.023 A 
ATOM     21  C   UNL     1      -0.309  -1.272   9.805  0.00  0.00    +0.003 A 
ATOM     22  C   UNL     1       0.621  -1.785  10.691  0.00  0.00    +0.020 A 
ATOM     23  C   UNL     1       1.508  -2.763  10.277  0.00  0.00    +0.043 A 
ATOM     24  C   UNL     1       1.462  -3.235   8.978  0.00  0.00    +0.043 A 
ATOM     25 CL   UNL     1       2.675  -3.404  11.391  0.00  0.00    -0.083 Cl
ENDBRANCH  17  19
ENDBRANCH  10  15
BRANCH  11  26
ATOM     26  C   UNL     1      -0.650   0.264   2.656  0.00  0.00    +0.120 C 
BRANCH  26  27
ATOM     27  C   UNL     1      -0.643   1.706   3.170  0.00  0.00    +0.063 C 
BRANCH  27  28
ATOM     28  C   UNL     1      -1.104   2.631   2.073  0.00  0.00    -0.009 A 
ATOM     29  C   UNL     1      -2.345   3.121   1.835  0.00  0.00    +0.011 A 
ATOM     30  C   UNL     1      -2.537   3.966   0.758  0.00  0.00    +0.008 A 
ATOM     31  C   UNL     1      -1.478   4.279  -0.028  0.00  0.00    +0.045 A 
ATOM     32  S   UNL     1      -0.155   3.373   0.756  0.00  0.00    -0.102 S 
ENDBRANCH  27  28
ENDBRANCH  26  27
ENDBRANCH  11  26
TORSDOF 5
