REMARK  Name = ZINC54506216
REMARK  7 active torsions:
REMARK  status: ('A' for Active; 'I' for Inactive)
REMARK    1  A    between atoms: C_1  and  C_2
REMARK    2  A    between atoms: C_2  and  C_3
REMARK    3  A    between atoms: C_3  and  N_13
REMARK    4  A    between atoms: N_13  and  C_14
REMARK    5  A    between atoms: C_14  and  C_15
REMARK    6  A    between atoms: C_18  and  C_21
REMARK    7  A    between atoms: C_21  and  N_22
REMARK                            x       y       z     vdW  Elec       q    Type
REMARK                         _______ _______ _______ _____ _____    ______ ____
ROOT
ATOM      1  N   UNL     1      -0.030  -0.747  -2.337  0.00  0.00    -0.342 N 
ATOM      2  H   UNL     1       0.383  -1.154  -3.114  0.00  0.00    +0.146 HD
ENDROOT
BRANCH   1   3
ATOM      3  C   UNL     1       0.707  -0.490  -1.238  0.00  0.00    +0.021 C 
ATOM      4  C   UNL     1       2.074  -0.694  -1.260  0.00  0.00    +0.116 C 
ATOM      5  C   UNL     1       2.890  -0.577  -0.038  0.00  0.00    +0.256 C 
ATOM      6  O   UNL     1       2.378  -0.295   1.030  0.00  0.00    -0.270 OA
ATOM      7  N   UNL     1       4.218  -0.790  -0.134  0.00  0.00    -0.263 N 
ATOM      8  C   UNL     1       4.794  -1.101  -1.304  0.00  0.00    +0.143 C 
ATOM      9  S   UNL     1       6.487  -1.355  -1.331  0.00  0.00    -0.018 S 
ATOM     10  N   UNL     1       4.115  -1.225  -2.453  0.00  0.00    -0.263 N 
ATOM     11  C   UNL     1       2.780  -1.046  -2.506  0.00  0.00    +0.256 C 
ATOM     12  O   UNL     1       2.174  -1.166  -3.554  0.00  0.00    -0.270 OA
ATOM     13  H   UNL     1       4.769  -0.717   0.661  0.00  0.00    +0.157 HD
ATOM     14  H   UNL     1       4.595  -1.453  -3.265  0.00  0.00    +0.157 HD
BRANCH   3  16
ATOM     15  C   UNL     1      -0.365  -1.163   0.894  0.00  0.00    +0.010 C 
ATOM     16  C   UNL     1       0.042   0.020   0.014  0.00  0.00    +0.048 C 
ENDBRANCH   3  16
ENDBRANCH   1   3
BRANCH   1  17
ATOM     17  C   UNL     1      -1.457  -0.413  -2.356  0.00  0.00    +0.136 C 
BRANCH  17  18
ATOM     18  C   UNL     1      -2.045  -0.798  -3.689  0.00  0.00    -0.030 A 
ATOM     19  C   UNL     1      -2.049   0.110  -4.731  0.00  0.00    +0.005 A 
ATOM     20  C   UNL     1      -2.589  -0.244  -5.953  0.00  0.00    +0.002 A 
ATOM     21  C   UNL     1      -3.124  -1.506  -6.134  0.00  0.00    -0.064 A 
ATOM     22  C   UNL     1      -3.119  -2.414  -5.092  0.00  0.00    +0.002 A 
ATOM     23  C   UNL     1      -2.575  -2.062  -3.870  0.00  0.00    +0.005 A 
BRANCH  21  24
ATOM     24  C   UNL     1      -3.713  -1.891  -7.466  0.00  0.00    -0.043 C 
BRANCH  24  25
ATOM     25  N   UNL     1      -2.668  -2.482  -8.312  0.00  0.00    +0.382 N 
ATOM     26  C   UNL     1      -1.648  -1.468  -8.607  0.00  0.00    -0.078 C 
ATOM     27  C   UNL     1      -0.516  -2.099  -9.420  0.00  0.00    -0.019 C 
ATOM     28  C   UNL     1      -1.082  -2.652 -10.730  0.00  0.00    -0.004 C 
ATOM     29  C   UNL     1      -2.196  -3.654 -10.411  0.00  0.00    -0.019 C 
ATOM     30  C   UNL     1      -3.266  -2.965  -9.562  0.00  0.00    -0.078 C 
ATOM     31  H   UNL     1      -2.239  -3.255  -7.824  0.00  0.00    -0.081 HD
ENDBRANCH  24  25
ENDBRANCH  21  24
ENDBRANCH  17  18
ENDBRANCH   1  17
TORSDOF 6
