REMARK  Name = ZINC21936850
REMARK  11 active torsions:
REMARK  status: ('A' for Active; 'I' for Inactive)
REMARK    1  A    between atoms: C_1  and  C_2
REMARK    2  A    between atoms: C_2  and  C_3
REMARK    3  A    between atoms: C_3  and  C_5
REMARK    4  A    between atoms: C_3  and  S_15
REMARK    5  A    between atoms: N_7  and  C_8
REMARK    6  A    between atoms: C_13  and  C_14
REMARK    7  A    between atoms: S_15  and  C_16
REMARK    8  A    between atoms: C_26  and  C_31
REMARK    9  A    between atoms: C_31  and  C_32
REMARK   10  A    between atoms: C_32  and  C_33
REMARK   11  A    between atoms: C_32  and  C_34
REMARK                            x       y       z     vdW  Elec       q    Type
REMARK                         _______ _______ _______ _____ _____    ______ ____
ROOT
ATOM      1  C   UNL     1       2.169  -0.346  -1.407  0.00  0.00    +0.170 C 
ATOM      2  N   UNL     1       1.439  -0.592  -0.353  0.00  0.00    -0.225 NA
ATOM      3  C   UNL     1       1.117  -1.855   0.024  0.00  0.00    +0.077 A 
ATOM      4  C   UNL     1       0.331  -2.097   1.153  0.00  0.00    +0.028 A 
ATOM      5  C   UNL     1       0.028  -3.392   1.510  0.00  0.00    +0.002 A 
ATOM      6  C   UNL     1       0.496  -4.463   0.761  0.00  0.00    +0.001 A 
ATOM      7  C   UNL     1       1.275  -4.247  -0.357  0.00  0.00    +0.013 A 
ATOM      8  C   UNL     1       1.590  -2.946  -0.733  0.00  0.00    +0.041 A 
ATOM      9  C   UNL     1       2.422  -2.666  -1.923  0.00  0.00    +0.139 C 
ATOM     10  N   UNL     1       2.974  -3.480  -2.778  0.00  0.00    -0.255 NA
ATOM     11  C   UNL     1       3.693  -2.670  -3.771  0.00  0.00    +0.194 C 
ATOM     12  C   UNL     1       3.450  -1.244  -3.326  0.00  0.00    +0.251 C 
ATOM     13  O   UNL     1       3.858  -0.231  -3.853  0.00  0.00    -0.272 OA
ATOM     14  N   UNL     1       2.682  -1.338  -2.216  0.00  0.00    -0.200 N 
ENDROOT
BRANCH   1  15
ATOM     15  S   UNL     1       2.522   1.333  -1.810  0.00  0.00    -0.077 S 
BRANCH  15  16
ATOM     16  C   UNL     1       1.630   2.171  -0.477  0.00  0.00    +0.140 C 
BRANCH  16  17
ATOM     17  C   UNL     1       1.971   3.638  -0.489  0.00  0.00    +0.231 C 
ATOM     18  O   UNL     1       2.342   4.166  -1.516  0.00  0.00    -0.274 OA
ATOM     19  N   UNL     1       1.864   4.365   0.642  0.00  0.00    -0.284 N 
ATOM     20  H   UNL     1       1.442   3.909   1.550  0.00  0.00    +0.155 HD
BRANCH  19  21
ATOM     21  C   UNL     1       2.288   5.698   0.660  0.00  0.00    +0.036 A 
ATOM     22  C   UNL     1       3.162   6.163  -0.315  0.00  0.00    +0.023 A 
ATOM     23  C   UNL     1       3.579   7.479  -0.294  0.00  0.00    +0.002 A 
ATOM     24  C   UNL     1       3.128   8.334   0.695  0.00  0.00    +0.000 A 
ATOM     25  C   UNL     1       2.259   7.873   1.667  0.00  0.00    +0.005 A 
ATOM     26  C   UNL     1       1.833   6.559   1.649  0.00  0.00    -0.029 A 
ATOM     27  C   UNL     1       0.881   6.060   2.704  0.00  0.00    +0.045 C 
ENDBRANCH  19  21
ENDBRANCH  16  17
BRANCH  16  29
ATOM     28  C   UNL     1      -0.625   2.580   0.518  0.00  0.00    +0.005 C 
ATOM     29  C   UNL     1       0.124   1.996  -0.681  0.00  0.00    +0.020 C 
ENDBRANCH  16  29
ENDBRANCH  15  16
ENDBRANCH   1  15
BRANCH  11  30
ATOM     30  C   UNL     1       3.118  -2.901  -5.170  0.00  0.00    +0.039 C 
BRANCH  30  31
ATOM     31  C   UNL     1       3.484  -4.308  -5.646  0.00  0.00    -0.015 C 
ATOM     32  C   UNL     1       2.801  -5.344  -4.751  0.00  0.00    +0.007 C 
ATOM     33  C   UNL     1       3.017  -4.495  -7.091  0.00  0.00    +0.007 C 
ENDBRANCH  30  31
ENDBRANCH  11  30
TORSDOF 7
