REMARK  Name = ZINC02360232
REMARK  9 active torsions:
REMARK  status: ('A' for Active; 'I' for Inactive)
REMARK    1  A    between atoms: C_6  and  C_7
REMARK    2  A    between atoms: C_10  and  S_19
REMARK    3  A    between atoms: N_11  and  C_12
REMARK    4  A    between atoms: S_19  and  C_20
REMARK    5  A    between atoms: C_20  and  C_21
REMARK    6  A    between atoms: N_23  and  N_24
REMARK    7  A    between atoms: C_25  and  C_26
REMARK    8  A    between atoms: C_29  and  O_33
REMARK    9  A    between atoms: C_31  and  O_32
REMARK                            x       y       z     vdW  Elec       q    Type
REMARK                         _______ _______ _______ _____ _____    ______ ____
ROOT
ATOM      1  C   UNL     1       2.047   0.585  -0.014  0.00  0.00    +0.169 A 
ATOM      2  N   UNL     1       1.214  -0.430  -0.012  0.00  0.00    -0.128 NA
ATOM      3  N   UNL     1       0.002  -0.004   0.002  0.00  0.00    -0.122 NA
ATOM      4  C   UNL     1      -0.016   1.310   0.009  0.00  0.00    +0.197 A 
ATOM      5  N   UNL     1       1.286   1.733  -0.001  0.00  0.00    -0.270 N 
ENDROOT
BRANCH   1  11
ATOM      6  C   UNL     1       4.285   1.639   0.278  0.00  0.00    +0.013 A 
ATOM      7  C   UNL     1       5.662   1.562   0.269  0.00  0.00    +0.021 A 
ATOM      8  C   UNL     1       6.289   0.370  -0.054  0.00  0.00    +0.041 A 
ATOM      9  C   UNL     1       5.539  -0.752  -0.363  0.00  0.00    +0.021 A 
ATOM     10  C   UNL     1       4.161  -0.689  -0.352  0.00  0.00    +0.013 A 
ATOM     11  C   UNL     1       3.523   0.510  -0.028  0.00  0.00    +0.020 A 
ATOM     12 CL   UNL     1       8.023   0.282  -0.070  0.00  0.00    -0.084 Cl
ENDBRANCH   1  11
BRANCH   5  13
ATOM     13  C   UNL     1       1.747   3.057   0.001  0.00  0.00    +0.051 A 
ATOM     14  C   UNL     1       2.450   3.550  -1.090  0.00  0.00    +0.028 A 
ATOM     15  C   UNL     1       2.899   4.856  -1.087  0.00  0.00    +0.022 A 
ATOM     16  C   UNL     1       2.658   5.669   0.006  0.00  0.00    +0.041 A 
ATOM     17  C   UNL     1       1.963   5.178   1.097  0.00  0.00    +0.022 A 
ATOM     18  C   UNL     1       1.507   3.875   1.097  0.00  0.00    +0.028 A 
ATOM     19 CL   UNL     1       3.230   7.309   0.009  0.00  0.00    -0.084 Cl
ENDBRANCH   5  13
BRANCH   4  20
ATOM     20  S   UNL     1      -1.448   2.336   0.022  0.00  0.00    -0.076 S 
BRANCH  20  21
ATOM     21  C   UNL     1      -2.742   1.070   0.022  0.00  0.00    +0.174 C 
BRANCH  21  22
ATOM     22  C   UNL     1      -4.094   1.734   0.033  0.00  0.00    +0.242 C 
ATOM     23  O   UNL     1      -4.176   2.945   0.039  0.00  0.00    -0.273 OA
ATOM     24  N   UNL     1      -5.214   0.984   0.035  0.00  0.00    -0.206 N 
ATOM     25  H   UNL     1      -5.149   0.016   0.029  0.00  0.00    +0.177 HD
BRANCH  24  26
ATOM     26  N   UNL     1      -6.471   1.601   0.044  0.00  0.00    -0.188 NA
ATOM     27  C   UNL     1      -7.550   0.878   0.046  0.00  0.00    +0.142 C 
BRANCH  27  28
ATOM     28  C   UNL     1      -8.872   1.527   0.057  0.00  0.00    +0.036 A 
ATOM     29  C   UNL     1     -10.034   0.751   0.059  0.00  0.00    +0.016 A 
ATOM     30  C   UNL     1     -11.269   1.362   0.069  0.00  0.00    +0.046 A 
ATOM     31  C   UNL     1     -11.363   2.749   0.077  0.00  0.00    +0.120 A 
ATOM     32  C   UNL     1     -10.215   3.528   0.075  0.00  0.00    +0.091 A 
ATOM     33  C   UNL     1      -8.969   2.926   0.070  0.00  0.00    +0.129 A 
BRANCH  33  34
ATOM     34  O   UNL     1      -7.845   3.687   0.074  0.00  0.00    -0.506 OA
ATOM     35  H   UNL     1      -7.522   3.916  -0.809  0.00  0.00    +0.292 HD
ENDBRANCH  33  34
BRANCH  31  36
ATOM     36  O   UNL     1     -12.584   3.344   0.087  0.00  0.00    -0.507 OA
ATOM     37  H   UNL     1     -12.933   3.511   0.974  0.00  0.00    +0.292 HD
ENDBRANCH  31  36
ENDBRANCH  27  28
ENDBRANCH  24  26
ENDBRANCH  21  22
ENDBRANCH  20  21
ENDBRANCH   4  20
TORSDOF 9
