REMARK  Name = ZINC00718717
REMARK  3 active torsions:
REMARK  status: ('A' for Active; 'I' for Inactive)
REMARK    1  A    between atoms: C_9  and  C_20
REMARK    2  A    between atoms: C_15  and  N_19
REMARK    3  A    between atoms: C_16  and  C_17
REMARK                            x       y       z     vdW  Elec       q    Type
REMARK                         _______ _______ _______ _____ _____    ______ ____
ROOT
ATOM      1  C   UNL     1      -0.017   1.386   0.010  0.00  0.00    +0.000 A 
ATOM      2  C   UNL     1       1.151   2.121   0.003  0.00  0.00    +0.002 A 
ATOM      3  C   UNL     1       2.398   1.516  -0.013  0.00  0.00    +0.023 A 
ATOM      4  C   UNL     1       2.431   0.121  -0.021  0.00  0.00    +0.038 A 
ATOM      5  C   UNL     1       1.238  -0.613  -0.013  0.00  0.00    -0.002 A 
ATOM      6  C   UNL     1       0.002  -0.004   0.002  0.00  0.00    +0.007 A 
ATOM      7  C   UNL     1       1.636  -2.054  -0.026  0.00  0.00    +0.145 C 
ATOM      8  C   UNL     1       1.137  -2.774   1.194  0.00  0.00    +0.067 A 
ATOM      9  C   UNL     1       1.524  -2.637   2.533  0.00  0.00    +0.108 A 
ATOM     10  N   UNL     1       0.807  -3.483   3.251  0.00  0.00    -0.170 NA
ATOM     11  N   UNL     1      -0.054  -4.177   2.387  0.00  0.00    -0.246 N 
ATOM     12  H   UNL     1      -0.694  -4.859   2.646  0.00  0.00    +0.192 HD
ATOM     13  C   UNL     1       0.162  -3.729   1.133  0.00  0.00    +0.224 A 
ATOM     14  O   UNL     1      -0.426  -4.098  -0.033  0.00  0.00    -0.423 OA
ATOM     15  C   UNL     1       0.149  -3.698  -1.185  0.00  0.00    +0.201 C 
ATOM     16  C   UNL     1       1.115  -2.752  -1.253  0.00  0.00    +0.110 C 
ATOM     17  C   UNL     1       3.148  -2.029  -0.041  0.00  0.00    +0.238 C 
ATOM     18  O   UNL     1       3.886  -2.992  -0.054  0.00  0.00    -0.274 OA
ATOM     19  N   UNL     1       3.521  -0.732  -0.037  0.00  0.00    -0.284 N 
ATOM     20  H   UNL     1       4.444  -0.433  -0.045  0.00  0.00    +0.155 HD
ENDROOT
BRANCH   9  21
ATOM     21  C   UNL     1       2.553  -1.710   3.051  0.00  0.00    +0.041 A 
ATOM     22  C   UNL     1       2.586  -1.038   4.242  0.00  0.00    +0.019 A 
ATOM     23  C   UNL     1       3.661  -0.218   4.512  0.00  0.00    +0.028 A 
ATOM     24  C   UNL     1       4.652  -0.104   3.590  0.00  0.00    +0.079 A 
ATOM     25  S   UNL     1       4.079  -1.183   2.288  0.00  0.00    -0.075 S 
ATOM     26 CL   UNL     1       6.105   0.844   3.660  0.00  0.00    -0.076 Cl
ENDBRANCH   9  21
BRANCH  15  27
ATOM     27  N   UNL     1      -0.268  -4.283  -2.354  0.00  0.00    -0.328 N 
ATOM     28  H   UNL     1      -0.959  -4.964  -2.336  0.00  0.00    +0.145 HD
ATOM     29  H   UNL     1       0.127  -4.016  -3.199  0.00  0.00    +0.145 HD
ENDBRANCH  15  27
BRANCH  16  30
ATOM     30  C   UNL     1       1.658  -2.405  -2.532  0.00  0.00    +0.102 C 
ATOM     31  N   UNL     1       2.089  -2.130  -3.547  0.00  0.00    -0.191 NA
ENDBRANCH  16  30
TORSDOF 3
