REMARK  Name = ZINC33692606
REMARK  10 active torsions:
REMARK  status: ('A' for Active; 'I' for Inactive)
REMARK    1  A    between atoms: C_1  and  C_2
REMARK    2  A    between atoms: N_8  and  C_9
REMARK    3  A    between atoms: C_9  and  C_10
REMARK    4  A    between atoms: C_10  and  C_11
REMARK    5  A    between atoms: C_11  and  N_12
REMARK    6  A    between atoms: C_18  and  C_25
REMARK    7  A    between atoms: N_23  and  C_24
REMARK    8  A    between atoms: C_29  and  O_31
REMARK    9  A    between atoms: O_31  and  C_32
REMARK   10  A    between atoms: C_32  and  C_33
REMARK                            x       y       z     vdW  Elec       q    Type
REMARK                         _______ _______ _______ _____ _____    ______ ____
ROOT
ATOM      1  N   UNL     1      -1.978   5.476   0.050  0.00  0.00    -0.292 N 
ATOM      2  C   UNL     1      -2.532   4.114   0.048  0.00  0.00    +0.159 C 
ATOM      3  C   UNL     1      -1.324   3.203   0.032  0.00  0.00    +0.042 C 
ATOM      4  C   UNL     1      -0.242   4.008   0.026  0.00  0.00    +0.058 C 
ATOM      5  C   UNL     1      -0.638   5.361   0.037  0.00  0.00    +0.247 C 
ATOM      6  O   UNL     1       0.134   6.303   0.035  0.00  0.00    -0.270 OA
ATOM      7  C   UNL     1       1.124   3.352   0.009  0.00  0.00    +0.142 C 
ATOM      8  N   UNL     1       1.156   1.879   0.001  0.00  0.00    -0.288 N 
ATOM      9  C   UNL     1      -0.014   1.211   0.009  0.00  0.00    +0.307 C 
ATOM     10  O   UNL     1       0.002  -0.004   0.002  0.00  0.00    -0.252 OA
ATOM     11  N   UNL     1      -1.195   1.843   0.018  0.00  0.00    -0.260 N 
ATOM     12  C   UNL     1      -2.415   1.032   0.019  0.00  0.00    +0.139 C 
ATOM     13  H   UNL     1       2.120   1.351  -0.011  0.00  0.00    +0.151 HD
ENDROOT
BRANCH   7  14
ATOM     14  C   UNL     1       1.859   3.840  -1.212  0.00  0.00    -0.019 A 
ATOM     15  C   UNL     1       1.709   3.179  -2.418  0.00  0.00    +0.006 A 
ATOM     16  C   UNL     1       2.378   3.627  -3.542  0.00  0.00    +0.004 A 
ATOM     17  C   UNL     1       3.207   4.730  -3.461  0.00  0.00    +0.045 A 
ATOM     18  C   UNL     1       3.363   5.391  -2.251  0.00  0.00    +0.121 A 
ATOM     19  C   UNL     1       2.686   4.942  -1.126  0.00  0.00    +0.051 A 
BRANCH  18  20
ATOM     20  O   UNL     1       4.177   6.476  -2.168  0.00  0.00    -0.487 OA
BRANCH  20  21
ATOM     21  C   UNL     1       4.842   6.881  -3.366  0.00  0.00    +0.264 C 
BRANCH  21  22
ATOM     22  C   UNL     1       5.694   8.091  -3.084  0.00  0.00    -0.010 A 
ATOM     23  C   UNL     1       5.164   9.359  -3.230  0.00  0.00    +0.007 A 
ATOM     24  C   UNL     1       5.944  10.469  -2.966  0.00  0.00    +0.000 A 
ATOM     25  C   UNL     1       7.257  10.311  -2.565  0.00  0.00    +0.000 A 
ATOM     26  C   UNL     1       7.789   9.043  -2.424  0.00  0.00    +0.000 A 
ATOM     27  C   UNL     1       7.007   7.933  -2.683  0.00  0.00    +0.007 A 
ENDBRANCH  21  22
ENDBRANCH  20  21
ENDBRANCH  18  20
ENDBRANCH   7  14
BRANCH   1  28
ATOM     28  C   UNL     1      -2.743   6.725   0.064  0.00  0.00    +0.106 C 
BRANCH  28  29
ATOM     29  C   UNL     1      -2.996   7.152   1.511  0.00  0.00    +0.000 C 
BRANCH  29  30
ATOM     30  C   UNL     1      -3.796   8.457   1.525  0.00  0.00    -0.077 C 
BRANCH  30  37
ATOM     31  C   UNL     1      -5.839  10.307   2.090  0.00  0.00    -0.013 C 
ATOM     32  C   UNL     1      -4.592  10.226   2.973  0.00  0.00    -0.072 C 
ATOM     33  C   UNL     1      -4.967  10.564   4.418  0.00  0.00    -0.016 C 
ATOM     34  C   UNL     1      -3.721  10.462   5.301  0.00  0.00    -0.003 C 
ATOM     35  C   UNL     1      -3.136   9.051   5.185  0.00  0.00    -0.019 C 
ATOM     36  C   UNL     1      -2.814   8.757   3.718  0.00  0.00    -0.078 C 
ATOM     37  N   UNL     1      -4.039   8.867   2.915  0.00  0.00    +0.381 N 
ATOM     38  H   UNL     1      -4.785   8.182   3.345  0.00  0.00    -0.081 HD
ENDBRANCH  30  37
ENDBRANCH  29  30
ENDBRANCH  28  29
ENDBRANCH   1  28
TORSDOF 8
