REMARK  Name = ZINC10028526
REMARK  15 active torsions:
REMARK  status: ('A' for Active; 'I' for Inactive)
REMARK    1  A    between atoms: C_1  and  C_2
REMARK    2  A    between atoms: C_2  and  N_67
REMARK    3  A    between atoms: C_3  and  C_4
REMARK    4  A    between atoms: C_3  and  N_67
REMARK    5  A    between atoms: C_5  and  C_6
REMARK    6  A    between atoms: C_5  and  N_67
REMARK    7  A    between atoms: C_6  and  N_7
REMARK    8  A    between atoms: C_11  and  C_18
REMARK    9  A    between atoms: C_14  and  C_17
REMARK   10  A    between atoms: C_19  and  C_21
REMARK   11  A    between atoms: C_21  and  C_22
REMARK   12  A    between atoms: C_22  and  S_23
REMARK   13  A    between atoms: S_23  and  C_26
REMARK   14  A    between atoms: C_29  and  O_32
REMARK   15  A    between atoms: O_32  and  C_33
REMARK                            x       y       z     vdW  Elec       q    Type
REMARK                         _______ _______ _______ _____ _____    ______ ____
ROOT
ATOM      1  N   UNL     1       2.460   3.207  -0.007  0.00  0.00    -0.252 N 
ATOM      2  C   UNL     1       1.758   2.013   0.012  0.00  0.00    +0.168 A 
ATOM      3  N   UNL     1       2.222   0.785   0.021  0.00  0.00    -0.224 NA
ATOM      4  C   UNL     1       1.414  -0.297   0.040  0.00  0.00    +0.083 A 
ATOM      5  C   UNL     1       1.782  -1.662   0.050  0.00  0.00    -0.024 A 
ATOM      6  C   UNL     1       0.827  -2.645   0.069  0.00  0.00    +0.006 A 
ATOM      7  C   UNL     1      -0.526  -2.340   0.076  0.00  0.00    +0.005 A 
ATOM      8  C   UNL     1      -0.923  -1.016   0.066  0.00  0.00    -0.035 A 
ATOM      9  C   UNL     1       0.027  -0.025   0.048  0.00  0.00    +0.044 A 
ATOM     10  S   UNL     1      -0.010   1.752   0.029  0.00  0.00    -0.052 S 
ATOM     11  C   UNL     1      -2.388  -0.662   0.074  0.00  0.00    +0.045 C 
ATOM     12  C   UNL     1       3.241  -2.041   0.042  0.00  0.00    +0.046 C 
ATOM     13  C   UNL     1       1.796   4.379  -0.015  0.00  0.00    +0.223 C 
ATOM     14  O   UNL     1       0.583   4.389  -0.005  0.00  0.00    -0.275 OA
ENDROOT
BRANCH   1  15
ATOM     15  C   UNL     1       3.925   3.195  -0.018  0.00  0.00    +0.097 C 
BRANCH  15  16
ATOM     16  C   UNL     1       4.424   3.175  -1.465  0.00  0.00    -0.059 C 
BRANCH  16  17
ATOM     17  N   UNL     1       5.896   3.308  -1.460  0.00  0.00    +0.380 N 
ATOM     18  H   UNL     1       6.165   4.017  -0.768  0.00  0.00    -0.082 HD
BRANCH  17  20
ATOM     19  C   UNL     1       8.017   2.238  -0.878  0.00  0.00    -0.017 C 
ATOM     20  C   UNL     1       6.518   2.019  -1.093  0.00  0.00    -0.082 C 
ENDBRANCH  17  20
BRANCH  17  21
ATOM     21  C   UNL     1       6.369   3.736  -2.794  0.00  0.00    -0.082 C 
ATOM     22  C   UNL     1       6.100   5.234  -2.952  0.00  0.00    -0.017 C 
ENDBRANCH  17  21
ENDBRANCH  16  17
ENDBRANCH  15  16
ENDBRANCH   1  15
BRANCH  13  23
ATOM     23  C   UNL     1       2.559   5.678  -0.035  0.00  0.00    +0.119 C 
BRANCH  23  24
ATOM     24  C   UNL     1       1.574   6.849  -0.040  0.00  0.00    +0.181 C 
BRANCH  24  25
ATOM     25  S   UNL     1       2.493   8.412  -0.065  0.00  0.00    -0.003 S 
ATOM     26  O   UNL     1       3.187   8.592   1.162  0.00  0.00    -0.169 OA
ATOM     27  O   UNL     1       3.167   8.565  -1.307  0.00  0.00    -0.169 OA
BRANCH  25  28
ATOM     28  C   UNL     1       1.255   9.666  -0.069  0.00  0.00    +0.088 A 
ATOM     29  C   UNL     1       0.764  10.147  -1.269  0.00  0.00    +0.030 A 
ATOM     30  C   UNL     1      -0.211  11.126  -1.274  0.00  0.00    +0.047 A 
ATOM     31  C   UNL     1      -0.690  11.633  -0.075  0.00  0.00    +0.120 A 
ATOM     32  C   UNL     1      -0.192  11.153   1.127  0.00  0.00    +0.047 A 
ATOM     33  C   UNL     1       0.779  10.170   1.127  0.00  0.00    +0.030 A 
BRANCH  31  34
ATOM     34  O   UNL     1      -1.645  12.600  -0.079  0.00  0.00    -0.495 OA
ATOM     35  C   UNL     1      -2.111  13.047  -1.353  0.00  0.00    +0.277 C 
ENDBRANCH  31  34
ENDBRANCH  25  28
ENDBRANCH  24  25
ENDBRANCH  23  24
ENDBRANCH  13  23
TORSDOF 10
