REMARK  Name = ZINC35172831
REMARK  9 active torsions:
REMARK  status: ('A' for Active; 'I' for Inactive)
REMARK    1  A    between atoms: C_1  and  C_2
REMARK    2  A    between atoms: C_5  and  C_8
REMARK    3  A    between atoms: C_11  and  S_19
REMARK    4  A    between atoms: N_12  and  C_13
REMARK    5  A    between atoms: S_19  and  C_20
REMARK    6  A    between atoms: C_20  and  C_21
REMARK    7  A    between atoms: N_23  and  C_24
REMARK    8  A    between atoms: N_27  and  C_30
REMARK    9  A    between atoms: C_30  and  C_31
REMARK                            x       y       z     vdW  Elec       q    Type
REMARK                         _______ _______ _______ _____ _____    ______ ____
ROOT
ATOM      1  S   UNL     1       0.515  -7.833   1.477  0.00  0.00    -0.076 S 
ENDROOT
BRANCH   1   5
ATOM      2  C   UNL     1       0.060  -4.251  -0.021  0.00  0.00    +0.169 A 
ATOM      3  N   UNL     1      -0.203  -5.029  -1.045  0.00  0.00    -0.128 NA
ATOM      4  N   UNL     1      -0.092  -6.262  -0.701  0.00  0.00    -0.122 NA
ATOM      5  C   UNL     1       0.249  -6.349   0.566  0.00  0.00    +0.197 A 
ATOM      6  N   UNL     1       0.363  -5.072   1.043  0.00  0.00    -0.270 N 
BRANCH   2  11
ATOM      7  C   UNL     1      -0.018   1.503   0.010  0.00  0.00    +0.044 C 
ATOM      8  C   UNL     1       0.002  -0.004   0.002  0.00  0.00    -0.050 A 
ATOM      9  C   UNL     1       0.006  -0.686  -1.202  0.00  0.00    +0.004 A 
ATOM     10  C   UNL     1       0.024  -2.066  -1.216  0.00  0.00    +0.012 A 
ATOM     11  C   UNL     1       0.040  -2.773  -0.013  0.00  0.00    +0.020 A 
ATOM     12  C   UNL     1       0.037  -2.079   1.198  0.00  0.00    +0.012 A 
ATOM     13  C   UNL     1       0.023  -0.699   1.198  0.00  0.00    +0.004 A 
ENDBRANCH   2  11
BRANCH   6  14
ATOM     14  C   UNL     1       0.712  -4.681   2.343  0.00  0.00    +0.051 A 
ATOM     15  C   UNL     1       1.889  -3.978   2.565  0.00  0.00    +0.026 A 
ATOM     16  C   UNL     1       2.230  -3.594   3.847  0.00  0.00    +0.002 A 
ATOM     17  C   UNL     1       1.401  -3.908   4.909  0.00  0.00    +0.000 A 
ATOM     18  C   UNL     1       0.229  -4.609   4.690  0.00  0.00    +0.002 A 
ATOM     19  C   UNL     1      -0.121  -4.990   3.410  0.00  0.00    +0.026 A 
ENDBRANCH   6  14
ENDBRANCH   1   5
BRANCH   1  20
ATOM     20  C   UNL     1       0.211  -9.151   0.269  0.00  0.00    +0.173 C 
BRANCH  20  21
ATOM     21  C   UNL     1       0.408 -10.492   0.927  0.00  0.00    +0.224 C 
ATOM     22  O   UNL     1       0.722 -10.553   2.097  0.00  0.00    -0.275 OA
ATOM     23  N   UNL     1       0.234 -11.624   0.217  0.00  0.00    -0.312 N 
ATOM     24  H   UNL     1      -0.017 -11.576  -0.719  0.00  0.00    +0.149 HD
BRANCH  23  25
ATOM     25  C   UNL     1       0.425 -12.928   0.857  0.00  0.00    +0.069 C 
ATOM     26  C   UNL     1       1.907 -13.310   0.809  0.00  0.00    +0.003 C 
ATOM     27  C   UNL     1       2.088 -14.707   1.408  0.00  0.00    -0.077 C 
ATOM     28  N   UNL     1       1.305 -15.679   0.636  0.00  0.00    +0.382 N 
ATOM     29  C   UNL     1      -0.124 -15.360   0.737  0.00  0.00    -0.077 C 
ATOM     30  C   UNL     1      -0.390 -13.989   0.112  0.00  0.00    +0.003 C 
ATOM     31  H   UNL     1       1.588 -15.645  -0.332  0.00  0.00    -0.081 HD
BRANCH  28  32
ATOM     32  C   UNL     1       1.543 -17.028   1.166  0.00  0.00    -0.043 C 
BRANCH  32  33
ATOM     33  C   UNL     1       0.838 -18.040   0.300  0.00  0.00    -0.064 A 
ATOM     34  C   UNL     1      -0.466 -18.403   0.583  0.00  0.00    +0.002 A 
ATOM     35  C   UNL     1      -1.113 -19.331  -0.212  0.00  0.00    +0.000 A 
ATOM     36  C   UNL     1      -0.456 -19.895  -1.290  0.00  0.00    +0.000 A 
ATOM     37  C   UNL     1       0.847 -19.531  -1.573  0.00  0.00    +0.000 A 
ATOM     38  C   UNL     1       1.492 -18.600  -0.781  0.00  0.00    +0.002 A 
ENDBRANCH  32  33
ENDBRANCH  28  32
ENDBRANCH  23  25
ENDBRANCH  20  21
ENDBRANCH   1  20
TORSDOF 8
