REMARK  Name = ZINC38959659
REMARK  16 active torsions:
REMARK  status: ('A' for Active; 'I' for Inactive)
REMARK    1  A    between atoms: C_1  and  C_2
REMARK    2  A    between atoms: C_2  and  O_3
REMARK    3  A    between atoms: O_3  and  C_4
REMARK    4  A    between atoms: C_6  and  C_16
REMARK    5  A    between atoms: C_8  and  O_13
REMARK    6  A    between atoms: C_9  and  O_10
REMARK    7  A    between atoms: O_10  and  C_11
REMARK    8  A    between atoms: C_11  and  C_12
REMARK    9  A    between atoms: O_13  and  C_14
REMARK   10  A    between atoms: C_14  and  C_15
REMARK   11  A    between atoms: N_18  and  C_19
REMARK   12  A    between atoms: N_18  and  C_34
REMARK   13  A    between atoms: C_19  and  C_20
REMARK   14  A    between atoms: C_25  and  O_32
REMARK   15  A    between atoms: O_32  and  C_33
REMARK   16  A    between atoms: C_38  and  C_40
REMARK                            x       y       z     vdW  Elec       q    Type
REMARK                         _______ _______ _______ _____ _____    ______ ____
ROOT
ATOM      1  C   UNL     1      -0.756  -4.392   1.379  0.00  0.00    +0.251 C 
ATOM      2  O   UNL     1      -0.838  -4.935   2.464  0.00  0.00    -0.270 OA
ATOM      3  N   UNL     1      -0.647  -3.051   1.303  0.00  0.00    -0.266 N 
ENDROOT
BRANCH   3   4
ATOM      4  C   UNL     1      -0.555  -2.290   2.472  0.00  0.00    +0.037 A 
ATOM      5  C   UNL     1       0.544  -1.467   2.683  0.00  0.00    +0.023 A 
ATOM      6  C   UNL     1       0.632  -0.717   3.838  0.00  0.00    +0.002 A 
ATOM      7  C   UNL     1      -0.373  -0.783   4.786  0.00  0.00    +0.003 A 
ATOM      8  C   UNL     1      -1.469  -1.601   4.580  0.00  0.00    -0.049 A 
ATOM      9  C   UNL     1      -1.565  -2.350   3.423  0.00  0.00    +0.027 A 
ATOM     10  C   UNL     1      -2.562  -1.671   5.615  0.00  0.00    +0.044 C 
ENDBRANCH   3   4
BRANCH   1  13
ATOM     11  C   UNL     1       0.049  -7.066  -1.135  0.00  0.00    +0.166 A 
ATOM     12  C   UNL     1       0.070  -6.308   0.021  0.00  0.00    +0.062 A 
ATOM     13  C   UNL     1      -0.775  -5.202   0.145  0.00  0.00    +0.044 A 
ATOM     14  C   UNL     1      -1.637  -4.864  -0.901  0.00  0.00    +0.062 A 
ATOM     15  C   UNL     1      -1.654  -5.625  -2.055  0.00  0.00    +0.166 A 
ATOM     16  C   UNL     1      -0.807  -6.723  -2.178  0.00  0.00    +0.204 A 
BRANCH  11  17
ATOM     17  O   UNL     1       0.871  -8.142  -1.257  0.00  0.00    -0.488 OA
BRANCH  17  19
ATOM     18  C   UNL     1       2.568  -9.671  -0.468  0.00  0.00    +0.048 C 
ATOM     19  C   UNL     1       1.724  -8.436  -0.148  0.00  0.00    +0.226 C 
ENDBRANCH  17  19
ENDBRANCH  11  17
BRANCH  16  20
ATOM     20  O   UNL     1      -0.822  -7.466  -3.316  0.00  0.00    -0.485 OA
BRANCH  20  21
ATOM     21  C   UNL     1      -1.732  -8.567  -3.361  0.00  0.00    +0.226 C 
ATOM     22  C   UNL     1      -1.606  -9.278  -4.709  0.00  0.00    +0.048 C 
ENDBRANCH  20  21
ENDBRANCH  16  20
BRANCH  15  23
ATOM     23  O   UNL     1      -2.494  -5.296  -3.073  0.00  0.00    -0.488 OA
BRANCH  23  24
ATOM     24  C   UNL     1      -1.955  -4.494  -4.126  0.00  0.00    +0.226 C 
ATOM     25  C   UNL     1      -3.030  -4.256  -5.187  0.00  0.00    +0.048 C 
ENDBRANCH  23  24
ENDBRANCH  15  23
ENDBRANCH   1  13
BRANCH   3  26
ATOM     26  C   UNL     1      -0.625  -2.391  -0.005  0.00  0.00    +0.131 C 
BRANCH  26  27
ATOM     27  C   UNL     1      -1.235  -0.994   0.119  0.00  0.00    +0.116 C 
ATOM     28  C   UNL     1      -0.759  -0.171  -1.062  0.00  0.00    -0.003 C 
ATOM     29  C   UNL     1      -1.712   0.363  -1.877  0.00  0.00    -0.004 A 
ATOM     30  C   UNL     1      -1.339   1.170  -3.039  0.00  0.00    +0.055 A 
ATOM     31  C   UNL     1      -2.325   1.685  -3.825  0.00  0.00    +0.121 A 
ATOM     32  C   UNL     1      -3.676   1.455  -3.539  0.00  0.00    +0.047 A 
ATOM     33  C   UNL     1      -4.083   0.715  -2.476  0.00  0.00    +0.027 A 
ATOM     34  C   UNL     1      -3.142   0.139  -1.602  0.00  0.00    +0.041 A 
ATOM     35  N   UNL     1      -3.556  -0.586  -0.563  0.00  0.00    -0.284 N 
ATOM     36  C   UNL     1      -2.728  -1.153   0.297  0.00  0.00    +0.226 C 
ATOM     37  O   UNL     1      -3.166  -1.804   1.227  0.00  0.00    -0.275 OA
ATOM     38  H   UNL     1      -4.510  -0.701  -0.431  0.00  0.00    +0.155 HD
BRANCH  31  39
ATOM     39  O   UNL     1      -1.991   2.436  -4.907  0.00  0.00    -0.495 OA
ATOM     40  C   UNL     1      -3.065   2.951  -5.697  0.00  0.00    +0.277 C 
ENDBRANCH  31  39
ENDBRANCH  26  27
ENDBRANCH   3  26
TORSDOF 11
