REMARK  Name = ZINC30498897
REMARK  11 active torsions:
REMARK  status: ('A' for Active; 'I' for Inactive)
REMARK    1  A    between atoms: C_1  and  C_2
REMARK    2  A    between atoms: C_2  and  C_3
REMARK    3  A    between atoms: N_5  and  C_6
REMARK    4  A    between atoms: C_9  and  C_12
REMARK    5  A    between atoms: C_12  and  C_14
REMARK    6  A    between atoms: C_12  and  N_15
REMARK    7  A    between atoms: N_15  and  C_16
REMARK    8  A    between atoms: C_16  and  C_18
REMARK    9  A    between atoms: C_16  and  C_19
REMARK   10  A    between atoms: N_24  and  C_25
REMARK   11  A    between atoms: C_25  and  C_26
REMARK                            x       y       z     vdW  Elec       q    Type
REMARK                         _______ _______ _______ _____ _____    ______ ____
ROOT
ATOM      1  N   UNL     1      -0.826   3.118   1.420  0.00  0.00    +0.391 N 
ATOM      2  H   UNL     1       0.145   3.523   1.099  0.00  0.00    -0.084 HD
ATOM      3  H   UNL     1      -1.061   3.484   2.430  0.00  0.00    -0.084 HD
ENDROOT
BRANCH   1   4
ATOM      4  C   UNL     1      -1.872   3.554   0.486  0.00  0.00    -0.043 C 
ATOM      5  C   UNL     1      -3.226   3.554   1.199  0.00  0.00    -0.009 C 
BRANCH   4   9
ATOM      6  C   UNL     1      -0.992   7.502  -0.896  0.00  0.00    +0.033 A 
ATOM      7  C   UNL     1      -1.495   6.553  -1.776  0.00  0.00    +0.023 A 
ATOM      8  C   UNL     1      -1.778   5.278  -1.327  0.00  0.00    +0.004 A 
ATOM      9  C   UNL     1      -1.561   4.946  -0.002  0.00  0.00    -0.062 A 
ATOM     10  C   UNL     1      -1.065   5.891   0.878  0.00  0.00    +0.004 A 
ATOM     11  C   UNL     1      -0.775   7.165   0.434  0.00  0.00    +0.023 A 
BRANCH   6  14
ATOM     12  C   UNL     1      -1.454   9.351  -2.320  0.00  0.00    +0.217 C 
ATOM     13  O   UNL     1      -2.435   8.772  -2.735  0.00  0.00    -0.275 OA
ATOM     14  N   UNL     1      -0.703   8.794  -1.349  0.00  0.00    -0.286 N 
ATOM     15  H   UNL     1       0.136   9.355  -0.912  0.00  0.00    +0.155 HD
BRANCH  12  17
ATOM     16  C   UNL     1      -2.081  11.094  -3.969  0.00  0.00    +0.013 C 
ATOM     17  C   UNL     1      -1.073  10.693  -2.891  0.00  0.00    +0.093 C 
ENDBRANCH  12  17
ENDBRANCH   6  14
ENDBRANCH   4   9
ENDBRANCH   1   4
BRANCH   1  18
ATOM     18  C   UNL     1      -0.734   1.652   1.460  0.00  0.00    +0.014 C 
ATOM     19  C   UNL     1       0.169   1.167   0.324  0.00  0.00    -0.004 C 
BRANCH  18  20
ATOM     20  C   UNL     1      -0.155   1.221   2.782  0.00  0.00    +0.206 C 
ATOM     21  O   UNL     1       0.152   2.052   3.610  0.00  0.00    -0.277 OA
ATOM     22  N   UNL     1       0.023  -0.089   3.045  0.00  0.00    -0.242 N 
ATOM     23  C   UNL     1       0.542  -0.475   4.228  0.00  0.00    +0.306 C 
ATOM     24  O   UNL     1       0.849   0.359   5.057  0.00  0.00    -0.252 OA
ATOM     25  N   UNL     1       0.720  -1.785   4.490  0.00  0.00    -0.299 N 
ATOM     26  H   UNL     1      -0.255  -0.843   2.294  0.00  0.00    +0.159 HD
ATOM     27  H   UNL     1       0.442  -2.539   3.740  0.00  0.00    +0.150 HD
BRANCH  25  28
ATOM     28  C   UNL     1       1.283  -2.204   5.776  0.00  0.00    +0.102 C 
ATOM     29  C   UNL     1       1.379  -3.730   5.817  0.00  0.00    +0.024 C 
ENDBRANCH  25  28
ENDBRANCH  18  20
ENDBRANCH   1  18
TORSDOF 7
