REMARK  Name = ZINC41035976
REMARK  5 active torsions:
REMARK  status: ('A' for Active; 'I' for Inactive)
REMARK    1  A    between atoms: C_1  and  C_2
REMARK    2  A    between atoms: C_7  and  C_9
REMARK    3  A    between atoms: C_7  and  N_12
REMARK    4  A    between atoms: N_15  and  C_16
REMARK    5  A    between atoms: C_19  and  O_22
REMARK                            x       y       z     vdW  Elec       q    Type
REMARK                         _______ _______ _______ _____ _____    ______ ____
ROOT
ATOM      1  N   UNL     1       1.448  -2.513   0.028  0.00  0.00    -0.284 N 
ATOM      2  C   UNL     1       1.588  -3.835  -0.194  0.00  0.00    +0.301 C 
ATOM      3  O   UNL     1       1.144  -4.636   0.606  0.00  0.00    -0.253 OA
ATOM      4  N   UNL     1       2.218  -4.270  -1.303  0.00  0.00    -0.297 N 
ATOM      5  H   UNL     1       1.802  -1.875  -0.611  0.00  0.00    +0.151 HD
ATOM      6  H   UNL     1       2.572  -3.631  -1.941  0.00  0.00    +0.151 HD
ENDROOT
BRANCH   1  12
ATOM      7  C   UNL     1      -0.019   1.526   0.010  0.00  0.00    +0.007 C 
ATOM      8  C   UNL     1       0.002  -0.004   0.002  0.00  0.00    -0.012 C 
ATOM      9  C   UNL     1      -1.433  -0.534   0.013  0.00  0.00    +0.003 C 
ATOM     10  C   UNL     1      -1.413  -2.063   0.004  0.00  0.00    +0.003 C 
ATOM     11  C   UNL     1      -0.673  -2.570   1.244  0.00  0.00    +0.037 C 
ATOM     12  C   UNL     1       0.763  -2.041   1.233  0.00  0.00    +0.137 C 
ATOM     13  C   UNL     1       0.742  -0.511   1.242  0.00  0.00    +0.040 C 
BRANCH  12  14
ATOM     14  C   UNL     1       1.492  -2.540   2.454  0.00  0.00    +0.379 C 
ATOM     15  O   UNL     1       2.491  -3.227   2.329  0.00  0.00    -0.244 OA
ATOM     16  O   UNL     1       1.082  -2.257   3.567  0.00  0.00    -0.244 OA
ENDBRANCH  12  14
ENDBRANCH   1  12
BRANCH   4  17
ATOM     17  C   UNL     1       2.370  -5.707  -1.544  0.00  0.00    +0.075 C 
ATOM     18  C   UNL     1       3.613  -6.219  -0.814  0.00  0.00    +0.025 C 
ATOM     19  C   UNL     1       4.849  -5.482  -1.333  0.00  0.00    +0.033 C 
ATOM     20  C   UNL     1       5.000  -5.734  -2.835  0.00  0.00    +0.115 C 
ATOM     21  C   UNL     1       3.756  -5.222  -3.565  0.00  0.00    +0.033 C 
ATOM     22  C   UNL     1       2.520  -5.959  -3.045  0.00  0.00    +0.025 C 
BRANCH  20  23
ATOM     23  O   UNL     1       6.154  -5.045  -3.320  0.00  0.00    -0.392 OA
ATOM     24  H   UNL     1       6.311  -5.161  -4.267  0.00  0.00    +0.210 HD
ENDBRANCH  20  23
ENDBRANCH   4  17
TORSDOF 4
