REMARK  Name = ZINC45042261
REMARK  4 active torsions:
REMARK  status: ('A' for Active; 'I' for Inactive)
REMARK    1  A    between atoms: C_1  and  C_2
REMARK    2  A    between atoms: C_2  and  N_8
REMARK    3  A    between atoms: N_8  and  C_9
REMARK    4  A    between atoms: C_14  and  N_15
REMARK                            x       y       z     vdW  Elec       q    Type
REMARK                         _______ _______ _______ _____ _____    ______ ____
ROOT
ATOM      1  C   UNL     1      -2.197  -0.063  -1.146  0.00  0.00    +0.050 A 
ATOM      2  C   UNL     1      -1.627   0.570  -2.240  0.00  0.00    +0.048 A 
ATOM      3  C   UNL     1      -2.415   0.913  -3.330  0.00  0.00    +0.038 A 
ATOM      4  C   UNL     1      -3.773   0.623  -3.325  0.00  0.00    -0.024 A 
ATOM      5  C   UNL     1      -4.344  -0.007  -2.235  0.00  0.00    +0.030 A 
ATOM      6  C   UNL     1      -3.560  -0.357  -1.146  0.00  0.00    +0.046 A 
ATOM      7  C   UNL     1      -4.623   0.997  -4.511  0.00  0.00    +0.046 C 
ATOM      8  C   UNL     1      -4.104   2.298  -5.123  0.00  0.00    +0.101 C 
ATOM      9  C   UNL     1      -2.614   2.215  -5.317  0.00  0.00    +0.218 C 
ATOM     10  O   UNL     1      -2.104   2.752  -6.277  0.00  0.00    -0.275 OA
ATOM     11  N   UNL     1      -1.842   1.553  -4.436  0.00  0.00    -0.285 N 
ATOM     12  H   UNL     1      -0.881   1.517  -4.569  0.00  0.00    +0.155 HD
ENDROOT
BRANCH   6  13
ATOM     13  N   UNL     1      -4.139  -1.002  -0.044  0.00  0.00    -0.357 N 
ATOM     14  H   UNL     1      -3.591  -1.244   0.720  0.00  0.00    +0.142 HD
ATOM     15  H   UNL     1      -5.087  -1.207  -0.044  0.00  0.00    +0.142 HD
ENDBRANCH   6  13
BRANCH   1  16
ATOM     16  N   UNL     1      -1.405  -0.410  -0.045  0.00  0.00    -0.337 N 
ATOM     17  H   UNL     1      -1.782  -0.936   0.677  0.00  0.00    +0.147 HD
BRANCH  16  19
ATOM     18  C   UNL     1       0.781  -0.644  -1.117  0.00  0.00    +0.031 C 
ATOM     19  C   UNL     1      -0.005   0.019   0.015  0.00  0.00    +0.029 C 
ATOM     20  C   UNL     1       0.596  -0.389   1.361  0.00  0.00    +0.025 C 
ATOM     21  C   UNL     1      -0.191   0.275   2.493  0.00  0.00    +0.002 C 
ATOM     22  C   UNL     1      -0.117   1.796   2.342  0.00  0.00    +0.000 C 
ATOM     23  C   UNL     1      -0.719   2.204   0.996  0.00  0.00    +0.002 C 
ATOM     24  C   UNL     1       0.068   1.540  -0.136  0.00  0.00    +0.025 C 
ENDBRANCH  16  19
ENDBRANCH   1  16
TORSDOF 3
