REMARK  Name = ZINC63503287
REMARK  5 active torsions:
REMARK  status: ('A' for Active; 'I' for Inactive)
REMARK    1  A    between atoms: C_4  and  N_7
REMARK    2  A    between atoms: C_8  and  S_24
REMARK    3  A    between atoms: S_24  and  C_25
REMARK    4  A    between atoms: C_25  and  C_26
REMARK    5  A    between atoms: C_30  and  N_35
REMARK                            x       y       z     vdW  Elec       q    Type
REMARK                         _______ _______ _______ _____ _____    ______ ____
ROOT
ATOM      1  N   UNL     1       3.652  -0.629  -0.068  0.00  0.00    -0.246 N 
ATOM      2  C   UNL     1       3.541  -2.074   0.046  0.00  0.00    +0.210 C 
ATOM      3  N   UNL     1       4.556  -2.737   0.870  0.00  0.00    -0.277 NA
ATOM      4  C   UNL     1       5.496  -1.781   1.433  0.00  0.00    +0.135 C 
ATOM      5  C   UNL     1       5.992  -0.927   0.227  0.00  0.00    +0.130 C 
ATOM      6  C   UNL     1       4.869   0.002  -0.096  0.00  0.00    +0.231 C 
ATOM      7  O   UNL     1       5.015   1.179  -0.350  0.00  0.00    -0.274 OA
ATOM      8  C   UNL     1       7.360  -0.406   0.443  0.00  0.00    -0.046 C 
ATOM      9  C   UNL     1       8.132  -1.133   1.264  0.00  0.00    -0.013 C 
ATOM     10  S   UNL     1       7.119  -2.507   1.880  0.00  0.00    -0.110 S 
ATOM     11  C   UNL     1       9.565  -0.870   1.620  0.00  0.00    +0.042 C 
ATOM     12  C   UNL     1      10.136   0.169   0.648  0.00  0.00    +0.005 C 
ATOM     13  C   UNL     1       9.142   1.330   0.540  0.00  0.00    +0.005 C 
ATOM     14  C   UNL     1       7.895   0.865  -0.210  0.00  0.00    +0.032 C 
ATOM     15  H   UNL     1       4.128  -3.292   1.595  0.00  0.00    +0.126 HD
ENDROOT
BRANCH   1  19
ATOM     16  C   UNL     1       0.180   1.658  -0.331  0.00  0.00    +0.000 A 
ATOM     17  C   UNL     1       0.689   1.317   0.908  0.00  0.00    +0.002 A 
ATOM     18  C   UNL     1       1.840   0.559   0.999  0.00  0.00    +0.023 A 
ATOM     19  C   UNL     1       2.486   0.139  -0.156  0.00  0.00    +0.039 A 
ATOM     20  C   UNL     1       1.972   0.482  -1.400  0.00  0.00    +0.023 A 
ATOM     21  C   UNL     1       0.820   1.240  -1.484  0.00  0.00    +0.002 A 
ENDBRANCH   1  19
BRANCH   2  22
ATOM     22  S   UNL     1       3.625  -2.780  -1.623  0.00  0.00    -0.118 S 
BRANCH  22  23
ATOM     23  C   UNL     1       3.025  -4.479  -1.411  0.00  0.00    +0.105 C 
BRANCH  23  24
ATOM     24  C   UNL     1       3.094  -5.204  -2.731  0.00  0.00    -0.032 C 
ATOM     25  C   UNL     1       4.094  -6.001  -3.170  0.00  0.00    -0.000 A 
ATOM     26  C   UNL     1       5.369  -6.417  -2.573  0.00  0.00    +0.012 A 
ATOM     27  C   UNL     1       6.182  -7.242  -3.271  0.00  0.00    +0.033 A 
ATOM     28  C   UNL     1       5.838  -7.710  -4.546  0.00  0.00    +0.128 A 
ATOM     29  C   UNL     1       4.684  -7.372  -5.160  0.00  0.00    +0.058 A 
ATOM     30  C   UNL     1       3.754  -6.509  -4.518  0.00  0.00    +0.045 A 
ATOM     31  N   UNL     1       2.589  -6.043  -4.898  0.00  0.00    -0.380 N 
ATOM     32  C   UNL     1       2.054  -5.192  -3.830  0.00  0.00    +0.145 C 
ATOM     33  H   UNL     1       2.152  -6.233  -5.743  0.00  0.00    +0.160 HD
BRANCH  28  34
ATOM     34  N   UNL     1       6.779  -8.610  -5.250  0.00  0.00    +0.056 N 
ATOM     35  O   UNL     1       7.819  -8.928  -4.723  0.00  0.00    -0.126 OA
ATOM     36  O   UNL     1       6.507  -9.028  -6.351  0.00  0.00    -0.126 OA
ENDBRANCH  28  34
ENDBRANCH  23  24
ENDBRANCH  22  23
ENDBRANCH   2  22
TORSDOF 5
