REMARK  Name = ZINC19973199
REMARK  10 active torsions:
REMARK  status: ('A' for Active; 'I' for Inactive)
REMARK    1  A    between atoms: C_1  and  C_2
REMARK    2  A    between atoms: C_4  and  C_40
REMARK    3  A    between atoms: C_7  and  C_14
REMARK    4  A    between atoms: C_14  and  C_16
REMARK    5  A    between atoms: C_14  and  N_27
REMARK    6  A    between atoms: N_20  and  C_21
REMARK    7  A    between atoms: N_27  and  C_28
REMARK    8  A    between atoms: N_27  and  C_34
REMARK    9  A    between atoms: C_28  and  C_29
REMARK   10  A    between atoms: C_34  and  C_35
REMARK                            x       y       z     vdW  Elec       q    Type
REMARK                         _______ _______ _______ _____ _____    ______ ____
ROOT
ATOM      1  C   UNL     1       3.759   1.416  -0.446  0.00  0.00    +0.163 C 
ENDROOT
BRANCH   1   8
ATOM      2  C   UNL     1       7.803   1.850   6.415  0.00  0.00    +0.044 C 
ATOM      3  C   UNL     1       7.124   1.550   5.104  0.00  0.00    -0.048 A 
ATOM      4  C   UNL     1       7.295   0.308   4.508  0.00  0.00    +0.007 A 
ATOM      5  C   UNL     1       6.688   0.016   3.320  0.00  0.00    -0.041 A 
ATOM      6  C   UNL     1       5.886   0.978   2.697  0.00  0.00    +0.002 A 
ATOM      7  C   UNL     1       5.217   0.697   1.425  0.00  0.00    +0.021 A 
ATOM      8  C   UNL     1       4.457   1.670   0.865  0.00  0.00    +0.042 A 
ATOM      9  C   UNL     1       4.313   2.918   1.508  0.00  0.00    +0.254 A 
ATOM     10  O   UNL     1       3.622   3.778   0.989  0.00  0.00    -0.268 OA
ATOM     11  N   UNL     1       4.919   3.184   2.678  0.00  0.00    -0.322 N 
ATOM     12  H   UNL     1       4.788   4.166   3.155  0.00  0.00    +0.169 HD
ATOM     13  C   UNL     1       5.710   2.239   3.297  0.00  0.00    +0.050 A 
ATOM     14  C   UNL     1       6.338   2.513   4.507  0.00  0.00    +0.029 A 
ATOM     15  C   UNL     1       6.881  -1.336   2.684  0.00  0.00    +0.044 C 
ENDBRANCH   1   8
BRANCH   1  16
ATOM     16  C   UNL     1       2.267   1.483  -0.242  0.00  0.00    +0.173 A 
ATOM     17  N   UNL     1       1.574   2.531   0.131  0.00  0.00    -0.111 NA
ATOM     18  N   UNL     1       0.334   2.187   0.192  0.00  0.00    -0.023 NA
ATOM     19  N   UNL     1       0.217   0.947  -0.132  0.00  0.00    -0.044 NA
ATOM     20  N   UNL     1       1.387   0.477  -0.407  0.00  0.00    -0.224 N 
BRANCH  20  21
ATOM     21  C   UNL     1       1.700  -0.893  -0.821  0.00  0.00    +0.111 C 
ATOM     22  C   UNL     1       0.959  -1.214  -2.120  0.00  0.00    +0.027 C 
ATOM     23  C   UNL     1       1.285  -2.645  -2.553  0.00  0.00    +0.002 C 
ATOM     24  C   UNL     1       0.845  -3.621  -1.460  0.00  0.00    +0.000 C 
ATOM     25  C   UNL     1       1.585  -3.300  -0.160  0.00  0.00    +0.002 C 
ATOM     26  C   UNL     1       1.259  -1.869   0.272  0.00  0.00    +0.027 C 
ENDBRANCH  20  21
ENDBRANCH   1  16
BRANCH   1  27
ATOM     27  N   UNL     1       4.165   2.434  -1.423  0.00  0.00    -0.277 NA
BRANCH  27  28
ATOM     28  C   UNL     1       3.420   2.285  -2.681  0.00  0.00    +0.160 C 
BRANCH  28  29
ATOM     29  C   UNL     1       2.071   2.942  -2.546  0.00  0.00    +0.119 A 
ATOM     30  C   UNL     1       1.814   4.252  -2.708  0.00  0.00    +0.046 A 
ATOM     31  C   UNL     1       0.428   4.428  -2.492  0.00  0.00    +0.041 A 
ATOM     32  C   UNL     1      -0.079   3.214  -2.211  0.00  0.00    +0.195 A 
ATOM     33  O   UNL     1       0.919   2.317  -2.251  0.00  0.00    -0.467 OA
ENDBRANCH  28  29
ENDBRANCH  27  28
BRANCH  27  34
ATOM     34  C   UNL     1       5.614   2.388  -1.661  0.00  0.00    +0.128 C 
BRANCH  34  35
ATOM     35  C   UNL     1       6.324   3.183  -0.595  0.00  0.00    +0.004 A 
ATOM     36  C   UNL     1       7.120   2.743   0.410  0.00  0.00    +0.012 A 
ATOM     37  C   UNL     1       7.672   3.664   1.280  0.00  0.00    +0.008 A 
ATOM     38  C   UNL     1       7.399   4.980   1.103  0.00  0.00    +0.045 A 
ATOM     39  S   UNL     1       6.340   4.948  -0.333  0.00  0.00    -0.100 S 
ENDBRANCH  34  35
ENDBRANCH  27  34
ENDBRANCH   1  27
TORSDOF 8
