REMARK  Name = ZINC36506293
REMARK  11 active torsions:
REMARK  status: ('A' for Active; 'I' for Inactive)
REMARK    1  A    between atoms: C_1  and  C_2
REMARK    2  A    between atoms: C_2  and  C_3
REMARK    3  A    between atoms: C_3  and  C_4
REMARK    4  A    between atoms: C_4  and  N_5
REMARK    5  A    between atoms: C_6  and  C_8
REMARK    6  A    between atoms: C_8  and  C_10
REMARK    7  A    between atoms: C_8  and  N_20
REMARK    8  A    between atoms: C_12  and  N_17
REMARK    9  A    between atoms: N_20  and  C_21
REMARK   10  A    between atoms: C_21  and  C_22
REMARK   11  A    between atoms: C_27  and  C_29
REMARK                            x       y       z     vdW  Elec       q    Type
REMARK                         _______ _______ _______ _____ _____    ______ ____
ROOT
ATOM      1  C   UNL     1      -3.706  -4.561  -0.187  0.00  0.00    +0.194 C 
ENDROOT
BRANCH   1   2
ATOM      2  C   UNL     1      -3.620  -4.325  -1.673  0.00  0.00    +0.002 A 
ATOM      3  C   UNL     1      -2.392  -4.342  -2.306  0.00  0.00    +0.040 A 
ATOM      4  C   UNL     1      -2.313  -4.125  -3.669  0.00  0.00    +0.127 A 
ATOM      5  C   UNL     1      -3.463  -3.890  -4.399  0.00  0.00    +0.034 A 
ATOM      6  C   UNL     1      -4.692  -3.873  -3.768  0.00  0.00    +0.022 A 
ATOM      7  C   UNL     1      -4.772  -4.096  -2.404  0.00  0.00    +0.047 A 
ATOM      8 CL   UNL     1      -6.316  -4.081  -1.611  0.00  0.00    -0.083 Cl
BRANCH   4   9
ATOM      9  N   UNL     1      -0.997  -4.144  -4.346  0.00  0.00    +0.056 N 
ATOM     10  O   UNL     1       0.009  -4.349  -3.707  0.00  0.00    -0.126 OA
ATOM     11  O   UNL     1      -0.928  -3.954  -5.538  0.00  0.00    -0.126 OA
ENDBRANCH   4   9
ENDBRANCH   1   2
BRANCH   1  13
ATOM     12  N   UNL     1      -1.908  -3.089   0.663  0.00  0.00    -0.313 N 
ATOM     13  C   UNL     1      -2.351  -4.342   0.435  0.00  0.00    +0.238 C 
ATOM     14  O   UNL     1      -1.659  -5.293   0.732  0.00  0.00    -0.273 OA
ATOM     15  H   UNL     1      -2.433  -2.329   0.369  0.00  0.00    +0.149 HD
BRANCH  12  16
ATOM     16  C   UNL     1      -0.634  -2.877   1.354  0.00  0.00    +0.104 C 
BRANCH  16  17
ATOM     17  C   UNL     1      -0.368  -1.375   1.483  0.00  0.00    +0.018 C 
BRANCH  17  19
ATOM     18  C   UNL     1       1.228   0.348   2.333  0.00  0.00    +0.004 C 
ATOM     19  C   UNL     1       0.963  -1.153   2.204  0.00  0.00    -0.002 C 
ENDBRANCH  17  19
ENDBRANCH  16  17
ENDBRANCH  12  16
ENDBRANCH   1  13
BRANCH   1  20
ATOM     20  N   UNL     1      -4.142  -5.937   0.065  0.00  0.00    -0.275 N 
ATOM     21  C   UNL     1      -3.827  -6.542   1.227  0.00  0.00    +0.248 C 
ATOM     22  O   UNL     1      -4.054  -7.727   1.377  0.00  0.00    -0.270 OA
BRANCH  21  23
ATOM     23  C   UNL     1      -3.207  -5.764   2.320  0.00  0.00    +0.037 A 
ATOM     24  C   UNL     1      -3.360  -4.377   2.367  0.00  0.00    +0.016 A 
ATOM     25  C   UNL     1      -2.779  -3.657   3.389  0.00  0.00    +0.039 A 
ATOM     26  C   UNL     1      -2.045  -4.307   4.369  0.00  0.00    +0.123 A 
ATOM     27  C   UNL     1      -1.890  -5.685   4.327  0.00  0.00    +0.039 A 
ATOM     28  C   UNL     1      -2.472  -6.415   3.313  0.00  0.00    +0.016 A 
ATOM     29  F   UNL     1      -1.477  -3.597   5.367  0.00  0.00    -0.205 F 
ENDBRANCH  21  23
BRANCH  20  30
ATOM     30  C   UNL     1      -4.920  -6.655  -0.948  0.00  0.00    +0.183 C 
BRANCH  30  31
ATOM     31  C   UNL     1      -3.995  -7.503  -1.784  0.00  0.00    +0.122 A 
ATOM     32  C   UNL     1      -3.716  -8.802  -1.575  0.00  0.00    +0.046 A 
ATOM     33  C   UNL     1      -2.810  -9.194  -2.588  0.00  0.00    +0.041 A 
ATOM     34  C   UNL     1      -2.590  -8.110  -3.354  0.00  0.00    +0.195 A 
ATOM     35  O   UNL     1      -3.315  -7.091  -2.866  0.00  0.00    -0.466 OA
ENDBRANCH  30  31
ENDBRANCH  20  30
ENDBRANCH   1  20
TORSDOF 10
