REMARK  Name = ZINC20734439
REMARK  13 active torsions:
REMARK  status: ('A' for Active; 'I' for Inactive)
REMARK    1  A    between atoms: C_1  and  C_2
REMARK    2  A    between atoms: C_2  and  C_3
REMARK    3  A    between atoms: C_3  and  C_4
REMARK    4  A    between atoms: C_4  and  O_5
REMARK    5  A    between atoms: O_5  and  C_6
REMARK    6  A    between atoms: C_9  and  C_12
REMARK    7  A    between atoms: C_12  and  C_14
REMARK    8  A    between atoms: C_12  and  N_15
REMARK    9  A    between atoms: C_16  and  C_18
REMARK   10  A    between atoms: N_24  and  C_38
REMARK   11  A    between atoms: C_28  and  C_29
REMARK   12  A    between atoms: C_34  and  O_35
REMARK   13  A    between atoms: O_35  and  C_36
REMARK                            x       y       z     vdW  Elec       q    Type
REMARK                         _______ _______ _______ _____ _____    ______ ____
ROOT
ATOM      1  C   UNL     1      -3.962   2.548   9.577  0.00  0.00    +0.039 A 
ATOM      2  C   UNL     1      -2.742   3.231   9.610  0.00  0.00    +0.014 A 
ATOM      3  C   UNL     1      -2.179   3.675   8.435  0.00  0.00    +0.017 A 
ATOM      4  C   UNL     1      -2.818   3.446   7.224  0.00  0.00    +0.034 A 
ATOM      5  C   UNL     1      -4.038   2.763   7.172  0.00  0.00    +0.051 A 
ATOM      6  C   UNL     1      -4.604   2.317   8.360  0.00  0.00    +0.037 A 
ATOM      7  N   UNL     1      -4.710   2.509   5.982  0.00  0.00    -0.269 N 
ATOM      8  C   UNL     1      -4.185   2.506   4.755  0.00  0.00    +0.257 C 
ATOM      9  O   UNL     1      -4.872   2.179   3.805  0.00  0.00    -0.269 OA
ATOM     10  C   UNL     1      -2.775   2.897   4.539  0.00  0.00    +0.076 C 
ATOM     11  C   UNL     1      -2.050   2.419   3.498  0.00  0.00    +0.031 C 
ATOM     12  S   UNL     1      -2.086   4.020   5.726  0.00  0.00    -0.082 S 
ATOM     13  C   UNL     1      -6.141   2.213   6.086  0.00  0.00    +0.138 C 
ENDROOT
BRANCH  11  14
ATOM     14  C   UNL     1      -2.601   1.358   2.644  0.00  0.00    +0.018 A 
ATOM     15  C   UNL     1      -3.316   0.298   3.213  0.00  0.00    +0.011 A 
ATOM     16  C   UNL     1      -3.825  -0.698   2.406  0.00  0.00    +0.001 A 
ATOM     17  C   UNL     1      -3.636  -0.650   1.035  0.00  0.00    +0.004 A 
ATOM     18  C   UNL     1      -2.937   0.394   0.460  0.00  0.00    +0.046 A 
ATOM     19  C   UNL     1      -2.418   1.403   1.253  0.00  0.00    +0.127 A 
BRANCH  19  20
ATOM     20  O   UNL     1      -1.731   2.430   0.689  0.00  0.00    -0.495 OA
ATOM     21  C   UNL     1      -1.579   2.406  -0.732  0.00  0.00    +0.277 C 
ENDBRANCH  19  20
ENDBRANCH  11  14
BRANCH   1  23
ATOM     22  N   UNL     1      -3.953   2.291  12.009  0.00  0.00    -0.305 N 
ATOM     23  C   UNL     1      -4.571   2.069  10.832  0.00  0.00    +0.245 C 
ATOM     24  O   UNL     1      -5.632   1.475  10.805  0.00  0.00    -0.270 OA
ATOM     25  H   UNL     1      -2.993   2.828  12.033  0.00  0.00    +0.150 HD
BRANCH  22  26
ATOM     26  C   UNL     1      -4.558   1.815  13.255  0.00  0.00    +0.100 C 
ATOM     27  C   UNL     1      -5.567   2.849  13.759  0.00  0.00    +0.033 C 
BRANCH  26  31
ATOM     28  C   UNL     1      -1.508   1.252  16.195  0.00  0.00    +0.121 A 
ATOM     29  C   UNL     1      -2.548   0.340  16.089  0.00  0.00    +0.046 A 
ATOM     30  C   UNL     1      -3.533   0.524  15.139  0.00  0.00    +0.009 A 
ATOM     31  C   UNL     1      -3.482   1.617  14.292  0.00  0.00    -0.027 A 
ATOM     32  C   UNL     1      -2.444   2.524  14.392  0.00  0.00    +0.009 A 
ATOM     33  C   UNL     1      -1.460   2.347  15.345  0.00  0.00    +0.046 A 
BRANCH  28  34
ATOM     34  O   UNL     1      -0.537   1.072  17.130  0.00  0.00    -0.492 OA
BRANCH  34  35
ATOM     35  C   UNL     1       0.502   2.051  17.181  0.00  0.00    +0.229 C 
BRANCH  35  36
ATOM     36  C   UNL     1       1.495   1.683  18.286  0.00  0.00    +0.041 C 
BRANCH  36  38
ATOM     37  C   UNL     1       3.600   2.363  19.446  0.00  0.00    +0.004 C 
ATOM     38  C   UNL     1       2.608   2.731  18.341  0.00  0.00    -0.000 C 
ENDBRANCH  36  38
ENDBRANCH  35  36
ENDBRANCH  34  35
ENDBRANCH  28  34
ENDBRANCH  26  31
ENDBRANCH  22  26
ENDBRANCH   1  23
TORSDOF 9
