REMARK  Name = ZINC67145027
REMARK  6 active torsions:
REMARK  status: ('A' for Active; 'I' for Inactive)
REMARK    1  A    between atoms: C_3  and  C_8
REMARK    2  A    between atoms: C_11  and  C_13
REMARK    3  A    between atoms: N_15  and  C_16
REMARK    4  A    between atoms: C_20  and  N_22
REMARK    5  A    between atoms: N_22  and  S_23
REMARK    6  A    between atoms: S_23  and  N_26
REMARK                            x       y       z     vdW  Elec       q    Type
REMARK                         _______ _______ _______ _____ _____    ______ ____
ROOT
ATOM      1  C   UNL     1       4.299   0.845   2.135  0.00  0.00    +0.221 C 
ATOM      2  O   UNL     1       3.315   0.151   1.988  0.00  0.00    -0.275 OA
ATOM      3  N   UNL     1       5.037   0.739   3.258  0.00  0.00    -0.285 N 
ATOM      4  H   UNL     1       5.865   1.237   3.343  0.00  0.00    +0.155 HD
ENDROOT
BRANCH   3   5
ATOM      5  C   UNL     1       4.609  -0.091   4.300  0.00  0.00    +0.035 A 
ATOM      6  C   UNL     1       5.541  -0.752   5.090  0.00  0.00    +0.023 A 
ATOM      7  C   UNL     1       5.120  -1.571   6.120  0.00  0.00    +0.004 A 
ATOM      8  C   UNL     1       3.770  -1.735   6.367  0.00  0.00    +0.024 A 
ATOM      9  C   UNL     1       2.833  -1.077   5.582  0.00  0.00    +0.051 A 
ATOM     10  C   UNL     1       3.254  -0.249   4.550  0.00  0.00    +0.047 A 
BRANCH   9  11
ATOM     11  N   UNL     1       1.469  -1.243   5.833  0.00  0.00    -0.207 N 
ATOM     12  H   UNL     1       0.856  -1.397   5.097  0.00  0.00    +0.175 HD
BRANCH  11  13
ATOM     13  S   UNL     1       0.899  -1.178   7.386  0.00  0.00    +0.107 S 
ATOM     14  O   UNL     1      -0.509  -1.353   7.310  0.00  0.00    -0.138 OA
ATOM     15  O   UNL     1       1.732  -2.030   8.161  0.00  0.00    -0.138 OA
BRANCH  13  16
ATOM     16  N   UNL     1       1.155   0.363   7.938  0.00  0.00    -0.191 NA
ATOM     17  H   UNL     1       1.573   1.021   7.361  0.00  0.00    +0.146 HD
ATOM     18  H   UNL     1       0.887   0.607   8.837  0.00  0.00    +0.146 HD
ENDBRANCH  13  16
ENDBRANCH  11  13
ENDBRANCH   9  11
ENDBRANCH   3   5
BRANCH   1  21
ATOM     19  C   UNL     1       3.817   1.900  -0.188  0.00  0.00    +0.032 C 
ATOM     20  C   UNL     1       5.203   1.256  -0.265  0.00  0.00    +0.022 C 
ATOM     21  C   UNL     1       4.696   1.826   1.062  0.00  0.00    +0.083 C 
BRANCH  19  24
ATOM     22  C   UNL     1       0.252   0.680  -0.430  0.00  0.00    +0.003 A 
ATOM     23  C   UNL     1       1.351   1.517  -0.370  0.00  0.00    +0.004 A 
ATOM     24  C   UNL     1       2.621   0.986  -0.253  0.00  0.00    -0.041 A 
ATOM     25  C   UNL     1       2.795  -0.384  -0.195  0.00  0.00    +0.042 A 
ATOM     26  C   UNL     1       1.696  -1.224  -0.254  0.00  0.00    +0.124 A 
ATOM     27  C   UNL     1       0.423  -0.690  -0.372  0.00  0.00    +0.038 A 
ATOM     28  F   UNL     1       1.864  -2.563  -0.198  0.00  0.00    -0.205 F 
ENDBRANCH  19  24
ENDBRANCH   1  21
TORSDOF 6
