REMARK  Name = ZINC35098303
REMARK  12 active torsions:
REMARK  status: ('A' for Active; 'I' for Inactive)
REMARK    1  A    between atoms: C_1  and  C_2
REMARK    2  A    between atoms: C_2  and  C_3
REMARK    3  A    between atoms: C_3  and  C_4
REMARK    4  A    between atoms: C_4  and  N_5
REMARK    5  A    between atoms: C_13  and  C_15
REMARK    6  A    between atoms: C_16  and  C_18
REMARK    7  A    between atoms: C_18  and  C_20
REMARK    8  A    between atoms: C_18  and  N_25
REMARK    9  A    between atoms: C_20  and  C_22
REMARK   10  A    between atoms: C_20  and  C_23
REMARK   11  A    between atoms: C_23  and  C_24
REMARK   12  A    between atoms: C_26  and  C_28
REMARK                            x       y       z     vdW  Elec       q    Type
REMARK                         _______ _______ _______ _____ _____    ______ ____
ROOT
ATOM      1  N   UNL     1      -0.398  -0.975  -2.873  0.00  0.00    -0.299 N 
ATOM      2  C   UNL     1       0.182  -2.184  -2.742  0.00  0.00    +0.303 C 
ATOM      3  O   UNL     1      -0.002  -2.840  -1.735  0.00  0.00    -0.253 OA
ATOM      4  N   UNL     1       0.966  -2.666  -3.727  0.00  0.00    -0.280 N 
ATOM      5  C   UNL     1       1.291  -1.839  -4.897  0.00  0.00    +0.128 C 
ATOM      6  C   UNL     1       0.886  -2.602  -6.164  0.00  0.00    +0.127 C 
ATOM      7  N   UNL     1       1.432  -3.964  -6.086  0.00  0.00    -0.297 N 
ATOM      8  C   UNL     1       1.108  -4.792  -4.916  0.00  0.00    +0.130 C 
ATOM      9  C   UNL     1       1.517  -4.026  -3.646  0.00  0.00    +0.092 C 
ATOM     10  C   UNL     1       3.043  -3.958  -3.553  0.00  0.00    +0.030 C 
ATOM     11  C   UNL     1       2.216  -4.446  -7.071  0.00  0.00    +0.236 C 
ATOM     12  O   UNL     1       2.588  -5.601  -7.040  0.00  0.00    -0.274 OA
ATOM     13  H   UNL     1      -0.194  -0.420  -3.643  0.00  0.00    +0.150 HD
ENDROOT
BRANCH   1  14
ATOM     14  C   UNL     1      -1.335  -0.497  -1.854  0.00  0.00    +0.106 C 
BRANCH  14  15
ATOM     15  C   UNL     1      -1.846   0.892  -2.241  0.00  0.00    +0.018 C 
BRANCH  15  17
ATOM     16  C   UNL     1      -3.335   2.780  -1.564  0.00  0.00    +0.004 C 
ATOM     17  C   UNL     1      -2.825   1.391  -1.177  0.00  0.00    -0.002 C 
ENDBRANCH  15  17
ENDBRANCH  14  15
ENDBRANCH   1  14
BRANCH  11  18
ATOM     18  C   UNL     1       2.631  -3.551  -8.210  0.00  0.00    +0.162 C 
BRANCH  18  19
ATOM     19  N   UNL     1       3.687  -4.206  -8.986  0.00  0.00    -0.300 N 
ATOM     20  C   UNL     1       4.694  -3.476  -9.504  0.00  0.00    +0.245 C 
ATOM     21  O   UNL     1       4.777  -2.289  -9.252  0.00  0.00    -0.270 OA
ATOM     22  H   UNL     1       3.661  -5.165  -9.128  0.00  0.00    +0.150 HD
BRANCH  20  23
ATOM     23  C   UNL     1       5.700  -4.117 -10.377  0.00  0.00    +0.037 A 
ATOM     24  C   UNL     1       5.605  -5.478 -10.672  0.00  0.00    +0.014 A 
ATOM     25  C   UNL     1       6.546  -6.071 -11.488  0.00  0.00    +0.016 A 
ATOM     26  C   UNL     1       7.583  -5.319 -12.013  0.00  0.00    +0.018 A 
ATOM     27  C   UNL     1       7.683  -3.969 -11.724  0.00  0.00    +0.016 A 
ATOM     28  C   UNL     1       6.745  -3.363 -10.914  0.00  0.00    +0.014 A 
ATOM     29 BR   UNL     1       8.869  -6.140 -13.130  0.00  0.00    -0.050 Br
ENDBRANCH  20  23
ENDBRANCH  18  19
BRANCH  18  30
ATOM     30  C   UNL     1       1.425  -3.284  -9.114  0.00  0.00    +0.015 C 
ATOM     31  C   UNL     1       1.811  -2.269 -10.192  0.00  0.00    +0.010 C 
BRANCH  30  32
ATOM     32  C   UNL     1       0.986  -4.591  -9.778  0.00  0.00    +0.002 C 
ATOM     33  C   UNL     1       0.342  -5.503  -8.732  0.00  0.00    +0.004 C 
ENDBRANCH  30  32
ENDBRANCH  18  30
ENDBRANCH  11  18
TORSDOF 8
