REMARK  Name = ZINC09162996
REMARK  8 active torsions:
REMARK  status: ('A' for Active; 'I' for Inactive)
REMARK    1  A    between atoms: C_1  and  C_2
REMARK    2  A    between atoms: C_5  and  N_9
REMARK    3  A    between atoms: C_6  and  C_8
REMARK    4  A    between atoms: C_10  and  S_14
REMARK    5  A    between atoms: S_14  and  C_15
REMARK    6  A    between atoms: C_15  and  C_16
REMARK    7  A    between atoms: N_22  and  C_23
REMARK    8  A    between atoms: C_28  and  C_29
REMARK                            x       y       z     vdW  Elec       q    Type
REMARK                         _______ _______ _______ _____ _____    ______ ____
ROOT
ATOM      1  C   UNL     1      -0.130   7.466   0.502  0.00  0.00    +0.146 A 
ATOM      2  N   UNL     1       0.193   8.120  -0.600  0.00  0.00    -0.199 NA
ATOM      3  C   UNL     1       0.765   9.320  -0.521  0.00  0.00    +0.217 A 
ATOM      4  N   UNL     1       1.011   9.859   0.668  0.00  0.00    -0.181 NA
ATOM      5  C   UNL     1       0.685   9.198   1.774  0.00  0.00    +0.224 A 
ATOM      6  N   UNL     1       0.108   8.002   1.687  0.00  0.00    -0.198 NA
ATOM      7  N   UNL     1       0.940   9.755   3.012  0.00  0.00    -0.283 N 
ATOM      8  N   UNL     1       1.102  10.001  -1.672  0.00  0.00    -0.327 N 
ATOM      9  H   UNL     1       0.624   9.314   3.816  0.00  0.00    +0.155 HD
ATOM     10  H   UNL     1       0.922   9.607  -2.540  0.00  0.00    +0.145 HD
ATOM     11  H   UNL     1       1.519  10.875  -1.614  0.00  0.00    +0.145 HD
ENDROOT
BRANCH   7  12
ATOM     12  C   UNL     1       1.653  10.954   3.107  0.00  0.00    +0.036 A 
ATOM     13  C   UNL     1       2.602  11.278   2.145  0.00  0.00    +0.023 A 
ATOM     14  C   UNL     1       3.301  12.464   2.239  0.00  0.00    +0.002 A 
ATOM     15  C   UNL     1       3.065  13.326   3.294  0.00  0.00    +0.000 A 
ATOM     16  C   UNL     1       2.125  13.005   4.256  0.00  0.00    +0.005 A 
ATOM     17  C   UNL     1       1.419  11.821   4.165  0.00  0.00    -0.029 A 
ATOM     18  C   UNL     1       0.395  11.472   5.215  0.00  0.00    +0.045 C 
ENDBRANCH   7  12
BRANCH   1  19
ATOM     19  C   UNL     1      -0.778   6.109   0.408  0.00  0.00    +0.153 C 
BRANCH  19  20
ATOM     20  S   UNL     1       0.502   4.830   0.385  0.00  0.00    -0.076 S 
BRANCH  20  22
ATOM     21  N   UNL     1      -0.075   2.104   0.221  0.00  0.00    -0.187 N 
ATOM     22  C   UNL     1      -0.507   3.389   0.274  0.00  0.00    +0.214 A 
ATOM     23  N   UNL     1      -1.821   3.357   0.224  0.00  0.00    -0.101 NA
ATOM     24  N   UNL     1      -2.239   2.145   0.153  0.00  0.00    -0.022 NA
ATOM     25  N   UNL     1      -1.243   1.326   0.147  0.00  0.00    -0.038 NA
BRANCH  21  30
ATOM     26  C   UNL     1       5.290   0.253   0.293  0.00  0.00    +0.044 C 
ATOM     27  C   UNL     1       3.866   0.746   0.276  0.00  0.00    -0.050 A 
ATOM     28  C   UNL     1       3.521   1.831  -0.510  0.00  0.00    +0.005 A 
ATOM     29  C   UNL     1       2.217   2.284  -0.528  0.00  0.00    +0.028 A 
ATOM     30  C   UNL     1       1.252   1.650   0.242  0.00  0.00    +0.073 A 
ATOM     31  C   UNL     1       1.601   0.561   1.030  0.00  0.00    -0.025 A 
ATOM     32  C   UNL     1       2.908   0.112   1.044  0.00  0.00    +0.008 A 
ATOM     33  C   UNL     1       0.556  -0.130   1.867  0.00  0.00    +0.046 C 
ENDBRANCH  21  30
ENDBRANCH  20  22
ENDBRANCH  19  20
ENDBRANCH   1  19
TORSDOF 5
