REMARK  Name = ZINC35747670
REMARK  13 active torsions:
REMARK  status: ('A' for Active; 'I' for Inactive)
REMARK    1  A    between atoms: C_1  and  C_2
REMARK    2  A    between atoms: C_5  and  C_9
REMARK    3  A    between atoms: C_6  and  C_8
REMARK    4  A    between atoms: C_18  and  C_20
REMARK    5  A    between atoms: C_20  and  N_21
REMARK    6  A    between atoms: N_21  and  C_22
REMARK    7  A    between atoms: N_21  and  C_28
REMARK    8  A    between atoms: C_22  and  C_23
REMARK    9  A    between atoms: C_28  and  C_29
REMARK   10  A    between atoms: C_29  and  C_31
REMARK   11  A    between atoms: C_29  and  O_35
REMARK   12  A    between atoms: C_31  and  C_32
REMARK   13  A    between atoms: C_32  and  C_33
REMARK                            x       y       z     vdW  Elec       q    Type
REMARK                         _______ _______ _______ _____ _____    ______ ____
ROOT
ATOM      1  C   UNL     1       0.919  -4.559   0.454  0.00  0.00    +0.004 A 
ATOM      2  C   UNL     1       1.989  -5.346   0.186  0.00  0.00    +0.056 A 
ATOM      3  S   UNL     1       1.337  -6.997   0.343  0.00  0.00    -0.076 S 
ATOM      4  C   UNL     1      -0.341  -6.597   0.761  0.00  0.00    +0.116 A 
ATOM      5  C   UNL     1      -0.354  -5.192   0.775  0.00  0.00    +0.080 A 
ATOM      6  C   UNL     1      -1.611  -4.588   1.095  0.00  0.00    +0.260 A 
ATOM      7  O   UNL     1      -1.724  -3.374   1.127  0.00  0.00    -0.267 OA
ATOM      8  N   UNL     1      -2.667  -5.379   1.360  0.00  0.00    -0.312 N 
ATOM      9  H   UNL     1      -3.522  -4.975   1.577  0.00  0.00    +0.170 HD
ATOM     10  C   UNL     1      -2.560  -6.732   1.327  0.00  0.00    +0.094 A 
ATOM     11  N   UNL     1      -1.429  -7.313   1.028  0.00  0.00    -0.229 NA
ENDROOT
BRANCH   1  16
ATOM     12  C   UNL     1       1.397   1.178   0.352  0.00  0.00    +0.044 C 
ATOM     13  C   UNL     1       1.272  -0.323   0.379  0.00  0.00    -0.050 A 
ATOM     14  C   UNL     1       1.438  -1.050  -0.787  0.00  0.00    +0.004 A 
ATOM     15  C   UNL     1       1.325  -2.425  -0.769  0.00  0.00    +0.009 A 
ATOM     16  C   UNL     1       1.043  -3.082   0.428  0.00  0.00    -0.014 A 
ATOM     17  C   UNL     1       0.877  -2.345   1.600  0.00  0.00    -0.042 A 
ATOM     18  C   UNL     1       0.998  -0.971   1.570  0.00  0.00    +0.007 A 
ATOM     19  C   UNL     1       0.572  -3.049   2.897  0.00  0.00    +0.044 C 
ENDBRANCH   1  16
BRANCH  10  20
ATOM     20  C   UNL     1      -3.770  -7.578   1.630  0.00  0.00    -0.003 C 
BRANCH  20  21
ATOM     21  N   UNL     1      -3.411  -8.999   1.534  0.00  0.00    +0.391 N 
ATOM     22  H   UNL     1      -3.007  -9.183   0.627  0.00  0.00    -0.080 HD
BRANCH  21  23
ATOM     23  C   UNL     1      -2.434  -9.329   2.580  0.00  0.00    -0.002 C 
BRANCH  23  24
ATOM     24  C   UNL     1      -1.957 -10.746   2.393  0.00  0.00    +0.089 A 
ATOM     25  C   UNL     1      -0.967 -11.142   1.573  0.00  0.00    +0.042 A 
ATOM     26  C   UNL     1      -0.856 -12.544   1.711  0.00  0.00    +0.041 A 
ATOM     27  C   UNL     1      -1.784 -12.922   2.608  0.00  0.00    +0.195 A 
ATOM     28  O   UNL     1      -2.444 -11.829   3.022  0.00  0.00    -0.470 OA
ENDBRANCH  23  24
ENDBRANCH  21  23
BRANCH  21  29
ATOM     29  C   UNL     1      -4.615  -9.822   1.710  0.00  0.00    -0.046 C 
BRANCH  29  30
ATOM     30  C   UNL     1      -5.572  -9.584   0.541  0.00  0.00    +0.098 C 
BRANCH  30  31
ATOM     31  O   UNL     1      -4.939  -9.975  -0.679  0.00  0.00    -0.394 OA
ATOM     32  H   UNL     1      -4.742 -10.920  -0.734  0.00  0.00    +0.210 HD
ENDBRANCH  30  31
BRANCH  30  33
ATOM     33  C   UNL     1      -6.843 -10.411   0.745  0.00  0.00    +0.033 C 
BRANCH  33  34
ATOM     34  C   UNL     1      -7.850 -10.078  -0.357  0.00  0.00    +0.029 C 
BRANCH  34  35
ATOM     35  C   UNL     1      -9.102 -10.893  -0.157  0.00  0.00    -0.034 C 
ATOM     36  C   UNL     1     -10.264 -10.296  -0.068  0.00  0.00    +0.004 C 
ENDBRANCH  34  35
ENDBRANCH  33  34
ENDBRANCH  30  33
ENDBRANCH  29  30
ENDBRANCH  21  29
ENDBRANCH  20  21
ENDBRANCH  10  20
TORSDOF 11
