REMARK  Name = ZINC57608256
REMARK  10 active torsions:
REMARK  status: ('A' for Active; 'I' for Inactive)
REMARK    1  A    between atoms: C_1  and  C_2
REMARK    2  A    between atoms: C_7  and  C_14
REMARK    3  A    between atoms: C_14  and  C_16
REMARK    4  A    between atoms: C_14  and  N_28
REMARK    5  A    between atoms: N_20  and  C_21
REMARK    6  A    between atoms: C_21  and  C_22
REMARK    7  A    between atoms: N_28  and  C_29
REMARK    8  A    between atoms: N_28  and  C_36
REMARK    9  A    between atoms: C_29  and  C_30
REMARK   10  A    between atoms: C_36  and  C_37
REMARK                            x       y       z     vdW  Elec       q    Type
REMARK                         _______ _______ _______ _____ _____    ______ ____
ROOT
ATOM      1  C   UNL     1       1.481  -6.583   2.125  0.00  0.00    +0.163 C 
ENDROOT
BRANCH   1   8
ATOM      2  C   UNL     1      -0.106   1.110   0.742  0.00  0.00    +0.044 C 
ATOM      3  C   UNL     1       0.299  -0.341   0.795  0.00  0.00    -0.048 A 
ATOM      4  C   UNL     1       1.001  -0.897  -0.266  0.00  0.00    +0.004 A 
ATOM      5  C   UNL     1       1.378  -2.210  -0.238  0.00  0.00    +0.010 A 
ATOM      6  C   UNL     1       1.052  -3.001   0.868  0.00  0.00    -0.001 A 
ATOM      7  C   UNL     1       1.440  -4.411   0.931  0.00  0.00    +0.021 A 
ATOM      8  C   UNL     1       1.098  -5.129   2.029  0.00  0.00    +0.042 A 
ATOM      9  C   UNL     1       0.383  -4.520   3.082  0.00  0.00    +0.254 A 
ATOM     10  O   UNL     1       0.085  -5.183   4.060  0.00  0.00    -0.268 OA
ATOM     11  N   UNL     1       0.022  -3.225   3.034  0.00  0.00    -0.322 N 
ATOM     12  H   UNL     1      -0.469  -2.838   3.775  0.00  0.00    +0.169 HD
ATOM     13  C   UNL     1       0.340  -2.441   1.945  0.00  0.00    +0.049 A 
ATOM     14  C   UNL     1      -0.028  -1.100   1.897  0.00  0.00    +0.029 A 
ENDBRANCH   1   8
BRANCH   1  15
ATOM     15  C   UNL     1       0.238  -7.422   2.278  0.00  0.00    +0.173 A 
ATOM     16  N   UNL     1      -0.518  -7.513   3.345  0.00  0.00    -0.111 NA
ATOM     17  N   UNL     1      -1.481  -8.327   3.081  0.00  0.00    -0.023 NA
ATOM     18  N   UNL     1      -1.359  -8.757   1.873  0.00  0.00    -0.044 NA
ATOM     19  N   UNL     1      -0.314  -8.217   1.343  0.00  0.00    -0.223 N 
BRANCH  19  20
ATOM     20  C   UNL     1       0.181  -8.433  -0.019  0.00  0.00    +0.182 C 
BRANCH  20  21
ATOM     21  C   UNL     1       1.145  -9.591  -0.025  0.00  0.00    -0.026 A 
ATOM     22  C   UNL     1       2.490  -9.372   0.209  0.00  0.00    +0.005 A 
ATOM     23  C   UNL     1       3.375 -10.434   0.203  0.00  0.00    +0.000 A 
ATOM     24  C   UNL     1       2.915 -11.715  -0.036  0.00  0.00    +0.000 A 
ATOM     25  C   UNL     1       1.570 -11.935  -0.269  0.00  0.00    +0.000 A 
ATOM     26  C   UNL     1       0.685 -10.873  -0.259  0.00  0.00    +0.005 A 
ENDBRANCH  20  21
ENDBRANCH  19  20
ENDBRANCH   1  15
BRANCH   1  27
ATOM     27  N   UNL     1       2.353  -6.784   3.290  0.00  0.00    -0.277 NA
BRANCH  27  28
ATOM     28  C   UNL     1       3.554  -5.942   3.200  0.00  0.00    +0.121 C 
BRANCH  28  29
ATOM     29  C   UNL     1       3.375  -4.718   4.061  0.00  0.00    -0.033 A 
ATOM     30  C   UNL     1       2.905  -3.544   3.502  0.00  0.00    +0.005 A 
ATOM     31  C   UNL     1       2.741  -2.421   4.291  0.00  0.00    +0.000 A 
ATOM     32  C   UNL     1       3.047  -2.472   5.639  0.00  0.00    +0.000 A 
ATOM     33  C   UNL     1       3.515  -3.647   6.197  0.00  0.00    +0.000 A 
ATOM     34  C   UNL     1       3.675  -4.771   5.409  0.00  0.00    +0.005 A 
ENDBRANCH  28  29
ENDBRANCH  27  28
BRANCH  27  35
ATOM     35  C   UNL     1       2.713  -8.200   3.441  0.00  0.00    +0.160 C 
BRANCH  35  36
ATOM     36  C   UNL     1       1.572  -8.942   4.088  0.00  0.00    +0.119 A 
ATOM     37  C   UNL     1       0.722  -9.777   3.464  0.00  0.00    +0.046 A 
ATOM     38  C   UNL     1      -0.183 -10.247   4.442  0.00  0.00    +0.041 A 
ATOM     39  C   UNL     1       0.167  -9.671   5.606  0.00  0.00    +0.195 A 
ATOM     40  O   UNL     1       1.234  -8.886   5.387  0.00  0.00    -0.467 OA
ENDBRANCH  35  36
ENDBRANCH  27  35
ENDBRANCH   1  27
TORSDOF 9
