REMARK  Name = ZINC00888617
REMARK  11 active torsions:
REMARK  status: ('A' for Active; 'I' for Inactive)
REMARK    1  A    between atoms: C_1  and  C_2
REMARK    2  A    between atoms: C_5  and  C_7
REMARK    3  A    between atoms: N_10  and  C_12
REMARK    4  A    between atoms: C_12  and  C_13
REMARK    5  A    between atoms: N_15  and  C_16
REMARK    6  A    between atoms: N_15  and  C_22
REMARK    7  A    between atoms: C_16  and  C_17
REMARK    8  A    between atoms: C_22  and  C_24
REMARK    9  A    between atoms: C_22  and  C_31
REMARK   10  A    between atoms: N_33  and  C_34
REMARK   11  A    between atoms: C_34  and  C_35
REMARK                            x       y       z     vdW  Elec       q    Type
REMARK                         _______ _______ _______ _____ _____    ______ ____
ROOT
ATOM      1  C   UNL     1       4.926  -5.009  -2.143  0.00  0.00    +0.240 C 
ATOM      2  O   UNL     1       4.455  -5.133  -3.254  0.00  0.00    -0.273 OA
ATOM      3  N   UNL     1       6.198  -5.388  -1.905  0.00  0.00    -0.279 N 
ENDROOT
BRANCH   1   4
ATOM      4  C   UNL     1       4.090  -4.433  -1.030  0.00  0.00    +0.264 C 
BRANCH   4   8
ATOM      5  C   UNL     1       1.141  -3.053  -2.393  0.00  0.00    +0.239 A 
ATOM      6  N   UNL     1       0.735  -4.290  -2.067  0.00  0.00    -0.105 NA
ATOM      7  N   UNL     1       1.747  -4.901  -1.550  0.00  0.00    -0.045 NA
ATOM      8  N   UNL     1       2.757  -4.104  -1.540  0.00  0.00    -0.154 N 
ATOM      9  N   UNL     1       2.415  -2.973  -2.055  0.00  0.00    -0.127 NA
BRANCH   5  14
ATOM     10  C   UNL     1      -0.191   1.360  -4.381  0.00  0.00    +0.086 C 
ATOM     11  C   UNL     1      -0.264  -0.061  -3.886  0.00  0.00    +0.103 A 
ATOM     12  C   UNL     1      -1.357  -0.849  -3.916  0.00  0.00    +0.045 A 
ATOM     13  C   UNL     1      -0.987  -2.089  -3.359  0.00  0.00    +0.053 A 
ATOM     14  C   UNL     1       0.324  -1.990  -3.016  0.00  0.00    +0.175 A 
ATOM     15  O   UNL     1       0.751  -0.756  -3.347  0.00  0.00    -0.457 OA
ENDBRANCH   5  14
ENDBRANCH   4   8
ENDBRANCH   1   4
BRANCH   3  16
ATOM     16  C   UNL     1       6.767  -5.238  -0.564  0.00  0.00    +0.151 C 
BRANCH  16  17
ATOM     17  C   UNL     1       6.310  -6.380   0.306  0.00  0.00    +0.007 A 
ATOM     18  C   UNL     1       6.961  -7.527   0.622  0.00  0.00    +0.013 A 
ATOM     19  C   UNL     1       6.341  -8.444   1.449  0.00  0.00    +0.008 A 
ATOM     20  C   UNL     1       5.099  -8.171   1.919  0.00  0.00    +0.045 A 
ATOM     21  S   UNL     1       4.773  -6.572   1.195  0.00  0.00    -0.100 S 
ENDBRANCH  16  17
ENDBRANCH   3  16
BRANCH   3  22
ATOM     22  C   UNL     1       7.011  -5.948  -2.987  0.00  0.00    +0.193 C 
BRANCH  22  23
ATOM     23  C   UNL     1       7.430  -4.844  -3.924  0.00  0.00    -0.018 A 
ATOM     24  C   UNL     1       7.756  -3.598  -3.421  0.00  0.00    +0.009 A 
ATOM     25  C   UNL     1       8.141  -2.586  -4.279  0.00  0.00    +0.038 A 
ATOM     26  C   UNL     1       8.201  -2.819  -5.642  0.00  0.00    +0.123 A 
ATOM     27  C   UNL     1       7.875  -4.067  -6.145  0.00  0.00    +0.038 A 
ATOM     28  C   UNL     1       7.495  -5.080  -5.285  0.00  0.00    +0.009 A 
ATOM     29  F   UNL     1       8.577  -1.830  -6.482  0.00  0.00    -0.205 F 
ENDBRANCH  22  23
BRANCH  22  30
ATOM     30  C   UNL     1       8.236  -6.607  -2.407  0.00  0.00    +0.238 C 
ATOM     31  O   UNL     1       8.325  -6.772  -1.208  0.00  0.00    -0.273 OA
ATOM     32  N   UNL     1       9.232  -7.012  -3.219  0.00  0.00    -0.311 N 
ATOM     33  H   UNL     1       9.161  -6.879  -4.177  0.00  0.00    +0.149 HD
BRANCH  32  34
ATOM     34  C   UNL     1      10.422  -7.652  -2.654  0.00  0.00    +0.135 C 
BRANCH  34  35
ATOM     35  C   UNL     1      11.392  -8.011  -3.782  0.00  0.00    +0.135 C 
ATOM     36  C   UNL     1      12.593  -8.794  -3.211  0.00  0.00    +0.035 C 
ATOM     37  C   UNL     1      13.781  -8.217  -4.028  0.00  0.00    +0.031 C 
ATOM     38  C   UNL     1      13.325  -6.748  -4.212  0.00  0.00    +0.160 C 
ATOM     39  O   UNL     1      11.899  -6.816  -4.386  0.00  0.00    -0.375 OA
ENDBRANCH  34  35
ENDBRANCH  32  34
ENDBRANCH  22  30
ENDBRANCH   3  22
TORSDOF 10
