REMARK  Name = ZINC09056381
REMARK  10 active torsions:
REMARK  status: ('A' for Active; 'I' for Inactive)
REMARK    1  A    between atoms: C_1  and  C_2
REMARK    2  A    between atoms: C_2  and  C_4
REMARK    3  A    between atoms: C_2  and  S_17
REMARK    4  A    between atoms: N_6  and  C_7
REMARK    5  A    between atoms: C_7  and  C_8
REMARK    6  A    between atoms: S_17  and  C_18
REMARK    7  A    between atoms: C_21  and  C_24
REMARK    8  A    between atoms: N_22  and  C_23
REMARK    9  A    between atoms: C_24  and  O_25
REMARK   10  A    between atoms: O_25  and  C_26
REMARK                            x       y       z     vdW  Elec       q    Type
REMARK                         _______ _______ _______ _____ _____    ______ ____
ROOT
ATOM      1  C   UNL     1       8.809  -0.436  -0.316  0.00  0.00    +0.029 C 
ATOM      2  C   UNL     1       8.326  -1.665   0.457  0.00  0.00    +0.137 C 
ENDROOT
BRANCH   2   3
ATOM      3  C   UNL     1       7.355  -1.236   1.526  0.00  0.00    +0.226 C 
ATOM      4  O   UNL     1       7.746  -1.037   2.657  0.00  0.00    -0.275 OA
ATOM      5  N   UNL     1       6.051  -1.073   1.226  0.00  0.00    -0.310 N 
ATOM      6  H   UNL     1       5.738  -1.231   0.322  0.00  0.00    +0.149 HD
BRANCH   5   7
ATOM      7  C   UNL     1       5.107  -0.655   2.265  0.00  0.00    +0.139 C 
BRANCH   7   8
ATOM      8  C   UNL     1       3.725  -0.548   1.674  0.00  0.00    -0.027 A 
ATOM      9  C   UNL     1       2.885  -1.646   1.677  0.00  0.00    +0.009 A 
ATOM     10  C   UNL     1       1.617  -1.553   1.135  0.00  0.00    +0.050 A 
ATOM     11  C   UNL     1       1.183  -0.356   0.589  0.00  0.00    +0.166 A 
ATOM     12  C   UNL     1       2.028   0.751   0.586  0.00  0.00    +0.167 A 
ATOM     13  C   UNL     1       3.298   0.650   1.131  0.00  0.00    +0.054 A 
ATOM     14  O   UNL     1       1.376   1.797  -0.001  0.00  0.00    -0.453 OA
ATOM     15  C   UNL     1      -0.018   1.436   0.010  0.00  0.00    +0.466 C 
ATOM     16  O   UNL     1       0.002  -0.004   0.002  0.00  0.00    -0.453 OA
ENDBRANCH   7   8
ENDBRANCH   5   7
ENDBRANCH   2   3
BRANCH   2  17
ATOM     17  S   UNL     1       9.743  -2.489   1.225  0.00  0.00    -0.074 S 
BRANCH  17  18
ATOM     18  C   UNL     1      10.615  -3.005  -0.216  0.00  0.00    +0.192 A 
ATOM     19  N   UNL     1      10.255  -2.799  -1.462  0.00  0.00    -0.122 NA
ATOM     20  N   UNL     1      11.124  -3.311  -2.258  0.00  0.00    -0.130 NA
ATOM     21  C   UNL     1      12.083  -3.869  -1.574  0.00  0.00    +0.172 A 
ATOM     22  N   UNL     1      11.796  -3.689  -0.249  0.00  0.00    -0.306 N 
ATOM     23  C   UNL     1      12.590  -4.140   0.897  0.00  0.00    +0.153 C 
BRANCH  21  24
ATOM     24  C   UNL     1      13.288  -4.576  -2.139  0.00  0.00    +0.305 C 
BRANCH  24  25
ATOM     25  O   UNL     1      14.349  -3.637  -2.323  0.00  0.00    -0.484 OA
BRANCH  25  26
ATOM     26  C   UNL     1      15.516  -4.115  -2.829  0.00  0.00    +0.121 A 
ATOM     27  C   UNL     1      15.639  -5.463  -3.136  0.00  0.00    +0.047 A 
ATOM     28  C   UNL     1      16.825  -5.946  -3.654  0.00  0.00    +0.023 A 
ATOM     29  C   UNL     1      17.893  -5.090  -3.857  0.00  0.00    +0.041 A 
ATOM     30  C   UNL     1      17.774  -3.747  -3.546  0.00  0.00    +0.023 A 
ATOM     31  C   UNL     1      16.588  -3.259  -3.033  0.00  0.00    +0.047 A 
ATOM     32 CL   UNL     1      19.384  -5.701  -4.503  0.00  0.00    -0.084 Cl
ENDBRANCH  25  26
ENDBRANCH  24  25
ENDBRANCH  21  24
ENDBRANCH  17  18
ENDBRANCH   2  17
TORSDOF 8
