REMARK  Name = ZINC36013945
REMARK  12 active torsions:
REMARK  status: ('A' for Active; 'I' for Inactive)
REMARK    1  A    between atoms: C_1  and  C_2
REMARK    2  A    between atoms: C_2  and  N_3
REMARK    3  A    between atoms: N_10  and  C_13
REMARK    4  A    between atoms: C_13  and  C_14
REMARK    5  A    between atoms: C_15  and  C_31
REMARK    6  A    between atoms: C_16  and  C_24
REMARK    7  A    between atoms: N_21  and  C_22
REMARK    8  A    between atoms: C_22  and  C_23
REMARK    9  A    between atoms: C_29  and  C_30
REMARK   10  A    between atoms: C_31  and  O_33
REMARK   11  A    between atoms: O_33  and  C_34
REMARK   12  A    between atoms: C_34  and  C_35
REMARK                            x       y       z     vdW  Elec       q    Type
REMARK                         _______ _______ _______ _____ _____    ______ ____
ROOT
ATOM      1  C   UNL     1       5.191  -5.844  -2.647  0.00  0.00    +0.010 C 
ATOM      2  C   UNL     1       5.947  -6.650  -3.423  0.00  0.00    +0.076 C 
ATOM      3  C   UNL     1       5.620  -8.130  -3.430  0.00  0.00    +0.144 C 
ATOM      4  N   UNL     1       4.496  -8.569  -2.586  0.00  0.00    -0.288 N 
ATOM      5  C   UNL     1       3.834  -7.642  -1.865  0.00  0.00    +0.307 C 
ATOM      6  O   UNL     1       2.906  -7.995  -1.165  0.00  0.00    -0.252 OA
ATOM      7  N   UNL     1       4.170  -6.346  -1.892  0.00  0.00    -0.261 N 
ATOM      8  H   UNL     1       4.239  -9.504  -2.549  0.00  0.00    +0.151 HD
ENDROOT
BRANCH   3   9
ATOM      9  C   UNL     1       5.316  -8.531  -4.851  0.00  0.00    -0.020 A 
ATOM     10  C   UNL     1       4.027  -8.425  -5.339  0.00  0.00    +0.006 A 
ATOM     11  C   UNL     1       3.749  -8.793  -6.642  0.00  0.00    +0.000 A 
ATOM     12  C   UNL     1       4.760  -9.268  -7.457  0.00  0.00    +0.000 A 
ATOM     13  C   UNL     1       6.049  -9.373  -6.969  0.00  0.00    +0.004 A 
ATOM     14  C   UNL     1       6.328  -9.001  -5.667  0.00  0.00    -0.045 A 
ATOM     15  C   UNL     1       7.734  -9.112  -5.137  0.00  0.00    +0.044 C 
ENDBRANCH   3   9
BRANCH   7  16
ATOM     16  C   UNL     1       3.395  -5.414  -1.069  0.00  0.00    +0.111 C 
ATOM     17  C   UNL     1       2.141  -4.982  -1.833  0.00  0.00    +0.025 C 
ENDBRANCH   7  16
BRANCH   2  18
ATOM     18  C   UNL     1       7.008  -6.132  -4.202  0.00  0.00    +0.339 C 
ATOM     19  O   UNL     1       8.160  -6.306  -3.852  0.00  0.00    -0.245 OA
BRANCH  18  20
ATOM     20  O   UNL     1       6.741  -5.444  -5.332  0.00  0.00    -0.462 OA
BRANCH  20  21
ATOM     21  C   UNL     1       7.859  -5.046  -6.128  0.00  0.00    +0.229 C 
ATOM     22  C   UNL     1       7.374  -4.181  -7.293  0.00  0.00    +0.048 C 
ENDBRANCH  20  21
ENDBRANCH  18  20
ENDBRANCH   2  18
BRANCH   1  23
ATOM     23  C   UNL     1       5.482  -4.365  -2.610  0.00  0.00    -0.026 C 
BRANCH  23  31
ATOM     24  N   UNL     1      10.533  -3.952  -0.790  0.00  0.00    -0.300 N 
ATOM     25  C   UNL     1       9.815  -2.966  -0.217  0.00  0.00    +0.302 C 
ATOM     26  O   UNL     1      10.309  -1.865  -0.062  0.00  0.00    -0.253 OA
ATOM     27  N   UNL     1       8.550  -3.199   0.185  0.00  0.00    -0.287 N 
ATOM     28  C   UNL     1       7.744  -2.070   0.693  0.00  0.00    +0.107 C 
ATOM     29  C   UNL     1       6.300  -2.139   0.165  0.00  0.00    +0.000 C 
ATOM     30  C   UNL     1       6.314  -2.579  -1.282  0.00  0.00    -0.077 C 
ATOM     31  N   UNL     1       6.152  -4.030  -1.347  0.00  0.00    +0.384 N 
ATOM     32  C   UNL     1       7.354  -4.767  -1.270  0.00  0.00    -0.059 C 
ATOM     33  C   UNL     1       8.027  -4.547   0.099  0.00  0.00    +0.091 C 
ATOM     34  H   UNL     1      10.166  -4.848  -0.848  0.00  0.00    +0.150 HD
ATOM     35  H   UNL     1       5.553  -4.317  -0.587  0.00  0.00    -0.081 HD
BRANCH  24  37
ATOM     36  C   UNL     1      12.460  -4.952  -1.915  0.00  0.00    +0.024 C 
ATOM     37  C   UNL     1      11.867  -3.671  -1.325  0.00  0.00    +0.102 C 
ENDBRANCH  24  37
ENDBRANCH  23  31
ENDBRANCH   1  23
TORSDOF 8
