REMARK  Name = ZINC43527759
REMARK  12 active torsions:
REMARK  status: ('A' for Active; 'I' for Inactive)
REMARK    1  A    between atoms: C_1  and  C_2
REMARK    2  A    between atoms: C_4  and  C_27
REMARK    3  A    between atoms: C_6  and  C_8
REMARK    4  A    between atoms: C_17  and  C_19
REMARK    5  A    between atoms: C_19  and  O_20
REMARK    6  A    between atoms: O_20  and  C_21
REMARK    7  A    between atoms: N_23  and  C_24
REMARK    8  A    between atoms: C_24  and  C_25
REMARK    9  A    between atoms: C_24  and  C_26
REMARK   10  A    between atoms: C_30  and  N_33
REMARK   11  A    between atoms: N_33  and  C_34
REMARK   12  A    between atoms: N_33  and  C_35
REMARK                            x       y       z     vdW  Elec       q    Type
REMARK                         _______ _______ _______ _____ _____    ______ ____
ROOT
ATOM      1  C   UNL     1      -0.081  -2.793   2.414  0.00  0.00    +0.024 C 
ATOM      2  C   UNL     1      -0.904  -4.081   2.492  0.00  0.00    -0.068 C 
ATOM      3  N   UNL     1      -0.026  -5.223   2.757  0.00  0.00    +0.384 N 
ATOM      4  C   UNL     1       0.945  -5.388   1.672  0.00  0.00    -0.078 C 
ATOM      5  C   UNL     1       1.830  -4.144   1.566  0.00  0.00    -0.015 C 
ATOM      6  C   UNL     1       1.398  -3.133   2.641  0.00  0.00    -0.007 C 
ATOM      7  C   UNL     1       1.535  -3.803   4.015  0.00  0.00    -0.008 C 
ATOM      8  C   UNL     1       0.659  -5.060   4.041  0.00  0.00    -0.030 C 
ATOM      9  H   UNL     1      -0.591  -6.057   2.799  0.00  0.00    -0.081 HD
ENDROOT
BRANCH   1  15
ATOM     10  C   UNL     1      -0.418   1.217  -0.363  0.00  0.00    +0.088 C 
ATOM     11  C   UNL     1      -0.412  -0.286  -0.263  0.00  0.00    +0.127 A 
ATOM     12  N   UNL     1      -0.555  -1.001  -1.359  0.00  0.00    -0.232 NA
ATOM     13  C   UNL     1      -0.554  -2.332  -1.308  0.00  0.00    +0.075 A 
ATOM     14  C   UNL     1      -0.398  -2.960  -0.068  0.00  0.00    +0.052 A 
ATOM     15  C   UNL     1      -0.252  -2.167   1.054  0.00  0.00    +0.047 A 
ATOM     16  N   UNL     1      -0.259  -0.849   0.919  0.00  0.00    -0.237 NA
BRANCH  13  17
ATOM     17  C   UNL     1      -0.715  -3.134  -2.544  0.00  0.00    +0.001 A 
ATOM     18  C   UNL     1      -0.718  -4.527  -2.477  0.00  0.00    +0.012 A 
ATOM     19  C   UNL     1      -0.869  -5.271  -3.627  0.00  0.00    +0.024 A 
ATOM     20  C   UNL     1      -1.018  -4.633  -4.854  0.00  0.00    +0.029 A 
ATOM     21  C   UNL     1      -1.014  -3.244  -4.923  0.00  0.00    +0.024 A 
ATOM     22  C   UNL     1      -0.870  -2.496  -3.775  0.00  0.00    +0.012 A 
BRANCH  20  23
ATOM     23  N   UNL     1      -1.170  -5.387  -6.016  0.00  0.00    -0.336 N 
ATOM     24  C   UNL     1      -1.296  -6.844  -5.933  0.00  0.00    +0.129 C 
ATOM     25  C   UNL     1      -1.204  -4.723  -7.322  0.00  0.00    +0.129 C 
ENDBRANCH  20  23
ENDBRANCH  13  17
ENDBRANCH   1  15
BRANCH   8  26
ATOM     26  C   UNL     1       1.536  -6.285   4.308  0.00  0.00    +0.218 C 
BRANCH  26  27
ATOM     27  O   UNL     1       0.713  -7.451   4.390  0.00  0.00    -0.452 OA
BRANCH  27  28
ATOM     28  C   UNL     1       1.335  -8.623   4.623  0.00  0.00    +0.400 C 
ATOM     29  O   UNL     1       2.542  -8.654   4.752  0.00  0.00    -0.226 OA
ATOM     30  N   UNL     1       0.617  -9.760   4.712  0.00  0.00    -0.279 N 
ATOM     31  H   UNL     1      -0.347  -9.735   4.609  0.00  0.00    +0.152 HD
BRANCH  30  32
ATOM     32  C   UNL     1       1.293 -11.035   4.965  0.00  0.00    +0.070 C 
ATOM     33  C   UNL     1       1.494 -11.216   6.471  0.00  0.00    +0.027 C 
ATOM     34  C   UNL     1       0.439 -12.182   4.423  0.00  0.00    +0.027 C 
ENDBRANCH  30  32
ENDBRANCH  27  28
ENDBRANCH  26  27
ENDBRANCH   8  26
TORSDOF 7
