REMARK  Name = ZINC36107363
REMARK  4 active torsions:
REMARK  status: ('A' for Active; 'I' for Inactive)
REMARK    1  A    between atoms: C_1  and  C_2
REMARK    2  A    between atoms: C_8  and  C_10
REMARK    3  A    between atoms: N_18  and  C_19
REMARK    4  A    between atoms: N_18  and  C_20
REMARK                            x       y       z     vdW  Elec       q    Type
REMARK                         _______ _______ _______ _____ _____    ______ ____
ROOT
ATOM      1  C   UNL     1       3.001  -3.731   1.072  0.00  0.00    +0.164 C 
ATOM      2  C   UNL     1       3.546  -2.432   1.704  0.00  0.00    +0.033 C 
ATOM      3  C   UNL     1       4.903  -2.882   2.307  0.00  0.00    +0.021 C 
ATOM      4  C   UNL     1       5.378  -3.922   1.262  0.00  0.00    +0.110 C 
ATOM      5  N   UNL     1       4.148  -4.619   0.835  0.00  0.00    -0.274 N 
ATOM      6  C   UNL     1       4.085  -5.861   0.314  0.00  0.00    +0.305 C 
ATOM      7  O   UNL     1       3.025  -6.298  -0.089  0.00  0.00    -0.252 OA
ATOM      8  N   UNL     1       5.198  -6.617   0.240  0.00  0.00    -0.292 N 
ATOM      9  C   UNL     1       5.124  -7.979  -0.294  0.00  0.00    +0.133 C 
ATOM     10  C   UNL     1       6.483  -6.077   0.693  0.00  0.00    +0.133 C 
ENDROOT
BRANCH   1  18
ATOM     11  C   UNL     1      -3.131  -3.452  -0.448  0.00  0.00    +0.007 C 
ATOM     12  C   UNL     1      -1.746  -2.812  -0.337  0.00  0.00    -0.011 C 
ATOM     13  C   UNL     1      -1.028  -3.360   0.898  0.00  0.00    +0.022 C 
ATOM     14  C   UNL     1       0.345  -2.692   1.024  0.00  0.00    +0.108 C 
ATOM     15  N   UNL     1       1.080  -2.880  -0.234  0.00  0.00    -0.300 N 
ATOM     16  C   UNL     1       0.443  -2.470  -1.492  0.00  0.00    +0.108 C 
ATOM     17  C   UNL     1      -0.931  -3.141  -1.591  0.00  0.00    +0.022 C 
ATOM     18  C   UNL     1       2.316  -3.417  -0.233  0.00  0.00    +0.236 C 
ATOM     19  O   UNL     1       2.877  -3.649  -1.283  0.00  0.00    -0.274 OA
ENDBRANCH   1  18
TORSDOF 1
