REMARK  Name = ZINC00661254
REMARK  5 active torsions:
REMARK  status: ('A' for Active; 'I' for Inactive)
REMARK    1  A    between atoms: C_3  and  C_6
REMARK    2  A    between atoms: C_11  and  C_14
REMARK    3  A    between atoms: N_16  and  C_17
REMARK    4  A    between atoms: C_20  and  S_23
REMARK    5  A    between atoms: S_23  and  N_26
REMARK                            x       y       z     vdW  Elec       q    Type
REMARK                         _______ _______ _______ _____ _____    ______ ____
ROOT
ATOM      1  C   UNL     1       2.375   0.313  -3.089  0.00  0.00    +0.220 C 
ATOM      2  O   UNL     1       1.869  -0.514  -3.818  0.00  0.00    -0.275 OA
ATOM      3  N   UNL     1       3.509   0.937  -3.464  0.00  0.00    -0.285 N 
ATOM      4  H   UNL     1       3.954   1.542  -2.851  0.00  0.00    +0.155 HD
ENDROOT
BRANCH   1  10
ATOM      5  C   UNL     1      -1.598   2.049   0.177  0.00  0.00    +0.253 C 
ATOM      6  O   UNL     1      -2.550   1.297   0.269  0.00  0.00    -0.269 OA
ATOM      7  N   UNL     1      -0.379   1.560  -0.126  0.00  0.00    -0.297 N 
ATOM      8  C   UNL     1       0.752   2.466  -0.370  0.00  0.00    +0.109 C 
ATOM      9  C   UNL     1       1.369   2.127  -1.730  0.00  0.00    +0.032 C 
ATOM     10  C   UNL     1       1.735   0.642  -1.765  0.00  0.00    +0.078 C 
ATOM     11  C   UNL     1       0.471  -0.201  -1.586  0.00  0.00    +0.032 C 
ATOM     12  C   UNL     1      -0.157   0.111  -0.224  0.00  0.00    +0.109 C 
BRANCH   5  15
ATOM     13  C   UNL     1      -2.827   5.581   0.622  0.00  0.00    +0.008 A 
ATOM     14  C   UNL     1      -2.944   4.235   0.381  0.00  0.00    +0.021 A 
ATOM     15  C   UNL     1      -1.777   3.487   0.395  0.00  0.00    +0.074 A 
ATOM     16  S   UNL     1      -0.548   4.734   0.740  0.00  0.00    -0.092 S 
ATOM     17  C   UNL     1      -1.596   6.110   0.848  0.00  0.00    +0.046 A 
ENDBRANCH   5  15
ENDBRANCH   1  10
BRANCH   3  18
ATOM     18  C   UNL     1       4.043   0.713  -4.738  0.00  0.00    +0.034 A 
ATOM     19  C   UNL     1       5.418   0.722  -4.927  0.00  0.00    +0.025 A 
ATOM     20  C   UNL     1       5.942   0.495  -6.185  0.00  0.00    +0.030 A 
ATOM     21  C   UNL     1       5.098   0.271  -7.257  0.00  0.00    +0.105 A 
ATOM     22  C   UNL     1       3.728   0.268  -7.073  0.00  0.00    +0.030 A 
ATOM     23  C   UNL     1       3.198   0.488  -5.817  0.00  0.00    +0.025 A 
BRANCH  21  24
ATOM     24  S   UNL     1       5.771  -0.011  -8.861  0.00  0.00    +0.056 S 
ATOM     25  O   UNL     1       7.091  -0.499  -8.667  0.00  0.00    -0.153 OA
ATOM     26  O   UNL     1       4.790  -0.736  -9.590  0.00  0.00    -0.153 OA
BRANCH  24  27
ATOM     27  N   UNL     1       5.915   1.464  -9.598  0.00  0.00    -0.204 NA
ATOM     28  H   UNL     1       6.616   1.614 -10.252  0.00  0.00    +0.144 HD
ATOM     29  H   UNL     1       5.298   2.179  -9.377  0.00  0.00    +0.144 HD
ENDBRANCH  24  27
ENDBRANCH  21  24
ENDBRANCH   3  18
TORSDOF 5
