REMARK  Name = ZINC39986621
REMARK  14 active torsions:
REMARK  status: ('A' for Active; 'I' for Inactive)
REMARK    1  A    between atoms: C_1  and  C_2
REMARK    2  A    between atoms: C_2  and  C_3
REMARK    3  A    between atoms: C_3  and  O_4
REMARK    4  A    between atoms: O_4  and  C_5
REMARK    5  A    between atoms: C_8  and  C_14
REMARK    6  A    between atoms: C_10  and  O_11
REMARK    7  A    between atoms: O_11  and  C_12
REMARK    8  A    between atoms: C_12  and  C_13
REMARK    9  A    between atoms: N_15  and  N_16
REMARK   10  A    between atoms: C_17  and  C_19
REMARK   11  A    between atoms: C_19  and  N_20
REMARK   12  A    between atoms: N_20  and  C_21
REMARK   13  A    between atoms: N_20  and  S_22
REMARK   14  A    between atoms: S_22  and  C_25
REMARK                            x       y       z     vdW  Elec       q    Type
REMARK                         _______ _______ _______ _____ _____    ______ ____
ROOT
ATOM      1  N   UNL     1      -8.715  -4.527   0.055  0.00  0.00    -0.206 N 
ATOM      2  C   UNL     1      -9.853  -3.805   0.065  0.00  0.00    +0.248 C 
ATOM      3  O   UNL     1      -9.803  -2.593   0.066  0.00  0.00    -0.273 OA
ATOM      4  H   UNL     1      -8.755  -5.496   0.054  0.00  0.00    +0.177 HD
ENDROOT
BRANCH   1   6
ATOM      5  C   UNL     1      -6.378  -4.572   0.037  0.00  0.00    +0.138 C 
ATOM      6  N   UNL     1      -7.474  -3.877   0.047  0.00  0.00    -0.188 NA
BRANCH   5  10
ATOM      7  C   UNL     1      -2.617  -2.596   0.013  0.00  0.00    +0.162 A 
ATOM      8  C   UNL     1      -3.789  -1.855   0.022  0.00  0.00    +0.050 A 
ATOM      9  C   UNL     1      -5.012  -2.492   0.030  0.00  0.00    +0.013 A 
ATOM     10  C   UNL     1      -5.072  -3.888   0.029  0.00  0.00    -0.002 A 
ATOM     11  C   UNL     1      -3.890  -4.634   0.019  0.00  0.00    +0.059 A 
ATOM     12  C   UNL     1      -2.669  -3.988   0.006  0.00  0.00    +0.162 A 
BRANCH   7  13
ATOM     13  O   UNL     1      -1.414  -1.962   0.005  0.00  0.00    -0.488 OA
BRANCH  13  14
ATOM     14  C   UNL     1      -1.433  -0.534   0.013  0.00  0.00    +0.229 C 
BRANCH  14  16
ATOM     15  C   UNL     1      -0.019   1.526   0.010  0.00  0.00    +0.007 C 
ATOM     16  C   UNL     1       0.002  -0.004   0.002  0.00  0.00    +0.038 C 
ENDBRANCH  14  16
ENDBRANCH  13  14
ENDBRANCH   7  13
BRANCH  12  17
ATOM     17  O   UNL     1      -1.517  -4.712  -0.008  0.00  0.00    -0.489 OA
BRANCH  17  18
ATOM     18  C   UNL     1      -1.645  -6.135  -0.015  0.00  0.00    +0.226 C 
ATOM     19  C   UNL     1      -0.254  -6.772  -0.031  0.00  0.00    +0.048 C 
ENDBRANCH  17  18
ENDBRANCH  12  17
ENDBRANCH   5  10
ENDBRANCH   1   6
BRANCH   2  20
ATOM     20  C   UNL     1     -11.188  -4.504   0.073  0.00  0.00    +0.206 C 
BRANCH  20  21
ATOM     21  N   UNL     1     -12.262  -3.507   0.083  0.00  0.00    -0.171 NA
ATOM     22  C   UNL     1     -12.732  -2.925  -1.177  0.00  0.00    +0.132 C 
BRANCH  21  23
ATOM     23  S   UNL     1     -12.943  -3.037   1.518  0.00  0.00    +0.061 S 
ATOM     24  O   UNL     1     -14.241  -2.549   1.210  0.00  0.00    -0.153 OA
ATOM     25  O   UNL     1     -12.726  -4.098   2.437  0.00  0.00    -0.153 OA
BRANCH  23  26
ATOM     26  C   UNL     1     -12.014  -1.661   2.109  0.00  0.00    +0.106 A 
ATOM     27  C   UNL     1     -10.918  -1.866   2.926  0.00  0.00    +0.029 A 
ATOM     28  C   UNL     1     -10.190  -0.787   3.389  0.00  0.00    +0.017 A 
ATOM     29  C   UNL     1     -10.557   0.498   3.036  0.00  0.00    +0.018 A 
ATOM     30  C   UNL     1     -11.654   0.704   2.218  0.00  0.00    +0.017 A 
ATOM     31  C   UNL     1     -12.379  -0.376   1.751  0.00  0.00    +0.029 A 
ATOM     32 BR   UNL     1      -9.561   1.975   3.670  0.00  0.00    -0.050 Br
ENDBRANCH  23  26
ENDBRANCH  21  23
ENDBRANCH  20  21
ENDBRANCH   2  20
TORSDOF 11
