REMARK  Name = ZINC39676222
REMARK  7 active torsions:
REMARK  status: ('A' for Active; 'I' for Inactive)
REMARK    1  A    between atoms: C_1  and  C_2
REMARK    2  A    between atoms: C_2  and  C_3
REMARK    3  A    between atoms: C_3  and  C_5
REMARK    4  A    between atoms: C_3  and  C_6
REMARK    5  A    between atoms: C_10  and  C_19
REMARK    6  A    between atoms: N_21  and  C_22
REMARK    7  A    between atoms: C_22  and  C_23
REMARK                            x       y       z     vdW  Elec       q    Type
REMARK                         _______ _______ _______ _____ _____    ______ ____
ROOT
ATOM      1  C   UNL     1       1.118  -1.900   0.981  0.00  0.00    +0.218 C 
ATOM      2  O   UNL     1       0.847  -2.546  -0.009  0.00  0.00    -0.275 OA
ATOM      3  N   UNL     1       1.567  -2.522   2.090  0.00  0.00    -0.300 N 
ATOM      4  C   UNL     1       1.838  -1.925   3.419  0.00  0.00    +0.121 C 
ATOM      5  C   UNL     1       1.341  -2.982   4.430  0.00  0.00    +0.100 C 
ATOM      6  C   UNL     1       1.386  -4.313   3.661  0.00  0.00    -0.004 C 
ATOM      7  C   UNL     1       1.895  -3.958   2.256  0.00  0.00    +0.115 C 
ATOM      8  C   UNL     1      -0.011  -4.919   3.571  0.00  0.00    -0.010 C 
ATOM      9  C   UNL     1       0.068  -6.269   2.852  0.00  0.00    -0.082 C 
ATOM     10  N   UNL     1       0.966  -7.166   3.589  0.00  0.00    +0.379 N 
ATOM     11  C   UNL     1       2.329  -6.620   3.591  0.00  0.00    -0.082 C 
ATOM     12  C   UNL     1       2.345  -5.285   4.341  0.00  0.00    -0.010 C 
ATOM     13  H   UNL     1       0.641  -7.258   4.540  0.00  0.00    -0.086 HD
ATOM     14  H   UNL     1       0.970  -8.073   3.148  0.00  0.00    -0.086 HD
ENDROOT
BRANCH   5  15
ATOM     15  C   UNL     1      -0.069  -2.671   4.863  0.00  0.00    +0.219 C 
ATOM     16  O   UNL     1      -0.801  -2.035   4.135  0.00  0.00    -0.275 OA
ATOM     17  N   UNL     1      -0.517  -3.101   6.060  0.00  0.00    -0.308 N 
ATOM     18  H   UNL     1       0.069  -3.610   6.642  0.00  0.00    +0.149 HD
BRANCH  17  19
ATOM     19  C   UNL     1      -1.887  -2.799   6.481  0.00  0.00    +0.178 C 
BRANCH  19  20
ATOM     20  C   UNL     1      -2.134  -3.387   7.846  0.00  0.00    +0.128 A 
ATOM     21  N   UNL     1      -3.359  -3.216   8.409  0.00  0.00    -0.309 N 
ATOM     22  H   UNL     1      -4.044  -2.725   7.929  0.00  0.00    +0.170 HD
ATOM     23  C   UNL     1      -3.631  -3.725   9.633  0.00  0.00    +0.259 A 
ATOM     24  O   UNL     1      -4.725  -3.581  10.149  0.00  0.00    -0.267 OA
ATOM     25  C   UNL     1      -2.556  -4.460  10.315  0.00  0.00    +0.065 A 
ATOM     26  C   UNL     1      -2.734  -5.023  11.577  0.00  0.00    +0.015 A 
ATOM     27  C   UNL     1      -1.692  -5.701  12.171  0.00  0.00    +0.001 A 
ATOM     28  C   UNL     1      -0.470  -5.827  11.522  0.00  0.00    +0.002 A 
ATOM     29  C   UNL     1      -0.274  -5.278  10.275  0.00  0.00    +0.028 A 
ATOM     30  C   UNL     1      -1.315  -4.586   9.652  0.00  0.00    +0.078 A 
ATOM     31  N   UNL     1      -1.168  -4.035   8.422  0.00  0.00    -0.232 NA
ENDBRANCH  19  20
ENDBRANCH  17  19
ENDBRANCH   5  15
BRANCH   1  32
ATOM     32  C   UNL     1       0.952  -0.402   0.972  0.00  0.00    +0.072 C 
ATOM     33  C   UNL     1      -0.254  -0.028   0.109  0.00  0.00    +0.017 C 
BRANCH  32  35
ATOM     34  C   UNL     1       2.096   1.768   0.501  0.00  0.00    +0.004 C 
ATOM     35  C   UNL     1       2.212   0.246   0.396  0.00  0.00    +0.009 C 
ENDBRANCH  32  35
ENDBRANCH   1  32
TORSDOF 5
