REMARK  Name = ZINC19354375
REMARK  7 active torsions:
REMARK  status: ('A' for Active; 'I' for Inactive)
REMARK    1  A    between atoms: C_4  and  C_7
REMARK    2  A    between atoms: C_7  and  N_8
REMARK    3  A    between atoms: C_11  and  N_14
REMARK    4  A    between atoms: C_15  and  C_17
REMARK    5  A    between atoms: C_17  and  S_18
REMARK    6  A    between atoms: S_18  and  C_19
REMARK    7  A    between atoms: N_23  and  C_24
REMARK                            x       y       z     vdW  Elec       q    Type
REMARK                         _______ _______ _______ _____ _____    ______ ____
ROOT
ATOM      1  C   UNL     1      -1.328  -0.769  -0.341  0.00  0.00    +0.173 C 
ENDROOT
BRANCH   1   3
ATOM      2  N   UNL     1      -0.076   1.348  -0.604  0.00  0.00    -0.314 N 
ATOM      3  C   UNL     1      -0.043   0.015  -0.402  0.00  0.00    +0.223 C 
ATOM      4  O   UNL     1       1.021  -0.552  -0.270  0.00  0.00    -0.275 OA
ATOM      5  H   UNL     1      -1.041   1.862  -0.724  0.00  0.00    +0.149 HD
BRANCH   2   9
ATOM      6  N   UNL     1       1.225   4.534  -0.522  0.00  0.00    +0.384 N 
ATOM      7  C   UNL     1       2.139   3.992   0.516  0.00  0.00    -0.077 C 
ATOM      8  C   UNL     1       1.596   2.558   0.755  0.00  0.00    +0.002 C 
ATOM      9  C   UNL     1       1.173   2.111  -0.663  0.00  0.00    +0.055 C 
ATOM     10  C   UNL     1       0.965   3.416  -1.454  0.00  0.00    -0.056 C 
ATOM     11  H   UNL     1       0.293   4.920  -0.085  0.00  0.00    -0.081 HD
BRANCH   6  12
ATOM     12  C   UNL     1       1.839   5.670  -1.222  0.00  0.00    -0.043 C 
BRANCH  12  16
ATOM     13  C   UNL     1       1.911   9.067   1.368  0.00  0.00    +0.000 A 
ATOM     14  C   UNL     1       2.976   8.186   1.354  0.00  0.00    +0.000 A 
ATOM     15  C   UNL     1       2.953   7.086   0.516  0.00  0.00    +0.002 A 
ATOM     16  C   UNL     1       1.865   6.869  -0.308  0.00  0.00    -0.064 A 
ATOM     17  C   UNL     1       0.802   7.753  -0.298  0.00  0.00    +0.002 A 
ATOM     18  C   UNL     1       0.823   8.849   0.543  0.00  0.00    +0.000 A 
ENDBRANCH  12  16
ENDBRANCH   6  12
ENDBRANCH   2   9
ENDBRANCH   1   3
BRANCH   1  19
ATOM     19  S   UNL     1      -0.953  -2.522  -0.061  0.00  0.00    -0.076 S 
BRANCH  19  20
ATOM     20  C   UNL     1      -2.536  -3.295  -0.015  0.00  0.00    +0.198 A 
ATOM     21  N   UNL     1      -3.692  -2.692  -0.151  0.00  0.00    -0.120 NA
ATOM     22  N   UNL     1      -4.700  -3.660  -0.055  0.00  0.00    -0.112 NA
ATOM     23  C   UNL     1      -4.130  -4.822   0.144  0.00  0.00    +0.225 A 
ATOM     24  N   UNL     1      -2.776  -4.629   0.175  0.00  0.00    -0.259 N 
ATOM     25  N   UNL     1      -4.785  -6.038   0.298  0.00  0.00    -0.299 N 
ATOM     26  C   UNL     1      -5.582  -6.360  -0.892  0.00  0.00    +0.108 C 
ATOM     27  C   UNL     1      -6.170  -7.766  -0.749  0.00  0.00    +0.019 C 
ATOM     28  C   UNL     1      -7.047  -7.821   0.505  0.00  0.00    +0.003 C 
ATOM     29  C   UNL     1      -6.205  -7.434   1.724  0.00  0.00    +0.019 C 
ATOM     30  C   UNL     1      -5.616  -6.038   1.509  0.00  0.00    +0.108 C 
BRANCH  24  31
ATOM     31  C   UNL     1      -1.805  -5.622   0.368  0.00  0.00    +0.052 A 
ATOM     32  C   UNL     1      -1.621  -6.610  -0.589  0.00  0.00    +0.026 A 
ATOM     33  C   UNL     1      -0.660  -7.585  -0.399  0.00  0.00    +0.002 A 
ATOM     34  C   UNL     1       0.110  -7.583   0.749  0.00  0.00    +0.000 A 
ATOM     35  C   UNL     1      -0.074  -6.603   1.707  0.00  0.00    +0.002 A 
ATOM     36  C   UNL     1      -1.030  -5.623   1.520  0.00  0.00    +0.026 A 
ENDBRANCH  24  31
ENDBRANCH  19  20
ENDBRANCH   1  19
TORSDOF 7
