REMARK  Name = ZINC22015309
REMARK  9 active torsions:
REMARK  status: ('A' for Active; 'I' for Inactive)
REMARK    1  A    between atoms: C_3  and  N_23
REMARK    2  A    between atoms: C_6  and  C_7
REMARK    3  A    between atoms: C_10  and  N_13
REMARK    4  A    between atoms: C_14  and  C_15
REMARK    5  A    between atoms: C_18  and  O_22
REMARK    6  A    between atoms: C_19  and  O_21
REMARK    7  A    between atoms: C_24  and  C_25
REMARK    8  A    between atoms: C_28  and  O_32
REMARK    9  A    between atoms: C_29  and  O_31
REMARK                            x       y       z     vdW  Elec       q    Type
REMARK                         _______ _______ _______ _____ _____    ______ ____
ROOT
ATOM      1  C   UNL     1       1.119  -1.815   2.494  0.00  0.00    +0.010 A 
ATOM      2  C   UNL     1       2.395  -1.794   3.010  0.00  0.00    +0.028 A 
ATOM      3  C   UNL     1       3.023  -2.991   3.368  0.00  0.00    +0.064 A 
ATOM      4  C   UNL     1       2.355  -4.207   3.202  0.00  0.00    +0.028 A 
ATOM      5  C   UNL     1       1.079  -4.226   2.685  0.00  0.00    +0.010 A 
ATOM      6  C   UNL     1       0.453  -3.030   2.328  0.00  0.00    -0.018 A 
ENDROOT
BRANCH   6   7
ATOM      7  C   UNL     1      -0.920  -3.052   1.773  0.00  0.00    -0.018 A 
ATOM      8  C   UNL     1      -1.544  -1.857   1.411  0.00  0.00    +0.010 A 
ATOM      9  C   UNL     1      -2.820  -1.875   0.894  0.00  0.00    +0.028 A 
ATOM     10  C   UNL     1      -3.490  -3.092   0.733  0.00  0.00    +0.064 A 
ATOM     11  C   UNL     1      -2.864  -4.288   1.096  0.00  0.00    +0.028 A 
ATOM     12  C   UNL     1      -1.587  -4.267   1.607  0.00  0.00    +0.010 A 
BRANCH  10  13
ATOM     13  N   UNL     1      -4.758  -3.111   0.220  0.00  0.00    -0.255 NA
ATOM     14  C   UNL     1      -5.024  -3.834  -0.832  0.00  0.00    +0.119 C 
BRANCH  14  15
ATOM     15  C   UNL     1      -3.942  -4.234  -1.743  0.00  0.00    -0.003 A 
ATOM     16  C   UNL     1      -4.182  -5.182  -2.745  0.00  0.00    +0.013 A 
ATOM     17  C   UNL     1      -3.166  -5.554  -3.597  0.00  0.00    +0.050 A 
ATOM     18  C   UNL     1      -1.903  -4.992  -3.466  0.00  0.00    +0.158 A 
ATOM     19  C   UNL     1      -1.656  -4.048  -2.471  0.00  0.00    +0.159 A 
ATOM     20  C   UNL     1      -2.670  -3.665  -1.615  0.00  0.00    +0.058 A 
BRANCH  19  21
ATOM     21  O   UNL     1      -0.418  -3.500  -2.346  0.00  0.00    -0.503 OA
ATOM     22  H   UNL     1      -0.289  -2.695  -2.866  0.00  0.00    +0.292 HD
ENDBRANCH  19  21
BRANCH  18  23
ATOM     23  O   UNL     1      -0.905  -5.364  -4.309  0.00  0.00    -0.503 OA
ATOM     24  H   UNL     1      -0.846  -4.825  -5.110  0.00  0.00    +0.292 HD
ENDBRANCH  18  23
ENDBRANCH  14  15
ENDBRANCH  10  13
ENDBRANCH   6   7
BRANCH   3  25
ATOM     25  N   UNL     1       4.290  -2.971   3.881  0.00  0.00    -0.255 NA
ATOM     26  C   UNL     1       4.582  -3.694   4.926  0.00  0.00    +0.119 C 
BRANCH  26  27
ATOM     27  C   UNL     1       5.946  -3.673   5.477  0.00  0.00    -0.003 A 
ATOM     28  C   UNL     1       6.929  -2.873   4.885  0.00  0.00    +0.013 A 
ATOM     29  C   UNL     1       8.206  -2.855   5.404  0.00  0.00    +0.050 A 
ATOM     30  C   UNL     1       8.519  -3.628   6.513  0.00  0.00    +0.158 A 
ATOM     31  C   UNL     1       7.544  -4.427   7.109  0.00  0.00    +0.159 A 
ATOM     32  C   UNL     1       6.261  -4.448   6.599  0.00  0.00    +0.058 A 
BRANCH  31  33
ATOM     33  O   UNL     1       7.856  -5.183   8.196  0.00  0.00    -0.503 OA
ATOM     34  H   UNL     1       7.721  -4.732   9.040  0.00  0.00    +0.292 HD
ENDBRANCH  31  33
BRANCH  30  35
ATOM     35  O   UNL     1       9.779  -3.607   7.020  0.00  0.00    -0.503 OA
ATOM     36  H   UNL     1       9.919  -2.930   7.697  0.00  0.00    +0.292 HD
ENDBRANCH  30  35
ENDBRANCH  26  27
ENDBRANCH   3  25
TORSDOF 9
