REMARK  Name = ZINC02447778
REMARK  12 active torsions:
REMARK  status: ('A' for Active; 'I' for Inactive)
REMARK    1  A    between atoms: C_1  and  C_2
REMARK    2  A    between atoms: C_2  and  N_3
REMARK    3  A    between atoms: N_3  and  C_4
REMARK    4  A    between atoms: N_3  and  C_6
REMARK    5  A    between atoms: C_4  and  C_5
REMARK    6  A    between atoms: C_9  and  C_12
REMARK    7  A    between atoms: N_13  and  N_14
REMARK    8  A    between atoms: C_15  and  C_17
REMARK    9  A    between atoms: C_17  and  S_18
REMARK   10  A    between atoms: S_18  and  C_19
REMARK   11  A    between atoms: C_22  and  C_25
REMARK   12  A    between atoms: N_23  and  C_24
REMARK                            x       y       z     vdW  Elec       q    Type
REMARK                         _______ _______ _______ _____ _____    ______ ____
ROOT
ATOM      1  N   UNL     1      -0.640   1.627  -1.103  0.00  0.00    -0.206 N 
ATOM      2  C   UNL     1      -0.471   0.296  -0.973  0.00  0.00    +0.242 C 
ATOM      3  O   UNL     1       0.633  -0.191  -1.099  0.00  0.00    -0.273 OA
ATOM      4  H   UNL     1      -1.524   2.015  -1.007  0.00  0.00    +0.177 HD
ENDROOT
BRANCH   1   6
ATOM      5  C   UNL     1       0.297   3.729  -1.510  0.00  0.00    +0.138 C 
ATOM      6  N   UNL     1       0.460   2.448  -1.384  0.00  0.00    -0.188 NA
BRANCH   5  10
ATOM      7  C   UNL     1       3.630   6.218  -2.360  0.00  0.00    +0.030 A 
ATOM      8  C   UNL     1       2.365   6.778  -2.216  0.00  0.00    +0.024 A 
ATOM      9  C   UNL     1       1.281   5.974  -1.940  0.00  0.00    +0.011 A 
ATOM     10  C   UNL     1       1.454   4.594  -1.805  0.00  0.00    -0.005 A 
ATOM     11  C   UNL     1       2.728   4.035  -1.944  0.00  0.00    +0.011 A 
ATOM     12  C   UNL     1       3.806   4.845  -2.225  0.00  0.00    +0.024 A 
BRANCH   7  13
ATOM     13  N   UNL     1       4.725   7.036  -2.639  0.00  0.00    -0.330 N 
BRANCH  13  15
ATOM     14  C   UNL     1       6.287   6.075  -4.257  0.00  0.00    +0.024 C 
ATOM     15  C   UNL     1       6.058   6.448  -2.791  0.00  0.00    +0.102 C 
ENDBRANCH  13  15
BRANCH  13  16
ATOM     16  C   UNL     1       4.542   8.482  -2.781  0.00  0.00    +0.102 C 
ATOM     17  C   UNL     1       4.713   9.154  -1.417  0.00  0.00    +0.024 C 
ENDBRANCH  13  16
ENDBRANCH   7  13
ENDBRANCH   5  10
ENDBRANCH   1   6
BRANCH   2  18
ATOM     18  C   UNL     1      -1.654  -0.588  -0.671  0.00  0.00    +0.174 C 
BRANCH  18  19
ATOM     19  S   UNL     1      -1.108  -2.309  -0.557  0.00  0.00    -0.077 S 
BRANCH  19  20
ATOM     20  C   UNL     1      -2.646  -3.096  -0.208  0.00  0.00    +0.192 A 
ATOM     21  N   UNL     1      -3.812  -2.504  -0.078  0.00  0.00    -0.122 NA
ATOM     22  N   UNL     1      -4.723  -3.376   0.171  0.00  0.00    -0.128 NA
ATOM     23  C   UNL     1      -4.194  -4.575   0.226  0.00  0.00    +0.165 A 
ATOM     24  N   UNL     1      -2.846  -4.433  -0.015  0.00  0.00    -0.305 N 
ATOM     25  C   UNL     1      -1.838  -5.495  -0.056  0.00  0.00    +0.153 C 
BRANCH  23  26
ATOM     26  C   UNL     1      -4.909  -5.840   0.495  0.00  0.00    +0.019 A 
ATOM     27  C   UNL     1      -6.290  -5.918   0.307  0.00  0.00    +0.012 A 
ATOM     28  C   UNL     1      -6.952  -7.103   0.556  0.00  0.00    +0.016 A 
ATOM     29  C   UNL     1      -6.250  -8.210   1.001  0.00  0.00    +0.018 A 
ATOM     30  C   UNL     1      -4.881  -8.138   1.195  0.00  0.00    +0.016 A 
ATOM     31  C   UNL     1      -4.207  -6.960   0.945  0.00  0.00    +0.012 A 
ATOM     32 BR   UNL     1      -7.165  -9.828   1.347  0.00  0.00    -0.050 Br
ENDBRANCH  23  26
ENDBRANCH  19  20
ENDBRANCH  18  19
ENDBRANCH   2  18
TORSDOF 9
