REMARK  Name = ZINC44924310
REMARK  4 active torsions:
REMARK  status: ('A' for Active; 'I' for Inactive)
REMARK    1  A    between atoms: C_1  and  C_2
REMARK    2  A    between atoms: C_2  and  N_9
REMARK    3  A    between atoms: N_9  and  C_10
REMARK    4  A    between atoms: C_15  and  N_16
REMARK                            x       y       z     vdW  Elec       q    Type
REMARK                         _______ _______ _______ _____ _____    ______ ____
ROOT
ATOM      1  C   UNL     1       0.422  -0.210  -2.429  0.00  0.00    +0.051 A 
ATOM      2  C   UNL     1      -0.564   0.733  -2.655  0.00  0.00    +0.053 A 
ATOM      3  C   UNL     1      -0.906   1.077  -3.962  0.00  0.00    +0.080 A 
ATOM      4  C   UNL     1      -0.239   0.457  -5.043  0.00  0.00    +0.067 A 
ATOM      5  C   UNL     1       0.755  -0.493  -4.804  0.00  0.00    +0.040 A 
ATOM      6  C   UNL     1       1.086  -0.819  -3.504  0.00  0.00    +0.047 A 
ATOM      7  C   UNL     1      -0.626   0.844  -6.405  0.00  0.00    +0.259 A 
ATOM      8  O   UNL     1      -0.090   0.347  -7.380  0.00  0.00    -0.267 OA
ATOM      9  N   UNL     1      -1.601   1.773  -6.537  0.00  0.00    -0.313 N 
ATOM     10  H   UNL     1      -1.881   2.053  -7.422  0.00  0.00    +0.170 HD
ATOM     11  C   UNL     1      -2.190   2.319  -5.440  0.00  0.00    +0.199 A 
ATOM     12  N   UNL     1      -1.869   1.997  -4.224  0.00  0.00    -0.237 NA
ENDROOT
BRANCH   6  13
ATOM     13  N   UNL     1       2.086  -1.767  -3.257  0.00  0.00    -0.357 N 
ATOM     14  H   UNL     1       2.319  -2.001  -2.345  0.00  0.00    +0.142 HD
ATOM     15  H   UNL     1       2.547  -2.191  -3.998  0.00  0.00    +0.142 HD
ENDBRANCH   6  13
BRANCH   1  16
ATOM     16  N   UNL     1       0.764  -0.553  -1.122  0.00  0.00    -0.335 N 
ATOM     17  H   UNL     1       1.515  -1.144  -0.957  0.00  0.00    +0.147 HD
BRANCH  16  19
ATOM     18  C   UNL     1      -1.464  -0.479  -0.148  0.00  0.00    +0.033 C 
ATOM     19  C   UNL     1      -0.012  -0.022   0.001  0.00  0.00    +0.050 C 
ATOM     20  C   UNL     1       0.552  -0.600   1.298  0.00  0.00    +0.049 C 
ATOM     21  C   UNL     1       1.668   0.325   1.860  0.00  0.00    +0.168 C 
ATOM     22  S   UNL     1       0.916   1.972   1.494  0.00  0.00    -0.029 S 
ATOM     23  O   UNL     1       1.948   2.899   1.187  0.00  0.00    -0.174 OA
ATOM     24  O   UNL     1      -0.034   2.286   2.502  0.00  0.00    -0.174 OA
ATOM     25  C   UNL     1       0.030   1.518  -0.055  0.00  0.00    +0.191 C 
ENDBRANCH  16  19
ENDBRANCH   1  16
TORSDOF 3
