REMARK  Name = ZINC36290569
REMARK  5 active torsions:
REMARK  status: ('A' for Active; 'I' for Inactive)
REMARK    1  A    between atoms: C_1  and  C_2
REMARK    2  A    between atoms: C_2  and  C_3
REMARK    3  A    between atoms: C_6  and  C_9
REMARK    4  A    between atoms: C_10  and  N_23
REMARK    5  A    between atoms: C_18  and  C_22
REMARK                            x       y       z     vdW  Elec       q    Type
REMARK                         _______ _______ _______ _____ _____    ______ ____
ROOT
ATOM      1  C   UNL     1       2.696  -1.862  -4.734  0.00  0.00    +0.112 A 
ATOM      2  C   UNL     1       3.956  -1.523  -5.125  0.00  0.00    +0.129 A 
ATOM      3  N   UNL     1       4.217  -2.190  -6.317  0.00  0.00    -0.278 N 
ATOM      4  C   UNL     1       5.277  -2.285  -7.217  0.00  0.00    +0.037 A 
ATOM      5  C   UNL     1       5.126  -3.068  -8.290  0.00  0.00    +0.013 A 
ATOM      6  S   UNL     1       3.488  -3.727  -8.111  0.00  0.00    -0.054 S 
ATOM      7  C   UNL     1       3.080  -2.908  -6.586  0.00  0.00    +0.180 A 
ATOM      8  N   UNL     1       2.190  -2.722  -5.657  0.00  0.00    -0.219 NA
ATOM      9  C   UNL     1       6.110  -3.328  -9.385  0.00  0.00    +0.047 C 
ATOM     10  C   UNL     1       7.491  -2.841  -8.921  0.00  0.00    -0.009 C 
ATOM     11  C   UNL     1       7.338  -1.439  -8.322  0.00  0.00    +0.010 C 
ATOM     12  C   UNL     1       6.581  -1.521  -6.996  0.00  0.00    +0.055 C 
ATOM     13  C   UNL     1       8.446  -2.792 -10.116  0.00  0.00    +0.008 C 
ENDROOT
BRANCH   1  17
ATOM     14  C   UNL     1       0.707  -0.490  -1.238  0.00  0.00    -0.048 A 
ATOM     15  C   UNL     1      -0.014  -0.718  -2.396  0.00  0.00    +0.004 A 
ATOM     16  C   UNL     1       0.626  -1.163  -3.535  0.00  0.00    +0.010 A 
ATOM     17  C   UNL     1       2.003  -1.383  -3.516  0.00  0.00    +0.004 A 
ATOM     18  C   UNL     1       2.725  -1.152  -2.345  0.00  0.00    +0.010 A 
ATOM     19  C   UNL     1       2.075  -0.701  -1.215  0.00  0.00    +0.004 A 
BRANCH  14  21
ATOM     20  C   UNL     1      -0.019   1.526   0.010  0.00  0.00    +0.009 C 
ATOM     21  C   UNL     1       0.002  -0.004   0.002  0.00  0.00    +0.032 C 
ENDBRANCH  14  21
ENDBRANCH   1  17
BRANCH   2  22
ATOM     22  N   UNL     1       4.826  -0.663  -4.452  0.00  0.00    -0.342 N 
ATOM     23  H   UNL     1       4.549  -0.244  -3.623  0.00  0.00    +0.144 HD
ATOM     24  H   UNL     1       5.708  -0.485  -4.815  0.00  0.00    +0.144 HD
ENDBRANCH   2  22
TORSDOF 3
