REMARK  Name = ZINC39673677
REMARK  8 active torsions:
REMARK  status: ('A' for Active; 'I' for Inactive)
REMARK    1  A    between atoms: C_1  and  C_2
REMARK    2  A    between atoms: C_2  and  C_3
REMARK    3  A    between atoms: C_3  and  C_4
REMARK    4  A    between atoms: C_4  and  C_6
REMARK    5  A    between atoms: C_4  and  N_7
REMARK    6  A    between atoms: C_8  and  C_10
REMARK    7  A    between atoms: C_21  and  C_23
REMARK    8  A    between atoms: C_27  and  C_30
REMARK                            x       y       z     vdW  Elec       q    Type
REMARK                         _______ _______ _______ _____ _____    ______ ____
ROOT
ATOM      1  C   UNL     1      -2.345  -4.283  -1.025  0.00  0.00    +0.100 C 
ATOM      2  C   UNL     1      -2.797  -4.293  -2.503  0.00  0.00    +0.121 C 
ATOM      3  N   UNL     1      -2.517  -5.671  -2.971  0.00  0.00    -0.296 N 
ATOM      4  C   UNL     1      -2.888  -6.533  -1.824  0.00  0.00    +0.115 C 
ATOM      5  C   UNL     1      -2.409  -5.755  -0.583  0.00  0.00    -0.004 C 
ATOM      6  C   UNL     1      -1.026  -6.240  -0.159  0.00  0.00    -0.010 C 
ATOM      7  C   UNL     1      -1.126  -7.687   0.331  0.00  0.00    -0.082 C 
ATOM      8  N   UNL     1      -2.060  -7.760   1.461  0.00  0.00    +0.379 N 
ATOM      9  C   UNL     1      -3.408  -7.380   1.022  0.00  0.00    -0.082 C 
ATOM     10  C   UNL     1      -3.405  -5.920   0.561  0.00  0.00    -0.010 C 
ATOM     11  C   UNL     1      -2.033  -6.053  -4.169  0.00  0.00    +0.251 C 
ATOM     12  O   UNL     1      -1.856  -7.233  -4.405  0.00  0.00    -0.270 OA
ATOM     13  H   UNL     1      -2.078  -8.703   1.821  0.00  0.00    -0.086 HD
ATOM     14  H   UNL     1      -1.755  -7.131   2.189  0.00  0.00    -0.086 HD
ENDROOT
BRANCH  11  15
ATOM     15  C   UNL     1      -1.718  -5.040  -5.196  0.00  0.00    +0.091 A 
ATOM     16  C   UNL     1      -0.439  -4.479  -5.259  0.00  0.00    +0.056 A 
ATOM     17  C   UNL     1      -0.152  -3.532  -6.222  0.00  0.00    +0.021 A 
ATOM     18  C   UNL     1      -1.125  -3.138  -7.123  0.00  0.00    +0.007 A 
ATOM     19  C   UNL     1      -2.393  -3.688  -7.067  0.00  0.00    -0.014 A 
ATOM     20  C   UNL     1      -2.695  -4.641  -6.113  0.00  0.00    +0.140 A 
ATOM     21  F   UNL     1      -3.932  -5.182  -6.063  0.00  0.00    -0.204 F 
ATOM     22  C   UNL     1      -3.446  -3.251  -8.053  0.00  0.00    +0.047 C 
ATOM     23 CL   UNL     1       0.784  -4.970  -4.130  0.00  0.00    -0.083 Cl
ENDBRANCH  11  15
BRANCH   1  25
ATOM     24  N   UNL     1      -0.528  -3.161   0.223  0.00  0.00    -0.312 N 
ATOM     25  C   UNL     1      -0.935  -3.763  -0.912  0.00  0.00    +0.218 C 
ATOM     26  O   UNL     1      -0.167  -3.885  -1.843  0.00  0.00    -0.275 OA
ATOM     27  H   UNL     1      -1.143  -3.063   0.967  0.00  0.00    +0.149 HD
BRANCH  24  28
ATOM     28  C   UNL     1       0.842  -2.654   0.333  0.00  0.00    +0.070 C 
ATOM     29  C   UNL     1       0.916  -1.248  -0.265  0.00  0.00    +0.028 C 
BRANCH  28  30
ATOM     30  C   UNL     1       1.250  -2.603   1.807  0.00  0.00    +0.022 C 
BRANCH  30  32
ATOM     31  C   UNL     1       1.705  -3.973   3.846  0.00  0.00    +0.004 C 
ATOM     32  C   UNL     1       1.297  -4.024   2.372  0.00  0.00    -0.002 C 
ENDBRANCH  30  32
ENDBRANCH  28  30
ENDBRANCH  24  28
ENDBRANCH   1  25
TORSDOF 5
