REMARK  Name = ZINC16807409
REMARK  8 active torsions:
REMARK  status: ('A' for Active; 'I' for Inactive)
REMARK    1  A    between atoms: C_1  and  C_2
REMARK    2  A    between atoms: C_2  and  C_3
REMARK    3  A    between atoms: C_3  and  C_5
REMARK    4  A    between atoms: C_3  and  S_6
REMARK    5  A    between atoms: S_6  and  C_7
REMARK    6  A    between atoms: C_18  and  C_20
REMARK    7  A    between atoms: C_29  and  C_31
REMARK    8  A    between atoms: C_29  and  C_32
REMARK                            x       y       z     vdW  Elec       q    Type
REMARK                         _______ _______ _______ _____ _____    ______ ____
ROOT
ATOM      1  C   UNL     1      -1.210   3.356   0.029  0.00  0.00    +0.171 A 
ATOM      2  N   UNL     1      -0.065   4.093   0.020  0.00  0.00    -0.302 N 
ATOM      3  H   UNL     1      -0.112   5.062   0.023  0.00  0.00    +0.171 HD
ATOM      4  C   UNL     1       1.137   3.478   0.006  0.00  0.00    +0.258 A 
ATOM      5  O   UNL     1       2.169   4.129  -0.002  0.00  0.00    -0.267 OA
ATOM      6  C   UNL     1       1.176   2.079   0.002  0.00  0.00    +0.069 A 
ATOM      7  C   UNL     1      -0.017   1.377   0.010  0.00  0.00    +0.135 A 
ATOM      8  N   UNL     1      -1.178   2.039   0.030  0.00  0.00    -0.208 NA
ATOM      9  N   UNL     1       0.002  -0.004   0.002  0.00  0.00    -0.302 N 
ATOM     10  C   UNL     1       1.119  -0.684  -0.402  0.00  0.00    +0.017 C 
ATOM     11  C   UNL     1       2.325  -0.079  -0.437  0.00  0.00    +0.024 C 
ATOM     12  C   UNL     1       2.491   1.357  -0.009  0.00  0.00    +0.092 C 
ATOM     13  C   UNL     1       3.470  -0.772  -0.869  0.00  0.00    +0.162 C 
ATOM     14  O   UNL     1       4.542  -0.201  -0.880  0.00  0.00    -0.292 OA
ATOM     15  C   UNL     1       3.393  -2.205  -1.318  0.00  0.00    +0.086 C 
ATOM     16  C   UNL     1       1.994  -2.478  -1.881  0.00  0.00    -0.023 C 
ATOM     17  C   UNL     1       0.964  -2.131  -0.805  0.00  0.00    +0.058 C 
ATOM     18  C   UNL     1       1.759  -1.609  -3.118  0.00  0.00    +0.011 C 
ATOM     19  C   UNL     1       1.872  -3.955  -2.259  0.00  0.00    +0.011 C 
ATOM     20  H   UNL     1      -0.784  -0.497   0.286  0.00  0.00    +0.153 HD
ENDROOT
BRANCH  12  21
ATOM     21  C   UNL     1       3.084   1.394   1.376  0.00  0.00    -0.035 A 
ATOM     22  C   UNL     1       2.413   0.806   2.432  0.00  0.00    +0.004 A 
ATOM     23  C   UNL     1       2.959   0.836   3.701  0.00  0.00    +0.000 A 
ATOM     24  C   UNL     1       4.173   1.461   3.917  0.00  0.00    +0.000 A 
ATOM     25  C   UNL     1       4.842   2.054   2.862  0.00  0.00    +0.000 A 
ATOM     26  C   UNL     1       4.298   2.020   1.592  0.00  0.00    +0.004 A 
ENDBRANCH  12  21
BRANCH   1  27
ATOM     27  S   UNL     1      -2.767   4.182   0.049  0.00  0.00    -0.085 S 
BRANCH  27  28
ATOM     28  C   UNL     1      -3.880   2.754   0.056  0.00  0.00    +0.051 C 
ATOM     29  C   UNL     1      -3.698   1.972   1.359  0.00  0.00    +0.019 C 
BRANCH  28  31
ATOM     30  C   UNL     1      -5.541   3.909  -1.410  0.00  0.00    +0.005 C 
ATOM     31  C   UNL     1      -5.328   3.236  -0.053  0.00  0.00    +0.011 C 
ENDBRANCH  28  31
ENDBRANCH  27  28
ENDBRANCH   1  27
TORSDOF 4
