REMARK  Name = ZINC35064517
REMARK  10 active torsions:
REMARK  status: ('A' for Active; 'I' for Inactive)
REMARK    1  A    between atoms: C_1  and  C_2
REMARK    2  A    between atoms: C_2  and  C_3
REMARK    3  A    between atoms: C_3  and  N_4
REMARK    4  A    between atoms: N_4  and  C_5
REMARK    5  A    between atoms: C_5  and  C_7
REMARK    6  A    between atoms: C_5  and  C_8
REMARK    7  A    between atoms: N_18  and  C_19
REMARK    8  A    between atoms: C_24  and  C_25
REMARK    9  A    between atoms: N_28  and  C_29
REMARK   10  A    between atoms: C_33  and  C_35
REMARK                            x       y       z     vdW  Elec       q    Type
REMARK                         _______ _______ _______ _____ _____    ______ ____
ROOT
ATOM      1  C   UNL     1      -2.516  -1.956   1.232  0.00  0.00    +0.138 A 
ATOM      2  N   UNL     1      -2.661  -0.670   1.328  0.00  0.00    -0.231 NA
ATOM      3  C   UNL     1      -3.870  -0.107   1.577  0.00  0.00    +0.078 A 
ATOM      4  C   UNL     1      -4.027   1.276   1.681  0.00  0.00    +0.028 A 
ATOM      5  C   UNL     1      -5.273   1.804   1.934  0.00  0.00    +0.002 A 
ATOM      6  C   UNL     1      -6.378   0.978   2.088  0.00  0.00    +0.001 A 
ATOM      7  C   UNL     1      -6.249  -0.390   1.991  0.00  0.00    +0.015 A 
ATOM      8  C   UNL     1      -4.997  -0.945   1.734  0.00  0.00    +0.065 A 
ATOM      9  C   UNL     1      -4.799  -2.397   1.619  0.00  0.00    +0.266 A 
ATOM     10  O   UNL     1      -5.728  -3.174   1.744  0.00  0.00    -0.267 OA
ATOM     11  N   UNL     1      -3.545  -2.837   1.363  0.00  0.00    -0.263 N 
ENDROOT
BRANCH  11  12
ATOM     12  C   UNL     1      -3.303  -4.211   1.238  0.00  0.00    +0.054 A 
ATOM     13  C   UNL     1      -2.871  -4.944   2.336  0.00  0.00    +0.026 A 
ATOM     14  C   UNL     1      -2.634  -6.298   2.210  0.00  0.00    +0.002 A 
ATOM     15  C   UNL     1      -2.825  -6.925   0.992  0.00  0.00    +0.000 A 
ATOM     16  C   UNL     1      -3.255  -6.198  -0.103  0.00  0.00    +0.005 A 
ATOM     17  C   UNL     1      -3.499  -4.844   0.018  0.00  0.00    -0.026 A 
ATOM     18  C   UNL     1      -3.974  -4.054  -1.174  0.00  0.00    +0.046 C 
ENDBRANCH  11  12
BRANCH   1  19
ATOM     19  C   UNL     1      -1.139  -2.502   0.954  0.00  0.00    +0.141 C 
ATOM     20  C   UNL     1      -0.159  -1.973   2.003  0.00  0.00    +0.036 C 
BRANCH  19  21
ATOM     21  N   UNL     1      -0.704  -2.074  -0.379  0.00  0.00    -0.276 N 
ATOM     22  C   UNL     1      -0.410  -2.994  -1.319  0.00  0.00    +0.307 C 
ATOM     23  O   UNL     1      -0.506  -4.179  -1.062  0.00  0.00    -0.252 OA
ATOM     24  N   UNL     1      -0.010  -2.601  -2.545  0.00  0.00    -0.269 N 
ATOM     25  H   UNL     1      -0.008  -1.659  -2.775  0.00  0.00    +0.156 HD
BRANCH  24  26
ATOM     26  C   UNL     1       0.401  -3.552  -3.485  0.00  0.00    +0.035 A 
ATOM     27  C   UNL     1       0.168  -3.340  -4.838  0.00  0.00    +0.023 A 
ATOM     28  C   UNL     1       0.575  -4.280  -5.763  0.00  0.00    +0.002 A 
ATOM     29  C   UNL     1       1.215  -5.433  -5.344  0.00  0.00    +0.003 A 
ATOM     30  C   UNL     1       1.448  -5.647  -3.998  0.00  0.00    -0.049 A 
ATOM     31  C   UNL     1       1.049  -4.708  -3.068  0.00  0.00    +0.026 A 
ATOM     32  C   UNL     1       2.145  -6.905  -3.546  0.00  0.00    +0.044 C 
ENDBRANCH  24  26
BRANCH  21  33
ATOM     33  C   UNL     1      -0.589  -0.647  -0.689  0.00  0.00    +0.110 C 
BRANCH  33  35
ATOM     34  C   UNL     1       0.944   1.326  -0.678  0.00  0.00    +0.005 C 
ATOM     35  C   UNL     1       0.824  -0.165  -0.354  0.00  0.00    +0.016 C 
ENDBRANCH  33  35
ENDBRANCH  21  33
ENDBRANCH  19  21
ENDBRANCH   1  19
TORSDOF 6
