REMARK  Name = ZINC30985948
REMARK  10 active torsions:
REMARK  status: ('A' for Active; 'I' for Inactive)
REMARK    1  A    between atoms: C_3  and  C_8
REMARK    2  A    between atoms: C_8  and  S_9
REMARK    3  A    between atoms: S_9  and  C_10
REMARK    4  A    between atoms: C_10  and  C_11
REMARK    5  A    between atoms: C_11  and  C_12
REMARK    6  A    between atoms: C_12  and  N_13
REMARK    7  A    between atoms: C_14  and  C_16
REMARK    8  A    between atoms: N_19  and  C_22
REMARK    9  A    between atoms: C_22  and  C_23
REMARK   10  A    between atoms: C_25  and  C_28
REMARK                            x       y       z     vdW  Elec       q    Type
REMARK                         _______ _______ _______ _____ _____    ______ ____
ROOT
ATOM      1  C   UNL     1       6.286   7.882   3.754  0.00  0.00    +0.071 C 
ATOM      2  C   UNL     1       5.701   8.988   2.871  0.00  0.00    -0.006 C 
ATOM      3  C   UNL     1       5.602   8.484   1.430  0.00  0.00    -0.077 C 
ATOM      4  N   UNL     1       4.746   7.293   1.384  0.00  0.00    +0.386 N 
ATOM      5  C   UNL     1       5.311   6.201   2.187  0.00  0.00    -0.077 C 
ATOM      6  C   UNL     1       5.402   6.636   3.651  0.00  0.00    -0.006 C 
ATOM      7  H   UNL     1       3.773   7.562   1.822  0.00  0.00    -0.081 HD
ENDROOT
BRANCH   1   9
ATOM      8  N   UNL     1       6.811   7.538   6.147  0.00  0.00    -0.315 N 
ATOM      9  C   UNL     1       6.330   8.351   5.186  0.00  0.00    +0.216 C 
ATOM     10  O   UNL     1       5.934   9.461   5.473  0.00  0.00    -0.276 OA
ATOM     11  H   UNL     1       7.171   6.532   5.887  0.00  0.00    +0.149 HD
BRANCH   8  12
ATOM     12  C   UNL     1       6.854   7.994   7.538  0.00  0.00    +0.105 C 
BRANCH  12  13
ATOM     13  C   UNL     1       7.438   6.888   8.420  0.00  0.00    +0.029 C 
BRANCH  13  14
ATOM     14  C   UNL     1       7.483   7.364   9.873  0.00  0.00    +0.071 C 
BRANCH  14  15
ATOM     15  S   UNL     1       8.176   6.053  10.918  0.00  0.00    -0.156 S 
BRANCH  15  16
ATOM     16  C   UNL     1       8.161   6.767  12.585  0.00  0.00    +0.104 C 
BRANCH  16  19
ATOM     17  C   UNL     1       8.386   3.952  15.091  0.00  0.00    +0.002 A 
ATOM     18  C   UNL     1       7.875   4.873  14.196  0.00  0.00    +0.004 A 
ATOM     19  C   UNL     1       8.719   5.767  13.565  0.00  0.00    -0.036 A 
ATOM     20  C   UNL     1      10.074   5.747  13.836  0.00  0.00    +0.024 A 
ATOM     21  C   UNL     1      10.586   4.830  14.736  0.00  0.00    +0.041 A 
ATOM     22  C   UNL     1       9.741   3.932  15.363  0.00  0.00    +0.020 A 
ATOM     23 CL   UNL     1      12.288   4.805  15.077  0.00  0.00    -0.084 Cl
ENDBRANCH  16  19
ENDBRANCH  15  16
ENDBRANCH  14  15
ENDBRANCH  13  14
ENDBRANCH  12  13
ENDBRANCH   8  12
ENDBRANCH   1   9
BRANCH   4  24
ATOM     24  C   UNL     1       4.516   6.862  -0.002  0.00  0.00    +0.022 C 
BRANCH  24  25
ATOM     25  C   UNL     1       3.847   5.512  -0.004  0.00  0.00    +0.211 A 
ATOM     26  N   UNL     1       2.557   5.283   0.001  0.00  0.00    -0.193 NA
ATOM     27  C   UNL     1       2.428   3.937   0.001  0.00  0.00    +0.202 A 
ATOM     28  N   UNL     1       3.634   3.433  -0.014  0.00  0.00    -0.056 NA
ATOM     29  O   UNL     1       4.458   4.323  -0.016  0.00  0.00    -0.340 OA
BRANCH  27  30
ATOM     30  C   UNL     1       1.154   3.174   0.008  0.00  0.00    +0.024 A 
ATOM     31  C   UNL     1       1.174   1.781   0.000  0.00  0.00    +0.012 A 
ATOM     32  C   UNL     1      -0.013   1.076   0.008  0.00  0.00    +0.002 A 
ATOM     33  C   UNL     1      -1.220   1.750   0.017  0.00  0.00    +0.020 A 
ATOM     34  C   UNL     1      -1.246   3.134   0.031  0.00  0.00    +0.042 A 
ATOM     35  C   UNL     1      -0.064   3.849   0.023  0.00  0.00    +0.031 A 
ATOM     36 CL   UNL     1      -2.766   3.972   0.050  0.00  0.00    -0.084 Cl
ENDBRANCH  27  30
ENDBRANCH  24  25
ENDBRANCH   4  24
TORSDOF 10
