REMARK  Name = ZINC17081003
REMARK  9 active torsions:
REMARK  status: ('A' for Active; 'I' for Inactive)
REMARK    1  A    between atoms: C_1  and  C_2
REMARK    2  A    between atoms: C_2  and  C_3
REMARK    3  A    between atoms: C_2  and  C_4
REMARK    4  A    between atoms: C_2  and  C_5
REMARK    5  A    between atoms: C_8  and  C_11
REMARK    6  A    between atoms: C_14  and  C_16
REMARK    7  A    between atoms: N_18  and  N_19
REMARK    8  A    between atoms: N_22  and  C_23
REMARK    9  A    between atoms: C_27  and  N_29
REMARK                            x       y       z     vdW  Elec       q    Type
REMARK                         _______ _______ _______ _____ _____    ______ ____
ROOT
ATOM      1  C   UNL     1      -0.187   9.297   0.354  0.00  0.00    +0.233 C 
ATOM      2  O   UNL     1       0.852   9.917   0.438  0.00  0.00    -0.274 OA
ATOM      3  N   UNL     1      -0.164   7.954   0.246  0.00  0.00    -0.233 N 
ATOM      4  H   UNL     1      -0.994   7.458   0.178  0.00  0.00    +0.173 HD
ENDROOT
BRANCH   3   5
ATOM      5  N   UNL     1       1.061   7.274   0.231  0.00  0.00    -0.218 N 
ATOM      6  C   UNL     1       1.085   5.931   0.123  0.00  0.00    +0.320 C 
ATOM      7  O   UNL     1       2.148   5.341   0.110  0.00  0.00    -0.251 OA
ATOM      8  N   UNL     1      -0.069   5.242   0.029  0.00  0.00    -0.268 N 
ATOM      9  H   UNL     1       1.892   7.770   0.299  0.00  0.00    +0.174 HD
ATOM     10  H   UNL     1      -0.913   5.716  -0.039  0.00  0.00    +0.156 HD
BRANCH   8  11
ATOM     11  C   UNL     1      -0.051   3.842   0.029  0.00  0.00    +0.037 A 
ATOM     12  C   UNL     1       0.907   3.159   0.768  0.00  0.00    +0.023 A 
ATOM     13  C   UNL     1       0.923   1.778   0.765  0.00  0.00    +0.004 A 
ATOM     14  C   UNL     1      -0.014   1.076   0.029  0.00  0.00    +0.033 A 
ATOM     15  C   UNL     1      -0.965   1.753  -0.711  0.00  0.00    +0.128 A 
ATOM     16  C   UNL     1      -0.989   3.134  -0.709  0.00  0.00    +0.056 A 
BRANCH  15  17
ATOM     17  N   UNL     1      -1.962   0.997  -1.502  0.00  0.00    +0.056 N 
ATOM     18  O   UNL     1      -1.944  -0.221  -1.501  0.00  0.00    -0.126 OA
ATOM     19  O   UNL     1      -2.800   1.593  -2.154  0.00  0.00    -0.126 OA
ENDBRANCH  15  17
ENDBRANCH   8  11
ENDBRANCH   3   5
BRANCH   1  22
ATOM     20  C   UNL     1      -1.465  11.553   0.494  0.00  0.00    +0.032 C 
ATOM     21  C   UNL     1      -1.924  10.700   1.679  0.00  0.00    +0.022 C 
ATOM     22  C   UNL     1      -1.505  10.028   0.370  0.00  0.00    +0.084 C 
BRANCH  20  26
ATOM     23  C   UNL     1      -4.445  13.781  -1.605  0.00  0.00    -0.042 A 
ATOM     24  C   UNL     1      -3.106  13.982  -1.885  0.00  0.00    +0.004 A 
ATOM     25  C   UNL     1      -2.142  13.261  -1.206  0.00  0.00    +0.004 A 
ATOM     26  C   UNL     1      -2.517  12.339  -0.246  0.00  0.00    -0.044 A 
ATOM     27  C   UNL     1      -3.855  12.134   0.031  0.00  0.00    +0.004 A 
ATOM     28  C   UNL     1      -4.819  12.859  -0.645  0.00  0.00    +0.004 A 
BRANCH  23  30
ATOM     29  C   UNL     1      -5.385  14.280  -3.844  0.00  0.00    +0.015 C 
ATOM     30  C   UNL     1      -5.496  14.566  -2.346  0.00  0.00    -0.013 C 
ATOM     31  C   UNL     1      -6.884  14.156  -1.849  0.00  0.00    +0.015 C 
ATOM     32  C   UNL     1      -5.287  16.061  -2.095  0.00  0.00    +0.015 C 
ENDBRANCH  23  30
ENDBRANCH  20  26
ENDBRANCH   1  22
TORSDOF 6
