REMARK  Name = ZINC45191523
REMARK  8 active torsions:
REMARK  status: ('A' for Active; 'I' for Inactive)
REMARK    1  A    between atoms: C_4  and  C_21
REMARK    2  A    between atoms: C_5  and  C_7
REMARK    3  A    between atoms: C_7  and  N_8
REMARK    4  A    between atoms: N_11  and  N_12
REMARK    5  A    between atoms: N_12  and  C_13
REMARK    6  A    between atoms: C_13  and  N_15
REMARK    7  A    between atoms: N_15  and  C_16
REMARK    8  A    between atoms: C_21  and  N_22
REMARK                            x       y       z     vdW  Elec       q    Type
REMARK                         _______ _______ _______ _____ _____    ______ ____
ROOT
ATOM      1  N   UNL     1       1.490  -2.679   1.334  0.00  0.00    -0.294 N 
ATOM      2  C   UNL     1       1.553  -4.004   1.569  0.00  0.00    +0.316 C 
ATOM      3  O   UNL     1       1.394  -4.791   0.656  0.00  0.00    -0.251 OA
ATOM      4  N   UNL     1       1.793  -4.457   2.815  0.00  0.00    -0.219 N 
ATOM      5  H   UNL     1       1.617  -2.051   2.063  0.00  0.00    +0.151 HD
ATOM      6  H   UNL     1       1.838  -5.412   2.984  0.00  0.00    +0.174 HD
ENDROOT
BRANCH   4   7
ATOM      7  N   UNL     1       1.976  -3.551   3.867  0.00  0.00    -0.245 N 
ATOM      8  H   UNL     1       1.931  -2.596   3.699  0.00  0.00    +0.172 HD
BRANCH   7   9
ATOM      9  C   UNL     1       2.216  -4.004   5.114  0.00  0.00    +0.147 C 
ATOM     10  S   UNL     1       2.441  -2.896   6.399  0.00  0.00    -0.017 S 
BRANCH   9  11
ATOM     11  N   UNL     1       2.280  -5.330   5.348  0.00  0.00    -0.323 N 
ATOM     12  H   UNL     1       2.152  -5.957   4.620  0.00  0.00    +0.148 HD
BRANCH  11  13
ATOM     13  C   UNL     1       2.540  -5.822   6.703  0.00  0.00    +0.072 C 
ATOM     14  C   UNL     1       1.214  -5.969   7.476  0.00  0.00    +0.022 C 
ATOM     15  C   UNL     1       0.834  -7.460   7.298  0.00  0.00    +0.002 C 
ATOM     16  C   UNL     1       2.205  -8.175   7.380  0.00  0.00    +0.002 C 
ATOM     17  C   UNL     1       3.171  -7.224   6.641  0.00  0.00    +0.022 C 
ENDBRANCH  11  13
ENDBRANCH   9  11
ENDBRANCH   7   9
ENDBRANCH   4   7
BRANCH   1  18
ATOM     18  C   UNL     1       1.229  -2.186  -0.020  0.00  0.00    +0.141 C 
BRANCH  18  23
ATOM     19  C   UNL     1      -0.017   1.378   0.010  0.00  0.00    +0.000 A 
ATOM     20  C   UNL     1       1.171   2.085   0.002  0.00  0.00    +0.000 A 
ATOM     21  C   UNL     1       2.377   1.411  -0.013  0.00  0.00    +0.002 A 
ATOM     22  C   UNL     1       2.396   0.028  -0.020  0.00  0.00    -0.059 A 
ATOM     23  C   UNL     1       1.209  -0.679  -0.012  0.00  0.00    -0.029 A 
ATOM     24  C   UNL     1       0.002  -0.004   0.002  0.00  0.00    +0.005 A 
BRANCH  22  25
ATOM     25  C   UNL     1       3.711  -0.707  -0.038  0.00  0.00    -0.043 C 
BRANCH  25  26
ATOM     26  N   UNL     1       4.007  -1.149  -1.407  0.00  0.00    +0.382 N 
ATOM     27  C   UNL     1       4.297   0.022  -2.272  0.00  0.00    -0.078 C 
ATOM     28  C   UNL     1       5.108  -0.592  -3.441  0.00  0.00    -0.020 C 
ATOM     29  C   UNL     1       5.973  -1.663  -2.736  0.00  0.00    -0.020 C 
ATOM     30  C   UNL     1       5.233  -1.976  -1.422  0.00  0.00    -0.078 C 
ATOM     31  H   UNL     1       3.229  -1.674  -1.779  0.00  0.00    -0.081 HD
ENDBRANCH  25  26
ENDBRANCH  22  25
ENDBRANCH  18  23
ENDBRANCH   1  18
TORSDOF 8
