REMARK  Name = ZINC15088300
REMARK  6 active torsions:
REMARK  status: ('A' for Active; 'I' for Inactive)
REMARK    1  A    between atoms: C_4  and  N_7
REMARK    2  A    between atoms: C_12  and  S_16
REMARK    3  A    between atoms: S_16  and  C_17
REMARK    4  A    between atoms: C_17  and  C_18
REMARK    5  A    between atoms: N_20  and  C_21
REMARK    6  A    between atoms: C_22  and  C_26
REMARK                            x       y       z     vdW  Elec       q    Type
REMARK                         _______ _______ _______ _____ _____    ______ ____
ROOT
ATOM      1  S   UNL     1      -2.689   0.750   0.019  0.00  0.00    -0.096 S 
ENDROOT
BRANCH   1   7
ATOM      2  N   UNL     1      -7.599   1.558   0.046  0.00  0.00    -0.214 N 
ATOM      3  C   UNL     1      -6.443   2.287   0.045  0.00  0.00    +0.167 A 
ATOM      4  C   UNL     1      -5.384   1.358   0.035  0.00  0.00    +0.071 A 
ATOM      5  C   UNL     1      -5.963   0.070   0.030  0.00  0.00    +0.147 A 
ATOM      6  N   UNL     1      -7.260   0.200   0.036  0.00  0.00    -0.172 NA
ATOM      7  C   UNL     1      -4.064   1.851   0.031  0.00  0.00    +0.111 A 
ATOM      8  N   UNL     1      -3.882   3.168   0.043  0.00  0.00    -0.228 NA
ATOM      9  C   UNL     1      -4.908   4.000   0.050  0.00  0.00    +0.224 A 
ATOM     10  N   UNL     1      -6.157   3.587   0.053  0.00  0.00    -0.216 NA
BRANCH   2  14
ATOM     11  C   UNL     1     -11.466   3.111   0.074  0.00  0.00    +0.000 A 
ATOM     12  C   UNL     1     -11.195   1.947  -0.622  0.00  0.00    +0.002 A 
ATOM     13  C   UNL     1      -9.914   1.430  -0.633  0.00  0.00    +0.028 A 
ATOM     14  C   UNL     1      -8.898   2.080   0.055  0.00  0.00    +0.068 A 
ATOM     15  C   UNL     1      -9.175   3.246   0.757  0.00  0.00    +0.028 A 
ATOM     16  C   UNL     1     -10.457   3.761   0.761  0.00  0.00    +0.002 A 
ENDBRANCH   2  14
ENDBRANCH   1   7
BRANCH   1  17
ATOM     17  C   UNL     1      -1.330   1.944   0.019  0.00  0.00    +0.172 C 
BRANCH  17  18
ATOM     18  C   UNL     1      -0.014   1.209   0.009  0.00  0.00    +0.228 C 
ATOM     19  O   UNL     1       0.002  -0.004   0.002  0.00  0.00    -0.275 OA
ATOM     20  N   UNL     1       1.143   1.898   0.001  0.00  0.00    -0.279 N 
ATOM     21  H   UNL     1       1.130   2.868   0.007  0.00  0.00    +0.155 HD
BRANCH  20  22
ATOM     22  C   UNL     1       2.354   1.221  -0.014  0.00  0.00    +0.084 A 
ATOM     23  C   UNL     1       3.639   1.750  -0.029  0.00  0.00    +0.065 A 
ATOM     24  C   UNL     1       4.730   0.805  -0.039  0.00  0.00    +0.022 A 
ATOM     25  C   UNL     1       4.410  -0.501  -0.044  0.00  0.00    +0.048 A 
ATOM     26  S   UNL     1       2.630  -0.488  -0.026  0.00  0.00    -0.081 S 
BRANCH  23  27
ATOM     27  C   UNL     1       3.875   3.198  -0.031  0.00  0.00    +0.244 C 
ATOM     28  O   UNL     1       2.932   3.968  -0.019  0.00  0.00    -0.270 OA
ATOM     29  N   UNL     1       5.135   3.675  -0.045  0.00  0.00    -0.325 N 
ATOM     30  H   UNL     1       5.886   3.061  -0.055  0.00  0.00    +0.145 HD
ATOM     31  H   UNL     1       5.291   4.632  -0.047  0.00  0.00    +0.145 HD
ENDBRANCH  23  27
ENDBRANCH  20  22
ENDBRANCH  17  18
ENDBRANCH   1  17
TORSDOF 6
