REMARK  Name = ZINC40982630
REMARK  14 active torsions:
REMARK  status: ('A' for Active; 'I' for Inactive)
REMARK    1  A    between atoms: C_1  and  C_2
REMARK    2  A    between atoms: C_2  and  C_3
REMARK    3  A    between atoms: C_3  and  S_4
REMARK    4  A    between atoms: S_4  and  C_5
REMARK    5  A    between atoms: C_10  and  C_22
REMARK    6  A    between atoms: C_12  and  C_16
REMARK    7  A    between atoms: C_13  and  C_15
REMARK    8  A    between atoms: C_16  and  O_18
REMARK    9  A    between atoms: O_18  and  C_19
REMARK   10  A    between atoms: C_19  and  C_20
REMARK   11  A    between atoms: C_24  and  O_31
REMARK   12  A    between atoms: C_25  and  O_29
REMARK   13  A    between atoms: O_29  and  C_30
REMARK   14  A    between atoms: O_31  and  C_32
REMARK                            x       y       z     vdW  Elec       q    Type
REMARK                         _______ _______ _______ _____ _____    ______ ____
ROOT
ATOM      1  C   UNL     1       1.262  -2.800   2.953  0.00  0.00    +0.210 A 
ATOM      2  N   UNL     1       1.803  -1.916   3.803  0.00  0.00    -0.187 NA
ATOM      3  C   UNL     1       2.552  -2.544   4.668  0.00  0.00    +0.219 A 
ATOM      4  N   UNL     1       2.509  -3.868   4.379  0.00  0.00    -0.220 N 
ATOM      5  N   UNL     1       1.666  -4.009   3.277  0.00  0.00    -0.141 NA
ATOM      6  C   UNL     1       3.238  -4.884   5.133  0.00  0.00    +0.179 C 
ATOM      7  C   UNL     1       3.768  -4.279   6.406  0.00  0.00    +0.082 C 
ATOM      8  C   UNL     1       3.782  -2.957   6.638  0.00  0.00    +0.020 C 
ATOM      9  N   UNL     1       3.299  -2.050   5.728  0.00  0.00    -0.287 N 
ATOM     10  C   UNL     1       4.346  -2.453   7.941  0.00  0.00    +0.061 C 
ATOM     11  H   UNL     1       3.473  -1.101   5.823  0.00  0.00    +0.155 HD
ENDROOT
BRANCH   6  12
ATOM     12  C   UNL     1       4.387  -5.397   4.304  0.00  0.00    -0.014 A 
ATOM     13  C   UNL     1       4.451  -6.737   3.967  0.00  0.00    +0.055 A 
ATOM     14  C   UNL     1       5.507  -7.210   3.205  0.00  0.00    +0.163 A 
ATOM     15  C   UNL     1       6.501  -6.335   2.779  0.00  0.00    +0.175 A 
ATOM     16  C   UNL     1       6.431  -4.993   3.119  0.00  0.00    +0.063 A 
ATOM     17  C   UNL     1       5.372  -4.526   3.876  0.00  0.00    +0.025 A 
ATOM     18 BR   UNL     1       7.780  -3.800   2.542  0.00  0.00    -0.046 Br
BRANCH  15  19
ATOM     19  O   UNL     1       7.540  -6.796   2.031  0.00  0.00    -0.490 OA
ATOM     20  C   UNL     1       7.373  -6.781   0.612  0.00  0.00    +0.277 C 
ENDBRANCH  15  19
BRANCH  14  21
ATOM     21  O   UNL     1       5.571  -8.528   2.875  0.00  0.00    -0.491 OA
ATOM     22  C   UNL     1       4.516  -9.368   3.347  0.00  0.00    +0.277 C 
ENDBRANCH  14  21
ENDBRANCH   6  12
BRANCH   7  23
ATOM     23  C   UNL     1       4.274  -5.143   7.402  0.00  0.00    +0.339 C 
ATOM     24  O   UNL     1       3.510  -5.804   8.081  0.00  0.00    -0.245 OA
BRANCH  23  25
ATOM     25  O   UNL     1       5.606  -5.236   7.601  0.00  0.00    -0.457 OA
BRANCH  25  26
ATOM     26  C   UNL     1       6.048  -6.130   8.626  0.00  0.00    +0.259 C 
BRANCH  26  27
ATOM     27  C   UNL     1       7.553  -6.101   8.703  0.00  0.00    +0.006 C 
ATOM     28  C   UNL     1       8.148  -6.030   9.867  0.00  0.00    +0.007 C 
ENDBRANCH  26  27
ENDBRANCH  25  26
ENDBRANCH  23  25
ENDBRANCH   7  23
BRANCH   1  29
ATOM     29  S   UNL     1       0.178  -2.407   1.620  0.00  0.00    -0.084 S 
BRANCH  29  30
ATOM     30  C   UNL     1       0.015  -0.602   1.704  0.00  0.00    +0.077 C 
BRANCH  30  32
ATOM     31  C   UNL     1      -1.050   1.401   0.658  0.00  0.00    +0.004 C 
ATOM     32  C   UNL     1      -0.913  -0.121   0.587  0.00  0.00    +0.008 C 
ENDBRANCH  30  32
ENDBRANCH  29  30
ENDBRANCH   1  29
TORSDOF 10
