REMARK  Name = ZINC40682281
REMARK  7 active torsions:
REMARK  status: ('A' for Active; 'I' for Inactive)
REMARK    1  A    between atoms: C_1  and  C_2
REMARK    2  A    between atoms: C_11  and  N_12
REMARK    3  A    between atoms: C_14  and  N_28
REMARK    4  A    between atoms: C_15  and  N_19
REMARK    5  A    between atoms: N_19  and  C_20
REMARK    6  A    between atoms: C_22  and  C_27
REMARK    7  A    between atoms: C_24  and  C_26
REMARK                            x       y       z     vdW  Elec       q    Type
REMARK                         _______ _______ _______ _____ _____    ______ ____
ROOT
ATOM      1  N   UNL     1       0.414  -4.879  -1.106  0.00  0.00    -0.297 N 
ATOM      2  C   UNL     1       0.536  -6.263  -1.066  0.00  0.00    +0.149 A 
ATOM      3  C   UNL     1       0.473  -7.015  -2.241  0.00  0.00    +0.106 A 
ATOM      4  C   UNL     1       0.602  -8.402  -2.144  0.00  0.00    +0.149 A 
ATOM      5  N   UNL     1       0.779  -8.950  -0.944  0.00  0.00    -0.219 NA
ATOM      6  C   UNL     1       0.833  -8.204   0.141  0.00  0.00    +0.225 A 
ATOM      7  N   UNL     1       0.721  -6.892   0.093  0.00  0.00    -0.219 NA
ATOM      8  H   UNL     1       0.201  -4.435  -1.941  0.00  0.00    +0.154 HD
ENDROOT
BRANCH   1  19
ATOM      9  C   UNL     1      -1.539   1.058   0.650  0.00  0.00    +0.063 C 
ATOM     10  C   UNL     1      -0.974  -0.329   0.478  0.00  0.00    +0.013 A 
ATOM     11  C   UNL     1      -1.203  -1.010  -0.714  0.00  0.00    +0.021 A 
ATOM     12  C   UNL     1      -0.698  -2.269  -0.888  0.00  0.00    +0.013 A 
ATOM     13  C   UNL     1       0.045  -2.836   0.161  0.00  0.00    +0.020 A 
ATOM     14  C   UNL     1       0.241  -2.088   1.349  0.00  0.00    +0.048 A 
ATOM     15  N   UNL     1      -0.276  -0.859   1.453  0.00  0.00    -0.358 N 
ATOM     16  C   UNL     1       0.984  -2.652   2.399  0.00  0.00    +0.026 A 
ATOM     17  C   UNL     1       1.506  -3.904   2.271  0.00  0.00    +0.004 A 
ATOM     18  C   UNL     1       1.320  -4.646   1.110  0.00  0.00    +0.024 A 
ATOM     19  C   UNL     1       0.597  -4.130   0.054  0.00  0.00    +0.042 A 
ATOM     20  H   UNL     1      -0.135  -0.352   2.267  0.00  0.00    +0.166 HD
ENDBRANCH   1  19
BRANCH   3  21
ATOM     21  N   UNL     1       0.284  -6.394  -3.485  0.00  0.00    -0.353 N 
ATOM     22  H   UNL     1       0.196  -5.429  -3.537  0.00  0.00    +0.143 HD
ATOM     23  H   UNL     1       0.242  -6.929  -4.293  0.00  0.00    +0.143 HD
ENDBRANCH   3  21
BRANCH   4  24
ATOM     24  N   UNL     1       0.546  -9.197  -3.283  0.00  0.00    -0.298 N 
ATOM     25  H   UNL     1       0.495  -8.786  -4.160  0.00  0.00    +0.154 HD
BRANCH  24  26
ATOM     26  C   UNL     1       0.563 -10.590  -3.164  0.00  0.00    +0.033 A 
ATOM     27  C   UNL     1       1.181 -11.364  -4.138  0.00  0.00    +0.026 A 
ATOM     28  C   UNL     1       1.196 -12.740  -4.017  0.00  0.00    -0.048 A 
ATOM     29  C   UNL     1       0.597 -13.347  -2.929  0.00  0.00    +0.006 A 
ATOM     30  C   UNL     1      -0.020 -12.579  -1.958  0.00  0.00    -0.048 A 
ATOM     31  C   UNL     1      -0.033 -11.202  -2.069  0.00  0.00    +0.026 A 
ATOM     32  C   UNL     1      -0.673 -13.245  -0.774  0.00  0.00    +0.044 C 
ATOM     33  C   UNL     1       1.867 -13.580  -5.073  0.00  0.00    +0.044 C 
ENDBRANCH  24  26
ENDBRANCH   4  24
TORSDOF 4
