REMARK  Name = ZINC29636205
REMARK  8 active torsions:
REMARK  status: ('A' for Active; 'I' for Inactive)
REMARK    1  A    between atoms: C_4  and  O_29
REMARK    2  A    between atoms: C_5  and  N_7
REMARK    3  A    between atoms: N_10  and  C_13
REMARK    4  A    between atoms: C_13  and  C_14
REMARK    5  A    between atoms: N_16  and  C_17
REMARK    6  A    between atoms: N_16  and  C_22
REMARK    7  A    between atoms: C_17  and  C_18
REMARK    8  A    between atoms: C_18  and  C_19
REMARK                            x       y       z     vdW  Elec       q    Type
REMARK                         _______ _______ _______ _____ _____    ______ ____
ROOT
ATOM      1  C   UNL     1       3.458   3.478   1.745  0.00  0.00    +0.203 C 
ATOM      2  O   UNL     1       2.421   4.008   2.084  0.00  0.00    -0.277 OA
ATOM      3  N   UNL     1       4.574   4.217   1.589  0.00  0.00    -0.272 N 
ENDROOT
BRANCH   3   4
ATOM      4  C   UNL     1       4.515   5.610   1.720  0.00  0.00    +0.036 A 
ATOM      5  C   UNL     1       3.829   6.368   0.780  0.00  0.00    +0.026 A 
ATOM      6  C   UNL     1       3.768   7.741   0.913  0.00  0.00    +0.040 A 
ATOM      7  C   UNL     1       4.398   8.363   1.978  0.00  0.00    +0.124 A 
ATOM      8  C   UNL     1       5.087   7.610   2.913  0.00  0.00    +0.040 A 
ATOM      9  C   UNL     1       5.147   6.236   2.786  0.00  0.00    +0.026 A 
ATOM     10  F   UNL     1       4.341   9.707   2.103  0.00  0.00    -0.205 F 
ENDBRANCH   3   4
BRANCH   1  11
ATOM     11  C   UNL     1       3.498   1.992   1.498  0.00  0.00    +0.019 C 
BRANCH  11  15
ATOM     12  N   UNL     1      -0.140  -0.113   1.069  0.00  0.00    -0.331 N 
ATOM     13  C   UNL     1      -0.190   1.356   1.068  0.00  0.00    +0.086 C 
ATOM     14  C   UNL     1       1.199   1.910   0.741  0.00  0.00    -0.059 C 
ATOM     15  N   UNL     1       2.165   1.420   1.734  0.00  0.00    +0.387 N 
ATOM     16  C   UNL     1       2.215  -0.049   1.736  0.00  0.00    -0.059 C 
ATOM     17  C   UNL     1       0.826  -0.603   2.062  0.00  0.00    +0.086 C 
ATOM     18  H   UNL     1       1.828   1.750   2.728  0.00  0.00    -0.081 HD
BRANCH  12  23
ATOM     19  C   UNL     1      -3.347  -0.907   2.685  0.00  0.00    +0.002 A 
ATOM     20  C   UNL     1      -3.923  -1.735   1.739  0.00  0.00    +0.004 A 
ATOM     21  C   UNL     1      -3.247  -2.027   0.569  0.00  0.00    +0.047 A 
ATOM     22  C   UNL     1      -1.990  -1.491   0.341  0.00  0.00    +0.138 A 
ATOM     23  C   UNL     1      -1.410  -0.657   1.294  0.00  0.00    +0.072 A 
ATOM     24  C   UNL     1      -2.091  -0.372   2.468  0.00  0.00    +0.027 A 
BRANCH  22  25
ATOM     25  O   UNL     1      -1.325  -1.779  -0.809  0.00  0.00    -0.505 OA
ATOM     26  H   UNL     1      -0.327  -1.353  -0.989  0.00  0.00    +0.292 HD
ENDBRANCH  22  25
ENDBRANCH  12  23
ENDBRANCH  11  15
ENDBRANCH   1  11
BRANCH   3  27
ATOM     27  C   UNL     1       5.849   3.563   1.284  0.00  0.00    +0.123 C 
BRANCH  27  28
ATOM     28  C   UNL     1       6.016   3.456  -0.233  0.00  0.00    +0.115 C 
BRANCH  28  29
ATOM     29  C   UNL     1       7.328   2.783  -0.547  0.00  0.00    +0.212 C 
ATOM     30  O   UNL     1       8.057   2.425   0.353  0.00  0.00    -0.276 OA
ATOM     31  N   UNL     1       7.690   2.580  -1.829  0.00  0.00    -0.329 N 
ATOM     32  H   UNL     1       8.648   2.089  -2.059  0.00  0.00    +0.145 HD
ATOM     33  H   UNL     1       7.029   2.905  -2.646  0.00  0.00    +0.145 HD
ENDBRANCH  28  29
ENDBRANCH  27  28
ENDBRANCH   3  27
TORSDOF 8
