REMARK  Name = ZINC08441703
REMARK  8 active torsions:
REMARK  status: ('A' for Active; 'I' for Inactive)
REMARK    1  A    between atoms: C_1  and  C_2
REMARK    2  A    between atoms: C_2  and  C_3
REMARK    3  A    between atoms: C_6  and  C_9
REMARK    4  A    between atoms: C_11  and  C_28
REMARK    5  A    between atoms: C_12  and  O_27
REMARK    6  A    between atoms: C_19  and  C_26
REMARK    7  A    between atoms: C_21  and  C_25
REMARK    8  A    between atoms: C_28  and  C_30
REMARK                            x       y       z     vdW  Elec       q    Type
REMARK                         _______ _______ _______ _____ _____    ______ ____
ROOT
ATOM      1  C   UNL     1       4.173   5.928   0.221  0.00  0.00    +0.151 C 
ATOM      2  C   UNL     1       5.617   6.370   0.176  0.00  0.00    +0.075 C 
ATOM      3  C   UNL     1       6.351   5.275  -0.132  0.00  0.00    +0.189 C 
ATOM      4  C   UNL     1       5.451   4.115  -0.288  0.00  0.00    +0.288 C 
ATOM      5  O   UNL     1       5.809   2.986  -0.560  0.00  0.00    -0.266 OA
ATOM      6  N   UNL     1       4.175   4.493  -0.089  0.00  0.00    -0.232 N 
ATOM      7  C   UNL     1       3.063   3.673  -0.158  0.00  0.00    +0.169 A 
ATOM      8  N   UNL     1       3.002   2.390  -0.429  0.00  0.00    -0.224 NA
ATOM      9  C   UNL     1       1.835   1.710  -0.461  0.00  0.00    +0.083 A 
ATOM     10  C   UNL     1       1.632   0.337  -0.736  0.00  0.00    -0.024 A 
ATOM     11  C   UNL     1       0.371  -0.199  -0.728  0.00  0.00    +0.009 A 
ATOM     12  C   UNL     1      -0.746   0.578  -0.452  0.00  0.00    -0.049 A 
ATOM     13  C   UNL     1      -0.584   1.923  -0.178  0.00  0.00    +0.020 A 
ATOM     14  C   UNL     1       0.676   2.469  -0.183  0.00  0.00    +0.041 A 
ATOM     15  S   UNL     1       1.345   4.091   0.100  0.00  0.00    -0.052 S 
ATOM     16  C   UNL     1      -2.120  -0.040  -0.450  0.00  0.00    +0.044 C 
ATOM     17  C   UNL     1       2.815  -0.545  -1.043  0.00  0.00    +0.046 C 
ENDROOT
BRANCH   1  21
ATOM     18  C   UNL     1       2.555   6.586   4.119  0.00  0.00    -0.048 A 
ATOM     19  C   UNL     1       2.151   7.377   3.060  0.00  0.00    +0.004 A 
ATOM     20  C   UNL     1       2.674   7.165   1.799  0.00  0.00    +0.006 A 
ATOM     21  C   UNL     1       3.602   6.160   1.596  0.00  0.00    -0.022 A 
ATOM     22  C   UNL     1       4.002   5.365   2.654  0.00  0.00    +0.006 A 
ATOM     23  C   UNL     1       3.482   5.581   3.916  0.00  0.00    +0.004 A 
BRANCH  18  25
ATOM     24  C   UNL     1       0.725   5.969   5.674  0.00  0.00    +0.009 C 
ATOM     25  C   UNL     1       1.985   6.819   5.495  0.00  0.00    +0.032 C 
ENDBRANCH  18  25
ENDBRANCH   1  21
BRANCH   3  26
ATOM     26  O   UNL     1       7.697   5.247  -0.270  0.00  0.00    -0.502 OA
ATOM     27  H   UNL     1       7.990   4.318  -0.498  0.00  0.00    +0.292 HD
ENDBRANCH   3  26
BRANCH   2  28
ATOM     28  C   UNL     1       6.125   7.724   0.418  0.00  0.00    +0.230 C 
ATOM     29  O   UNL     1       6.838   7.944   1.380  0.00  0.00    -0.284 OA
BRANCH  28  30
ATOM     30  C   UNL     1       5.774   8.816  -0.501  0.00  0.00    +0.176 A 
ATOM     31  C   UNL     1       6.257  10.086  -0.429  0.00  0.00    +0.061 A 
ATOM     32  C   UNL     1       5.640  10.816  -1.535  0.00  0.00    +0.021 A 
ATOM     33  C   UNL     1       5.721  12.132  -1.998  0.00  0.00    +0.011 A 
ATOM     34  C   UNL     1       4.995  12.510  -3.092  0.00  0.00    +0.001 A 
ATOM     35  C   UNL     1       4.178  11.596  -3.745  0.00  0.00    +0.004 A 
ATOM     36  C   UNL     1       4.084  10.294  -3.303  0.00  0.00    +0.047 A 
ATOM     37  C   UNL     1       4.814   9.885  -2.193  0.00  0.00    +0.136 A 
ATOM     38  O   UNL     1       4.929   8.709  -1.547  0.00  0.00    -0.452 OA
ENDBRANCH  28  30
ENDBRANCH   2  28
TORSDOF 5
