REMARK  Name = ZINC40721913
REMARK  13 active torsions:
REMARK  status: ('A' for Active; 'I' for Inactive)
REMARK    1  A    between atoms: C_1  and  C_2
REMARK    2  A    between atoms: C_2  and  C_3
REMARK    3  A    between atoms: C_2  and  O_4
REMARK    4  A    between atoms: O_4  and  C_5
REMARK    5  A    between atoms: C_6  and  O_28
REMARK    6  A    between atoms: C_8  and  C_12
REMARK    7  A    between atoms: C_12  and  N_13
REMARK    8  A    between atoms: N_13  and  C_14
REMARK    9  A    between atoms: C_14  and  C_15
REMARK   10  A    between atoms: C_15  and  S_16
REMARK   11  A    between atoms: S_16  and  C_17
REMARK   12  A    between atoms: N_21  and  C_22
REMARK   13  A    between atoms: O_28  and  C_29
REMARK                            x       y       z     vdW  Elec       q    Type
REMARK                         _______ _______ _______ _____ _____    ______ ____
ROOT
ATOM      1  N   UNL     1       6.694  -0.920   0.550  0.00  0.00    +0.382 N 
ATOM      2  H   UNL     1       6.477   0.045   0.753  0.00  0.00    -0.085 HD
ATOM      3  H   UNL     1       6.225  -1.517   1.215  0.00  0.00    -0.085 HD
ENDROOT
BRANCH   1   4
ATOM      4  C   UNL     1       6.242  -1.248  -0.808  0.00  0.00    -0.047 C 
BRANCH   4   8
ATOM      5  C   UNL     1       2.015  -0.653  -1.086  0.00  0.00    +0.176 A 
ATOM      6  C   UNL     1       2.886   0.392  -1.378  0.00  0.00    +0.163 A 
ATOM      7  C   UNL     1       4.255   0.196  -1.288  0.00  0.00    +0.051 A 
ATOM      8  C   UNL     1       4.753  -1.037  -0.907  0.00  0.00    -0.060 A 
ATOM      9  C   UNL     1       3.888  -2.075  -0.616  0.00  0.00    +0.021 A 
ATOM     10  C   UNL     1       2.520  -1.884  -0.699  0.00  0.00    +0.063 A 
ATOM     11 BR   UNL     1       1.341  -3.305  -0.293  0.00  0.00    -0.046 Br
BRANCH   6  12
ATOM     12  O   UNL     1       2.395   1.604  -1.753  0.00  0.00    -0.491 OA
ATOM     13  C   UNL     1       3.348   2.630  -2.038  0.00  0.00    +0.277 C 
ENDBRANCH   6  12
BRANCH   5  14
ATOM     14  O   UNL     1       0.671  -0.465  -1.174  0.00  0.00    -0.485 OA
BRANCH  14  16
ATOM     15  C   UNL     1      -0.019   1.526   0.010  0.00  0.00    +0.051 C 
ATOM     16  C   UNL     1       0.002  -0.004   0.002  0.00  0.00    +0.168 C 
ATOM     17  C   UNL     1      -1.433  -0.534   0.013  0.00  0.00    +0.051 C 
ENDBRANCH  14  16
ENDBRANCH   5  14
ENDBRANCH   4   8
ENDBRANCH   1   4
BRANCH   1  18
ATOM     18  C   UNL     1       8.146  -1.126   0.646  0.00  0.00    -0.071 C 
BRANCH  18  19
ATOM     19  C   UNL     1       8.617  -0.783   2.061  0.00  0.00    +0.058 C 
BRANCH  19  20
ATOM     20  S   UNL     1      10.409  -1.038   2.179  0.00  0.00    -0.086 S 
BRANCH  20  21
ATOM     21  C   UNL     1      10.792  -0.607   3.844  0.00  0.00    +0.214 A 
ATOM     22  N   UNL     1       9.941  -0.204   4.763  0.00  0.00    -0.101 NA
ATOM     23  N   UNL     1      10.550   0.026   5.870  0.00  0.00    -0.022 NA
ATOM     24  N   UNL     1      11.812  -0.207   5.746  0.00  0.00    -0.038 NA
ATOM     25  N   UNL     1      12.019  -0.634   4.423  0.00  0.00    -0.187 N 
BRANCH  25  26
ATOM     26  C   UNL     1      13.233  -1.006   3.828  0.00  0.00    +0.070 A 
ATOM     27  C   UNL     1      13.260  -2.015   2.874  0.00  0.00    +0.028 A 
ATOM     28  C   UNL     1      14.458  -2.379   2.290  0.00  0.00    +0.002 A 
ATOM     29  C   UNL     1      15.629  -1.740   2.654  0.00  0.00    +0.000 A 
ATOM     30  C   UNL     1      15.605  -0.735   3.604  0.00  0.00    +0.002 A 
ATOM     31  C   UNL     1      14.409  -0.363   4.187  0.00  0.00    +0.028 A 
ENDBRANCH  25  26
ENDBRANCH  20  21
ENDBRANCH  19  20
ENDBRANCH  18  19
ENDBRANCH   1  18
TORSDOF 10
