REMARK  Name = ZINC57315840
REMARK  5 active torsions:
REMARK  status: ('A' for Active; 'I' for Inactive)
REMARK    1  A    between atoms: C_4  and  O_23
REMARK    2  A    between atoms: C_5  and  N_7
REMARK    3  A    between atoms: C_8  and  C_10
REMARK    4  A    between atoms: C_16  and  N_19
REMARK    5  A    between atoms: O_23  and  C_24
REMARK                            x       y       z     vdW  Elec       q    Type
REMARK                         _______ _______ _______ _____ _____    ______ ____
ROOT
ATOM      1  N   UNL     1       1.235  -2.081  -0.022  0.00  0.00    -0.278 N 
ATOM      2  C   UNL     1       0.084  -2.774   0.087  0.00  0.00    +0.256 C 
ATOM      3  O   UNL     1      -0.981  -2.185   0.101  0.00  0.00    -0.269 OA
ATOM      4  H   UNL     1       2.078  -2.553  -0.114  0.00  0.00    +0.155 HD
ENDROOT
BRANCH   2   5
ATOM      5  C   UNL     1       0.115  -4.238   0.188  0.00  0.00    +0.094 A 
ATOM      6  C   UNL     1      -0.931  -5.103   0.298  0.00  0.00    +0.068 A 
ATOM      7  C   UNL     1      -0.689  -6.487   0.384  0.00  0.00    +0.010 A 
ATOM      8  C   UNL     1      -1.635  -7.537   0.503  0.00  0.00    +0.010 A 
ATOM      9  C   UNL     1      -1.231  -8.831   0.575  0.00  0.00    +0.003 A 
ATOM     10  C   UNL     1       0.115  -9.178   0.536  0.00  0.00    +0.034 A 
ATOM     11  C   UNL     1       1.068  -8.187   0.420  0.00  0.00    +0.140 A 
ATOM     12  C   UNL     1       0.673  -6.868   0.346  0.00  0.00    +0.052 A 
ATOM     13  S   UNL     1       1.531  -5.322   0.190  0.00  0.00    -0.080 S 
ATOM     14 CL   UNL     1      -2.558  -4.500   0.334  0.00  0.00    -0.082 Cl
BRANCH  11  15
ATOM     15  N   UNL     1       2.506  -8.537   0.377  0.00  0.00    +0.058 N 
ATOM     16  O   UNL     1       2.848  -9.695   0.444  0.00  0.00    -0.126 OA
ATOM     17  O   UNL     1       3.338  -7.666   0.276  0.00  0.00    -0.126 OA
ENDBRANCH  11  15
ENDBRANCH   2   5
BRANCH   1  22
ATOM     18  C   UNL     1       0.153   1.372   0.637  0.00  0.00    +0.002 A 
ATOM     19  C   UNL     1       1.172   2.088   0.036  0.00  0.00    +0.004 A 
ATOM     20  C   UNL     1       2.215   1.426  -0.585  0.00  0.00    +0.048 A 
ATOM     21  C   UNL     1       2.240   0.041  -0.607  0.00  0.00    +0.148 A 
ATOM     22  C   UNL     1       1.214  -0.681  -0.002  0.00  0.00    +0.076 A 
ATOM     23  C   UNL     1       0.172  -0.009   0.619  0.00  0.00    +0.027 A 
BRANCH  21  24
ATOM     24  O   UNL     1       3.265  -0.612  -1.219  0.00  0.00    -0.432 OA
BRANCH  24  25
ATOM     25  C   UNL     1       4.282   0.194  -1.818  0.00  0.00    +0.541 C 
ATOM     26  F   UNL     1       3.712   1.006  -2.804  0.00  0.00    -0.166 F 
ATOM     27  F   UNL     1       4.878   0.997  -0.840  0.00  0.00    -0.166 F 
ENDBRANCH  24  25
ENDBRANCH  21  24
ENDBRANCH   1  22
TORSDOF 5
