REMARK  Name = ZINC09685628
REMARK  9 active torsions:
REMARK  status: ('A' for Active; 'I' for Inactive)
REMARK    1  A    between atoms: C_1  and  C_2
REMARK    2  A    between atoms: C_7  and  S_8
REMARK    3  A    between atoms: S_8  and  N_11
REMARK    4  A    between atoms: N_11  and  C_12
REMARK    5  A    between atoms: C_12  and  C_13
REMARK    6  A    between atoms: C_16  and  C_18
REMARK    7  A    between atoms: C_18  and  N_19
REMARK    8  A    between atoms: C_33  and  C_35
REMARK    9  A    between atoms: C_33  and  C_36
REMARK                            x       y       z     vdW  Elec       q    Type
REMARK                         _______ _______ _______ _____ _____    ______ ____
ROOT
ATOM      1  S   UNL     1      -0.064  -0.039   2.733  0.00  0.00    +0.059 S 
ATOM      2  O   UNL     1      -1.269   0.712   2.784  0.00  0.00    -0.153 OA
ATOM      3  O   UNL     1       0.203  -1.111   3.627  0.00  0.00    -0.153 OA
ENDROOT
BRANCH   1  10
ATOM      4  C   UNL     1       2.240  -1.726   1.754  0.00  0.00    +0.046 C 
ATOM      5  C   UNL     1       1.149  -1.467   0.748  0.00  0.00    -0.023 A 
ATOM      6  C   UNL     1       1.246  -1.996  -0.521  0.00  0.00    +0.016 A 
ATOM      7  C   UNL     1       0.237  -1.757  -1.450  0.00  0.00    +0.011 A 
ATOM      8  C   UNL     1      -0.877  -0.976  -1.091  0.00  0.00    +0.049 A 
ATOM      9  C   UNL     1      -0.955  -0.451   0.194  0.00  0.00    +0.055 A 
ATOM     10  C   UNL     1       0.048  -0.702   1.105  0.00  0.00    +0.110 A 
ATOM     11  N   UNL     1      -1.714  -0.900  -2.189  0.00  0.00    -0.357 N 
ATOM     12  H   UNL     1      -2.555  -0.417  -2.210  0.00  0.00    +0.166 HD
ATOM     13  C   UNL     1      -1.203  -1.585  -3.221  0.00  0.00    +0.028 A 
ATOM     14  C   UNL     1       0.010  -2.143  -2.845  0.00  0.00    +0.046 A 
ATOM     15  C   UNL     1       0.797  -2.924  -3.725  0.00  0.00    +0.166 C 
ATOM     16  O   UNL     1       1.837  -3.431  -3.356  0.00  0.00    -0.292 OA
ATOM     17  C   UNL     1       0.295  -3.105  -5.141  0.00  0.00    +0.086 C 
ATOM     18  C   UNL     1      -1.233  -3.105  -5.160  0.00  0.00    -0.023 C 
ATOM     19  C   UNL     1      -1.778  -1.783  -4.604  0.00  0.00    +0.060 C 
ATOM     20  C   UNL     1      -1.721  -3.287  -6.598  0.00  0.00    +0.011 C 
ATOM     21  C   UNL     1      -1.748  -4.263  -4.302  0.00  0.00    +0.011 C 
ENDBRANCH   1  10
BRANCH   1  22
ATOM     22  N   UNL     1       1.177   1.043   2.908  0.00  0.00    -0.183 NA
ATOM     23  H   UNL     1       1.877   0.877   3.559  0.00  0.00    +0.148 HD
BRANCH  22  24
ATOM     24  C   UNL     1       1.217   2.251   2.081  0.00  0.00    +0.180 C 
BRANCH  24  25
ATOM     25  C   UNL     1       2.193   3.235   2.675  0.00  0.00    +0.121 A 
ATOM     26  C   UNL     1       3.503   3.316   2.384  0.00  0.00    +0.046 A 
ATOM     27  C   UNL     1       4.032   4.370   3.164  0.00  0.00    +0.043 A 
ATOM     28  C   UNL     1       3.012   4.870   3.885  0.00  0.00    +0.089 A 
ATOM     29  O   UNL     1       1.899   4.182   3.580  0.00  0.00    -0.465 OA
BRANCH  28  30
ATOM     30  C   UNL     1       3.102   6.012   4.864  0.00  0.00    -0.003 C 
BRANCH  30  31
ATOM     31  N   UNL     1       2.850   7.279   4.164  0.00  0.00    +0.384 N 
ATOM     32  C   UNL     1       3.882   7.458   3.124  0.00  0.00    -0.078 C 
ATOM     33  C   UNL     1       3.324   8.363   2.054  0.00  0.00    -0.019 C 
ATOM     34  C   UNL     1       3.748   9.827   2.277  0.00  0.00    -0.002 C 
ATOM     35  C   UNL     1       3.690  10.219   3.767  0.00  0.00    -0.002 C 
ATOM     36  C   UNL     1       2.469   9.669   4.459  0.00  0.00    -0.019 C 
ATOM     37  C   UNL     1       2.824   8.312   5.102  0.00  0.00    -0.078 C 
ATOM     38  H   UNL     1       1.948   7.226   3.715  0.00  0.00    -0.081 HD
ENDBRANCH  30  31
ENDBRANCH  28  30
ENDBRANCH  24  25
ENDBRANCH  22  24
ENDBRANCH   1  22
TORSDOF 6
