REMARK  Name = ZINC06232514
REMARK  8 active torsions:
REMARK  status: ('A' for Active; 'I' for Inactive)
REMARK    1  A    between atoms: C_1  and  C_2
REMARK    2  A    between atoms: C_2  and  C_12
REMARK    3  A    between atoms: C_4  and  O_11
REMARK    4  A    between atoms: C_7  and  C_9
REMARK    5  A    between atoms: C_7  and  C_10
REMARK    6  A    between atoms: C_12  and  N_13
REMARK    7  A    between atoms: N_13  and  C_14
REMARK    8  A    between atoms: N_22  and  C_25
REMARK                            x       y       z     vdW  Elec       q    Type
REMARK                         _______ _______ _______ _____ _____    ______ ____
ROOT
ATOM      1  C   UNL     1      -3.516  -0.288  -1.235  0.00  0.00    +0.085 C 
ATOM      2  C   UNL     1      -4.246   0.302  -2.249  0.00  0.00    +0.113 C 
ATOM      3  C   UNL     1      -3.603   1.157  -3.263  0.00  0.00    +0.258 C 
ATOM      4  O   UNL     1      -2.405   1.367  -3.234  0.00  0.00    -0.270 OA
ATOM      5  N   UNL     1      -4.379   1.700  -4.224  0.00  0.00    -0.235 N 
ATOM      6  C   UNL     1      -5.700   1.476  -4.268  0.00  0.00    +0.320 C 
ATOM      7  O   UNL     1      -6.342   1.995  -5.159  0.00  0.00    -0.251 OA
ATOM      8  N   UNL     1      -6.350   0.711  -3.380  0.00  0.00    -0.190 N 
ATOM      9  C   UNL     1      -5.701   0.099  -2.368  0.00  0.00    +0.265 C 
ATOM     10  O   UNL     1      -6.301  -0.598  -1.571  0.00  0.00    -0.269 OA
ATOM     11  H   UNL     1      -3.971   2.265  -4.899  0.00  0.00    +0.159 HD
ENDROOT
BRANCH   8  12
ATOM     12  C   UNL     1      -7.734   0.537  -3.510  0.00  0.00    +0.046 A 
ATOM     13  C   UNL     1      -8.594   1.054  -2.550  0.00  0.00    +0.025 A 
ATOM     14  C   UNL     1      -9.958   0.882  -2.681  0.00  0.00    +0.017 A 
ATOM     15  C   UNL     1     -10.468   0.194  -3.767  0.00  0.00    +0.018 A 
ATOM     16  C   UNL     1      -9.614  -0.324  -4.725  0.00  0.00    +0.017 A 
ATOM     17  C   UNL     1      -8.250  -0.148  -4.602  0.00  0.00    +0.025 A 
ATOM     18 BR   UNL     1     -12.336  -0.041  -3.943  0.00  0.00    -0.050 Br
ENDBRANCH   8  12
BRANCH   1  19
ATOM     19  N   UNL     1      -2.214   0.021  -1.073  0.00  0.00    -0.348 N 
ATOM     20  H   UNL     1      -1.770   0.601  -1.712  0.00  0.00    +0.146 HD
BRANCH  19  21
ATOM     21  C   UNL     1      -1.468  -0.518   0.067  0.00  0.00    +0.107 C 
BRANCH  21  23
ATOM     22  C   UNL     1      -0.063   1.518   0.077  0.00  0.00    +0.013 C 
ATOM     23  C   UNL     1      -0.007  -0.011   0.014  0.00  0.00    -0.014 C 
ATOM     24  C   UNL     1       0.585  -0.471  -1.311  0.00  0.00    +0.039 C 
ATOM     25  C   UNL     1       2.094  -0.285  -1.369  0.00  0.00    +0.116 C 
ATOM     26  C   UNL     1       2.770  -1.007  -0.213  0.00  0.00    +0.037 C 
ATOM     27  C   UNL     1       2.235  -0.571   1.142  0.00  0.00    -0.032 C 
ATOM     28  C   UNL     1       0.721  -0.584   1.215  0.00  0.00    +0.014 C 
ATOM     29  C   UNL     1       2.762  -1.578   2.192  0.00  0.00    +0.011 C 
ATOM     30  C   UNL     1       2.795   0.803   1.523  0.00  0.00    +0.011 C 
BRANCH  25  31
ATOM     31  O   UNL     1       2.452   1.092  -1.407  0.00  0.00    -0.392 OA
ATOM     32  H   UNL     1       3.405   1.250  -1.445  0.00  0.00    +0.210 HD
ENDBRANCH  25  31
ENDBRANCH  21  23
ENDBRANCH  19  21
ENDBRANCH   1  19
TORSDOF 5
