REMARK  Name = ZINC61374370
REMARK  6 active torsions:
REMARK  status: ('A' for Active; 'I' for Inactive)
REMARK    1  A    between atoms: C_1  and  C_2
REMARK    2  A    between atoms: C_2  and  C_4
REMARK    3  A    between atoms: C_2  and  N_9
REMARK    4  A    between atoms: C_10  and  C_12
REMARK    5  A    between atoms: C_17  and  N_18
REMARK    6  A    between atoms: N_18  and  N_19
REMARK                            x       y       z     vdW  Elec       q    Type
REMARK                         _______ _______ _______ _____ _____    ______ ____
ROOT
ATOM      1  C   UNL     1       0.695  -1.093  -3.569  0.00  0.00    +0.079 A 
ATOM      2  C   UNL     1       2.077  -1.312  -3.563  0.00  0.00    +0.033 A 
ATOM      3  C   UNL     1       2.679  -1.749  -4.730  0.00  0.00    +0.037 A 
ATOM      4  C   UNL     1       1.905  -1.956  -5.859  0.00  0.00    +0.128 A 
ATOM      5  N   UNL     1       0.604  -1.744  -5.844  0.00  0.00    -0.237 NA
ATOM      6  C   UNL     1      -0.023  -1.331  -4.753  0.00  0.00    +0.144 A 
ATOM      7 BR   UNL     1       4.543  -2.061  -4.782  0.00  0.00    -0.049 Br
ENDROOT
BRANCH   1   9
ATOM      8  N   UNL     1       0.679  -0.523  -1.191  0.00  0.00    -0.305 N 
ATOM      9  C   UNL     1       0.003  -0.628  -2.353  0.00  0.00    +0.248 C 
ATOM     10  O   UNL     1      -1.177  -0.338  -2.397  0.00  0.00    -0.270 OA
ATOM     11  H   UNL     1       1.620  -0.754  -1.155  0.00  0.00    +0.150 HD
BRANCH   8  13
ATOM     12  C   UNL     1      -0.009   1.469   0.049  0.00  0.00    +0.033 C 
ATOM     13  C   UNL     1      -0.008  -0.061   0.017  0.00  0.00    +0.101 C 
BRANCH  13  14
ATOM     14  C   UNL     1       0.706  -0.588   1.234  0.00  0.00    -0.020 A 
ATOM     15  C   UNL     1      -0.010  -1.046   2.325  0.00  0.00    +0.013 A 
ATOM     16  C   UNL     1       0.664  -1.514   3.404  0.00  0.00    +0.045 A 
ATOM     17  S   UNL     1       2.363  -1.315   2.894  0.00  0.00    -0.105 S 
ATOM     18  C   UNL     1       2.061  -0.627   1.274  0.00  0.00    +0.050 A 
ENDBRANCH  13  14
ENDBRANCH   8  13
ENDBRANCH   1   9
BRANCH   6  19
ATOM     19  N   UNL     1      -1.390  -1.127  -4.781  0.00  0.00    -0.267 N 
ATOM     20  H   UNL     1      -1.840  -0.745  -4.011  0.00  0.00    +0.167 HD
BRANCH  19  21
ATOM     21  N   UNL     1      -2.108  -1.462  -5.894  0.00  0.00    -0.255 NA
ATOM     22  H   UNL     1      -3.088  -1.257  -5.768  0.00  0.00    +0.140 HD
ATOM     23  H   UNL     1      -1.744  -0.998  -6.713  0.00  0.00    +0.140 HD
ENDBRANCH  19  21
ENDBRANCH   6  19
TORSDOF 5
