REMARK  Name = ZINC61955719
REMARK  6 active torsions:
REMARK  status: ('A' for Active; 'I' for Inactive)
REMARK    1  A    between atoms: C_3  and  C_12
REMARK    2  A    between atoms: C_6  and  C_7
REMARK    3  A    between atoms: C_7  and  N_8
REMARK    4  A    between atoms: N_14  and  C_15
REMARK    5  A    between atoms: C_15  and  C_16
REMARK    6  A    between atoms: C_16  and  C_17
REMARK                            x       y       z     vdW  Elec       q    Type
REMARK                         _______ _______ _______ _____ _____    ______ ____
ROOT
ATOM      1  C   UNL     1      -0.017   1.379   0.010  0.00  0.00    +0.006 A 
ATOM      2  C   UNL     1       1.167   2.088   0.002  0.00  0.00    +0.013 A 
ATOM      3  C   UNL     1       2.385   1.407  -0.013  0.00  0.00    +0.037 A 
ATOM      4  C   UNL     1       2.397   0.011  -0.021  0.00  0.00    +0.013 A 
ATOM      5  C   UNL     1       1.206  -0.686  -0.013  0.00  0.00    +0.006 A 
ATOM      6  C   UNL     1       0.002  -0.004   0.002  0.00  0.00    -0.030 A 
ENDROOT
BRANCH   3   7
ATOM      7  C   UNL     1       3.657   2.160  -0.022  0.00  0.00    +0.244 C 
ATOM      8  O   UNL     1       3.643   3.376  -0.015  0.00  0.00    -0.270 OA
ATOM      9  N   UNL     1       4.831   1.499  -0.037  0.00  0.00    -0.311 N 
ATOM     10  H   UNL     1       4.842   0.529  -0.042  0.00  0.00    +0.149 HD
BRANCH   9  11
ATOM     11  C   UNL     1       6.092   2.246  -0.045  0.00  0.00    +0.105 C 
BRANCH  11  12
ATOM     12  C   UNL     1       7.266   1.265  -0.061  0.00  0.00    +0.022 C 
BRANCH  12  13
ATOM     13  C   UNL     1       8.582   2.044  -0.070  0.00  0.00    -0.006 C 
ATOM     14  C   UNL     1       8.804   2.743   1.291  0.00  0.00    +0.007 C 
ATOM     15  C   UNL     1      10.125   2.124   1.841  0.00  0.00    -0.010 C 
ATOM     16  C   UNL     1      11.241   2.700   0.916  0.00  0.00    +0.004 C 
ATOM     17  C   UNL     1      11.019   2.001  -0.445  0.00  0.00    +0.004 C 
ATOM     18  C   UNL     1       9.790   1.069  -0.214  0.00  0.00    -0.008 C 
ATOM     19  C   UNL     1      10.014   0.661   1.284  0.00  0.00    +0.007 C 
ENDBRANCH  12  13
ENDBRANCH  11  12
ENDBRANCH   9  11
ENDBRANCH   3   7
BRANCH   6  20
ATOM     20  C   UNL     1      -1.295  -0.772   0.010  0.00  0.00    +0.141 C 
BRANCH  20  21
ATOM     21  N   UNL     1      -1.728  -1.013  -1.368  0.00  0.00    -0.295 N 
ATOM     22  C   UNL     1      -2.870  -1.687  -1.607  0.00  0.00    +0.297 C 
ATOM     23  O   UNL     1      -3.542  -2.095  -0.679  0.00  0.00    -0.253 OA
ATOM     24  N   UNL     1      -3.269  -1.909  -2.875  0.00  0.00    -0.313 N 
ATOM     25  H   UNL     1      -1.193  -0.688  -2.109  0.00  0.00    +0.151 HD
ATOM     26  H   UNL     1      -2.734  -1.584  -3.616  0.00  0.00    +0.146 HD
ATOM     27  H   UNL     1      -4.091  -2.394  -3.047  0.00  0.00    +0.146 HD
ENDBRANCH  20  21
ENDBRANCH   6  20
TORSDOF 6
