REMARK  Name = ZINC09948728
REMARK  7 active torsions:
REMARK  status: ('A' for Active; 'I' for Inactive)
REMARK    1  A    between atoms: C_1  and  C_2
REMARK    2  A    between atoms: C_2  and  S_3
REMARK    3  A    between atoms: S_3  and  N_6
REMARK    4  A    between atoms: N_11  and  C_12
REMARK    5  A    between atoms: C_12  and  C_13
REMARK    6  A    between atoms: N_23  and  C_24
REMARK    7  A    between atoms: C_24  and  C_25
REMARK                            x       y       z     vdW  Elec       q    Type
REMARK                         _______ _______ _______ _____ _____    ______ ____
ROOT
ATOM      1  N   UNL     1      -2.101   9.201  -2.525  0.00  0.00    -0.097 N 
ATOM      2  C   UNL     1      -2.322   9.390  -1.208  0.00  0.00    +0.238 A 
ATOM      3  N   UNL     1      -2.402   8.207  -0.635  0.00  0.00    -0.179 NA
ATOM      4  C   UNL     1      -2.237   7.250  -1.555  0.00  0.00    +0.238 A 
ATOM      5  N   UNL     1      -2.045   7.812  -2.724  0.00  0.00    -0.111 NA
ATOM      6  N   UNL     1      -2.261   5.877  -1.309  0.00  0.00    -0.308 N 
ATOM      7  N   UNL     1      -2.443  10.611  -0.571  0.00  0.00    -0.308 N 
ATOM      8  H   UNL     1      -2.131   5.251  -2.039  0.00  0.00    +0.149 HD
ATOM      9  H   UNL     1      -2.369  11.434  -1.080  0.00  0.00    +0.149 HD
ENDROOT
BRANCH   1  10
ATOM     10  S   UNL     1      -1.923  10.375  -3.679  0.00  0.00    +0.072 S 
ATOM     11  O   UNL     1      -2.325   9.755  -4.893  0.00  0.00    -0.151 OA
ATOM     12  O   UNL     1      -2.633  11.496  -3.168  0.00  0.00    -0.151 OA
BRANCH  10  14
ATOM     13  C   UNL     1       0.140  11.810  -4.759  0.00  0.00    +0.030 C 
ATOM     14  C   UNL     1      -0.144  10.727  -3.717  0.00  0.00    +0.190 C 
ENDBRANCH  10  14
ENDBRANCH   1  10
BRANCH   6  15
ATOM     15  C   UNL     1      -2.480   5.380   0.051  0.00  0.00    +0.140 C 
BRANCH  15  16
ATOM     16  C   UNL     1      -2.460   3.873   0.045  0.00  0.00    -0.023 A 
ATOM     17  C   UNL     1      -3.627   3.173   0.053  0.00  0.00    +0.006 A 
ATOM     18  C   UNL     1      -3.628   1.779   0.047  0.00  0.00    +0.001 A 
ATOM     19  C   UNL     1      -2.462   1.078   0.032  0.00  0.00    +0.008 A 
ATOM     20  C   UNL     1      -1.237   1.766   0.018  0.00  0.00    -0.018 A 
ATOM     21  C   UNL     1      -1.236   3.183   0.030  0.00  0.00    -0.013 A 
ATOM     22  C   UNL     1      -0.011   3.871   0.021  0.00  0.00    +0.009 A 
ATOM     23  C   UNL     1       1.155   3.170   0.007  0.00  0.00    +0.001 A 
ATOM     24  C   UNL     1       1.155   1.776   0.001  0.00  0.00    +0.001 A 
ATOM     25  C   UNL     1      -0.013   1.076   0.008  0.00  0.00    +0.008 A 
ENDBRANCH  15  16
ENDBRANCH   6  15
BRANCH   7  26
ATOM     26  C   UNL     1      -2.683  10.664   0.874  0.00  0.00    +0.140 C 
BRANCH  26  27
ATOM     27  C   UNL     1      -2.775  12.101   1.316  0.00  0.00    -0.023 A 
ATOM     28  C   UNL     1      -1.707  12.706   1.904  0.00  0.00    +0.006 A 
ATOM     29  C   UNL     1      -1.771  14.036   2.313  0.00  0.00    +0.001 A 
ATOM     30  C   UNL     1      -2.908  14.766   2.148  0.00  0.00    +0.008 A 
ATOM     31  C   UNL     1      -4.033  14.175   1.551  0.00  0.00    -0.018 A 
ATOM     32  C   UNL     1      -3.966  12.823   1.129  0.00  0.00    -0.013 A 
ATOM     33  C   UNL     1      -5.092  12.231   0.531  0.00  0.00    +0.009 A 
ATOM     34  C   UNL     1      -6.229  12.961   0.367  0.00  0.00    +0.001 A 
ATOM     35  C   UNL     1      -6.295  14.290   0.783  0.00  0.00    +0.001 A 
ATOM     36  C   UNL     1      -5.225  14.896   1.365  0.00  0.00    +0.008 A 
ENDBRANCH  26  27
ENDBRANCH   7  26
TORSDOF 6
