REMARK  Name = ZINC63315907
REMARK  10 active torsions:
REMARK  status: ('A' for Active; 'I' for Inactive)
REMARK    1  A    between atoms: C_1  and  O_2
REMARK    2  A    between atoms: O_2  and  C_3
REMARK    3  A    between atoms: C_5  and  N_13
REMARK    4  A    between atoms: C_7  and  O_11
REMARK    5  A    between atoms: C_8  and  O_9
REMARK    6  A    between atoms: O_9  and  C_10
REMARK    7  A    between atoms: O_11  and  C_12
REMARK    8  A    between atoms: C_14  and  C_16
REMARK    9  A    between atoms: C_16  and  C_17
REMARK   10  A    between atoms: C_17  and  N_18
REMARK                            x       y       z     vdW  Elec       q    Type
REMARK                         _______ _______ _______ _____ _____    ______ ____
ROOT
ATOM      1  N   UNL     1       5.146   0.472  -8.195  0.00  0.00    -0.299 N 
ATOM      2  C   UNL     1       5.831  -0.120  -9.193  0.00  0.00    +0.302 C 
ATOM      3  O   UNL     1       5.801  -1.330  -9.316  0.00  0.00    -0.253 OA
ATOM      4  N   UNL     1       6.549   0.627 -10.055  0.00  0.00    -0.283 N 
ATOM      5  C   UNL     1       6.494   2.090  -9.966  0.00  0.00    +0.114 C 
ATOM      6  C   UNL     1       7.916   2.643  -9.755  0.00  0.00    +0.052 C 
ATOM      7  C   UNL     1       8.810   1.924 -10.734  0.00  0.00    -0.035 C 
ATOM      8  C   UNL     1       9.675   2.380 -11.631  0.00  0.00    +0.001 A 
ATOM      9  C   UNL     1      10.158   3.739 -11.924  0.00  0.00    +0.030 A 
ATOM     10  C   UNL     1      11.049   3.852 -12.946  0.00  0.00    +0.042 A 
ATOM     11  C   UNL     1      11.501   2.760 -13.697  0.00  0.00    +0.022 A 
ATOM     12  C   UNL     1      11.116   1.476 -13.491  0.00  0.00    +0.027 A 
ATOM     13  C   UNL     1      10.188   1.230 -12.437  0.00  0.00    +0.043 A 
ATOM     14  N   UNL     1       9.675   0.113 -12.012  0.00  0.00    -0.376 N 
ATOM     15  C   UNL     1       8.830   0.404 -10.854  0.00  0.00    +0.124 C 
ATOM     16  C   UNL     1       7.383  -0.033 -11.072  0.00  0.00    +0.138 C 
ATOM     17 CL   UNL     1      11.655   5.430 -13.339  0.00  0.00    -0.084 Cl
ATOM     18  H   UNL     1       5.110   1.440  -8.140  0.00  0.00    +0.150 HD
ATOM     19  H   UNL     1       9.828  -0.764 -12.397  0.00  0.00    +0.160 HD
ENDROOT
BRANCH   1  20
ATOM     20  C   UNL     1       4.457  -0.345  -7.193  0.00  0.00    +0.115 C 
BRANCH  20  21
ATOM     21  C   UNL     1       3.763   0.568  -6.180  0.00  0.00    +0.115 C 
BRANCH  21  23
ATOM     22  N   UNL     1       2.370   0.321  -4.152  0.00  0.00    -0.285 N 
ATOM     23  C   UNL     1       3.055  -0.272  -5.150  0.00  0.00    +0.219 C 
ATOM     24  O   UNL     1       3.100  -1.482  -5.218  0.00  0.00    -0.275 OA
ATOM     25  H   UNL     1       2.271   1.286  -4.138  0.00  0.00    +0.155 HD
BRANCH  22  28
ATOM     26  C   UNL     1       1.869  -2.392  -1.711  0.00  0.00    +0.167 A 
ATOM     27  C   UNL     1       2.430  -1.622  -2.718  0.00  0.00    +0.073 A 
ATOM     28  C   UNL     1       1.802  -0.456  -3.134  0.00  0.00    +0.041 A 
ATOM     29  C   UNL     1       0.611  -0.060  -2.542  0.00  0.00    +0.073 A 
ATOM     30  C   UNL     1       0.048  -0.828  -1.534  0.00  0.00    +0.167 A 
ATOM     31  C   UNL     1       0.674  -1.998  -1.121  0.00  0.00    +0.204 A 
BRANCH  26  33
ATOM     32  C   UNL     1       3.710  -3.877  -1.955  0.00  0.00    +0.277 C 
ATOM     33  O   UNL     1       2.485  -3.534  -1.305  0.00  0.00    -0.491 OA
ENDBRANCH  26  33
BRANCH  31  34
ATOM     34  O   UNL     1       0.119  -2.756  -0.136  0.00  0.00    -0.488 OA
ATOM     35  C   UNL     1       0.503  -2.456   1.208  0.00  0.00    +0.277 C 
ENDBRANCH  31  34
BRANCH  30  36
ATOM     36  O   UNL     1      -1.119  -0.439  -0.954  0.00  0.00    -0.491 OA
ATOM     37  C   UNL     1      -1.709   0.772  -1.431  0.00  0.00    +0.277 C 
ENDBRANCH  30  36
ENDBRANCH  22  28
ENDBRANCH  21  23
ENDBRANCH  20  21
ENDBRANCH   1  20
TORSDOF 7
