REMARK  Name = ZINC43262587
REMARK  8 active torsions:
REMARK  status: ('A' for Active; 'I' for Inactive)
REMARK    1  A    between atoms: C_1  and  C_2
REMARK    2  A    between atoms: C_2  and  C_3
REMARK    3  A    between atoms: C_3  and  C_5
REMARK    4  A    between atoms: C_3  and  N_23
REMARK    5  A    between atoms: C_5  and  C_7
REMARK    6  A    between atoms: C_5  and  N_13
REMARK    7  A    between atoms: C_16  and  C_19
REMARK    8  A    between atoms: C_19  and  C_20
REMARK                            x       y       z     vdW  Elec       q    Type
REMARK                         _______ _______ _______ _____ _____    ______ ____
ROOT
ATOM      1  C   UNL     1       0.980  -2.022   1.235  0.00  0.00    +0.079 C 
ENDROOT
BRANCH   1   2
ATOM      2  C   UNL     1       1.623  -2.500   2.511  0.00  0.00    +0.006 A 
ATOM      3  C   UNL     1       1.044  -3.069   3.597  0.00  0.00    +0.014 A 
ATOM      4  C   UNL     1       1.840  -3.433   4.667  0.00  0.00    +0.023 A 
ATOM      5  C   UNL     1       3.176  -3.209   4.599  0.00  0.00    +0.055 A 
ATOM      6  S   UNL     1       3.345  -2.471   2.982  0.00  0.00    -0.085 S 
ATOM      7 BR   UNL     1       4.514  -3.588   5.880  0.00  0.00    -0.043 Br
ENDBRANCH   1   2
BRANCH   1   8
ATOM      8  N   UNL     1       1.833  -2.378   0.093  0.00  0.00    -0.296 NA
ATOM      9  C   UNL     1       1.311  -1.806  -1.154  0.00  0.00    +0.085 C 
ATOM     10  C   UNL     1       2.298  -2.072  -2.292  0.00  0.00    +0.019 C 
ATOM     11  C   UNL     1       2.495  -3.583  -2.446  0.00  0.00    +0.000 C 
ATOM     12  C   UNL     1       2.994  -4.163  -1.119  0.00  0.00    +0.019 C 
ATOM     13  C   UNL     1       1.986  -3.835  -0.015  0.00  0.00    +0.085 C 
BRANCH  11  14
ATOM     14  C   UNL     1       3.527  -3.855  -3.543  0.00  0.00    +0.099 C 
BRANCH  14  15
ATOM     15  C   UNL     1       3.631  -5.340  -3.779  0.00  0.00    +0.211 C 
ATOM     16  O   UNL     1       2.946  -6.105  -3.133  0.00  0.00    -0.276 OA
ATOM     17  N   UNL     1       4.484  -5.817  -4.707  0.00  0.00    -0.329 N 
ATOM     18  H   UNL     1       5.031  -5.204  -5.223  0.00  0.00    +0.145 HD
ATOM     19  H   UNL     1       4.550  -6.772  -4.858  0.00  0.00    +0.145 HD
ENDBRANCH  14  15
ENDBRANCH  11  14
ENDBRANCH   1   8
BRANCH   1  20
ATOM     20  C   UNL     1       0.807  -0.503   1.288  0.00  0.00    -0.053 C 
BRANCH  20  21
ATOM     21  N   UNL     1       2.123   0.134   1.437  0.00  0.00    +0.381 N 
ATOM     22  H   UNL     1       2.557  -0.185   2.290  0.00  0.00    -0.090 HD
ATOM     23  H   UNL     1       2.706  -0.111   0.651  0.00  0.00    -0.090 HD
ATOM     24  H   UNL     1       2.009   1.136   1.472  0.00  0.00    -0.090 HD
ENDBRANCH  20  21
BRANCH  20  26
ATOM     25  C   UNL     1      -0.377   1.368   2.445  0.00  0.00    +0.002 C 
ATOM     26  C   UNL     1      -0.077  -0.132   2.480  0.00  0.00    -0.018 C 
ENDBRANCH  20  26
ENDBRANCH   1  20
TORSDOF 7
