REMARK  Name = ZINC09011050
REMARK  9 active torsions:
REMARK  status: ('A' for Active; 'I' for Inactive)
REMARK    1  A    between atoms: C_4  and  C_7
REMARK    2  A    between atoms: C_7  and  O_8
REMARK    3  A    between atoms: O_8  and  C_9
REMARK    4  A    between atoms: C_12  and  N_15
REMARK    5  A    between atoms: C_16  and  C_18
REMARK    6  A    between atoms: C_18  and  S_19
REMARK    7  A    between atoms: S_19  and  C_20
REMARK    8  A    between atoms: N_30  and  C_31
REMARK    9  A    between atoms: C_31  and  C_32
REMARK                            x       y       z     vdW  Elec       q    Type
REMARK                         _______ _______ _______ _____ _____    ______ ____
ROOT
ATOM      1  C   UNL     1      -3.800  -1.496   0.039  0.00  0.00    +0.173 C 
ENDROOT
BRANCH   1   3
ATOM      2  N   UNL     1      -6.248  -1.137   0.059  0.00  0.00    -0.285 N 
ATOM      3  C   UNL     1      -5.218  -2.006   0.043  0.00  0.00    +0.227 C 
ATOM      4  O   UNL     1      -5.433  -3.200   0.030  0.00  0.00    -0.275 OA
ATOM      5  H   UNL     1      -6.077  -0.185   0.137  0.00  0.00    +0.155 HD
BRANCH   2   9
ATOM      6  C   UNL     1     -10.165  -2.536  -0.223  0.00  0.00    +0.121 A 
ATOM      7  C   UNL     1      -9.212  -3.277   0.460  0.00  0.00    +0.047 A 
ATOM      8  C   UNL     1      -7.914  -2.814   0.553  0.00  0.00    +0.027 A 
ATOM      9  C   UNL     1      -7.564  -1.607  -0.036  0.00  0.00    +0.034 A 
ATOM     10  C   UNL     1      -8.520  -0.863  -0.714  0.00  0.00    +0.027 A 
ATOM     11  C   UNL     1      -9.816  -1.330  -0.812  0.00  0.00    +0.047 A 
BRANCH   6  12
ATOM     12  O   UNL     1     -11.443  -2.992  -0.315  0.00  0.00    -0.487 OA
BRANCH  12  13
ATOM     13  C   UNL     1     -12.373  -2.178  -1.032  0.00  0.00    +0.264 C 
BRANCH  13  17
ATOM     14  C   UNL     1     -16.211  -4.053  -1.023  0.00  0.00    +0.000 A 
ATOM     15  C   UNL     1     -15.868  -3.175  -0.012  0.00  0.00    +0.000 A 
ATOM     16  C   UNL     1     -14.626  -2.568  -0.015  0.00  0.00    +0.007 A 
ATOM     17  C   UNL     1     -13.727  -2.840  -1.029  0.00  0.00    -0.010 A 
ATOM     18  C   UNL     1     -14.072  -3.713  -2.043  0.00  0.00    +0.007 A 
ATOM     19  C   UNL     1     -15.312  -4.324  -2.037  0.00  0.00    +0.000 A 
ENDBRANCH  13  17
ENDBRANCH  12  13
ENDBRANCH   6  12
ENDBRANCH   2   9
ENDBRANCH   1   3
BRANCH   1  20
ATOM     20  S   UNL     1      -2.655  -2.897   0.016  0.00  0.00    -0.078 S 
BRANCH  20  21
ATOM     21  C   UNL     1      -1.118  -2.036   0.016  0.00  0.00    +0.173 A 
ATOM     22  N   UNL     1      -1.136  -0.726   0.031  0.00  0.00    -0.223 NA
ATOM     23  C   UNL     1       0.002  -0.004   0.033  0.00  0.00    +0.079 A 
ATOM     24  C   UNL     1      -0.017   1.394   0.050  0.00  0.00    +0.028 A 
ATOM     25  C   UNL     1       1.161   2.087   0.051  0.00  0.00    +0.002 A 
ATOM     26  C   UNL     1       2.381   1.422   0.036  0.00  0.00    +0.001 A 
ATOM     27  C   UNL     1       2.432   0.056   0.019  0.00  0.00    +0.015 A 
ATOM     28  C   UNL     1       1.246  -0.676   0.018  0.00  0.00    +0.065 A 
ATOM     29  C   UNL     1       1.240  -2.145   0.001  0.00  0.00    +0.263 A 
ATOM     30  O   UNL     1       2.278  -2.780  -0.013  0.00  0.00    -0.267 OA
ATOM     31  N   UNL     1       0.037  -2.765   0.001  0.00  0.00    -0.280 N 
BRANCH  31  32
ATOM     32  C   UNL     1      -0.027  -4.229  -0.016  0.00  0.00    +0.201 C 
BRANCH  32  33
ATOM     33  C   UNL     1      -0.057  -4.714  -1.443  0.00  0.00    +0.125 A 
ATOM     34  C   UNL     1       1.018  -5.009  -2.196  0.00  0.00    +0.046 A 
ATOM     35  C   UNL     1       0.532  -5.424  -3.457  0.00  0.00    +0.041 A 
ATOM     36  C   UNL     1      -0.810  -5.350  -3.402  0.00  0.00    +0.195 A 
ATOM     37  O   UNL     1      -1.161  -4.919  -2.180  0.00  0.00    -0.466 OA
ENDBRANCH  32  33
ENDBRANCH  31  32
ENDBRANCH  20  21
ENDBRANCH   1  20
TORSDOF 9
