REMARK  Name = ZINC08445195
REMARK  4 active torsions:
REMARK  status: ('A' for Active; 'I' for Inactive)
REMARK    1  A    between atoms: C_1  and  C_2
REMARK    2  A    between atoms: C_7  and  C_10
REMARK    3  A    between atoms: C_12  and  C_24
REMARK    4  A    between atoms: C_15  and  C_17
REMARK                            x       y       z     vdW  Elec       q    Type
REMARK                         _______ _______ _______ _____ _____    ______ ____
ROOT
ATOM      1  C   UNL     1       1.174  -3.009  -2.560  0.00  0.00    -0.012 C 
ATOM      2  C   UNL     1       1.958  -2.863  -1.254  0.00  0.00    -0.057 C 
ATOM      3  C   UNL     1       3.003  -1.753  -1.407  0.00  0.00    +0.090 C 
ATOM      4  N   UNL     1       2.300  -0.473  -1.587  0.00  0.00    -0.316 N 
ATOM      5  C   UNL     1       1.240  -0.123  -0.629  0.00  0.00    +0.090 C 
ATOM      6  C   UNL     1       0.279  -1.310  -0.513  0.00  0.00    -0.057 C 
ATOM      7  N   UNL     1       1.036  -2.520  -0.165  0.00  0.00    +0.384 N 
ATOM      8  C   UNL     1      -0.756  -1.024   0.577  0.00  0.00    -0.012 C 
ATOM      9  C   UNL     1       2.627   0.378  -2.628  0.00  0.00    +0.152 A 
ATOM     10  C   UNL     1       3.712   1.271  -2.516  0.00  0.00    +0.133 A 
ATOM     11  N   UNL     1       3.995   2.072  -3.537  0.00  0.00    -0.144 NA
ATOM     12  N   UNL     1       3.288   2.032  -4.612  0.00  0.00    -0.128 NA
ATOM     13  C   UNL     1       2.262   1.199  -4.740  0.00  0.00    +0.184 A 
ATOM     14  N   UNL     1       1.929   0.367  -3.758  0.00  0.00    -0.209 NA
ATOM     15  H   UNL     1       0.395  -3.285  -0.014  0.00  0.00    -0.085 HD
ATOM     16  H   UNL     1       1.562  -2.354   0.680  0.00  0.00    -0.085 HD
ENDROOT
BRANCH  13  17
ATOM     17  C   UNL     1       1.480   1.193  -5.998  0.00  0.00    +0.021 A 
ATOM     18  C   UNL     1       0.396   0.328  -6.145  0.00  0.00    +0.013 A 
ATOM     19  C   UNL     1      -0.329   0.326  -7.319  0.00  0.00    +0.016 A 
ATOM     20  C   UNL     1       0.018   1.182  -8.350  0.00  0.00    +0.018 A 
ATOM     21  C   UNL     1       1.093   2.043  -8.211  0.00  0.00    +0.016 A 
ATOM     22  C   UNL     1       1.821   2.057  -7.039  0.00  0.00    +0.013 A 
ATOM     23 BR   UNL     1      -0.980   1.174  -9.956  0.00  0.00    -0.050 Br
ENDBRANCH  13  17
BRANCH  10  24
ATOM     24  C   UNL     1       4.524   1.315  -1.277  0.00  0.00    +0.006 A 
ATOM     25  C   UNL     1       3.899   1.319  -0.030  0.00  0.00    +0.010 A 
ATOM     26  C   UNL     1       4.661   1.360   1.119  0.00  0.00    +0.001 A 
ATOM     27  C   UNL     1       6.042   1.398   1.037  0.00  0.00    +0.000 A 
ATOM     28  C   UNL     1       6.667   1.395  -0.197  0.00  0.00    +0.001 A 
ATOM     29  C   UNL     1       5.916   1.348  -1.354  0.00  0.00    +0.010 A 
ENDBRANCH  10  24
TORSDOF 2
