REMARK  Name = ZINC07252101
REMARK  5 active torsions:
REMARK  status: ('A' for Active; 'I' for Inactive)
REMARK    1  A    between atoms: C_1  and  C_2
REMARK    2  A    between atoms: C_2  and  C_4
REMARK    3  A    between atoms: C_2  and  S_10
REMARK    4  A    between atoms: S_10  and  C_11
REMARK    5  A    between atoms: C_13  and  C_17
REMARK                            x       y       z     vdW  Elec       q    Type
REMARK                         _______ _______ _______ _____ _____    ______ ____
ROOT
ATOM      1  C   UNL     1      -2.365  -0.093  -1.525  0.00  0.00    +0.185 A 
ATOM      2  N   UNL     1      -1.727   0.603  -2.441  0.00  0.00    -0.201 NA
ATOM      3  C   UNL     1      -2.542   0.833  -3.481  0.00  0.00    +0.183 A 
ATOM      4  N   UNL     1      -3.709   0.282  -3.236  0.00  0.00    -0.152 NA
ATOM      5  H   UNL     1      -4.316  -0.822  -1.517  0.00  0.00    +0.191 HD
ATOM      6  N   UNL     1      -3.617  -0.329  -1.976  0.00  0.00    -0.253 N 
ENDROOT
BRANCH   3   7
ATOM      7  C   UNL     1      -2.183   1.586  -4.708  0.00  0.00    +0.035 A 
ATOM      8  C   UNL     1      -0.904   2.120  -4.852  0.00  0.00    +0.013 A 
ATOM      9  C   UNL     1      -0.575   2.819  -5.995  0.00  0.00    +0.001 A 
ATOM     10  C   UNL     1      -1.513   2.991  -6.998  0.00  0.00    +0.001 A 
ATOM     11  C   UNL     1      -2.784   2.464  -6.861  0.00  0.00    +0.016 A 
ATOM     12  C   UNL     1      -3.122   1.757  -5.724  0.00  0.00    +0.029 A 
ATOM     13 BR   UNL     1      -4.858   1.030  -5.541  0.00  0.00    -0.050 Br
ENDBRANCH   3   7
BRANCH   1  14
ATOM     14  S   UNL     1      -1.700  -0.632   0.015  0.00  0.00    -0.074 S 
BRANCH  14  16
ATOM     15  C   UNL     1      -0.019   1.526   0.010  0.00  0.00    +0.029 C 
ATOM     16  C   UNL     1       0.002  -0.004   0.002  0.00  0.00    +0.137 C 
BRANCH  16  17
ATOM     17  C   UNL     1       0.731  -0.503   1.223  0.00  0.00    +0.233 C 
ATOM     18  O   UNL     1       0.105  -0.891   2.186  0.00  0.00    -0.274 OA
ATOM     19  N   UNL     1       2.079  -0.519   1.244  0.00  0.00    -0.239 N 
ATOM     20  C   UNL     1       2.730  -0.965   2.336  0.00  0.00    +0.303 C 
ATOM     21  O   UNL     1       2.103  -1.354   3.301  0.00  0.00    -0.253 OA
ATOM     22  N   UNL     1       4.078  -0.981   2.357  0.00  0.00    -0.313 N 
ATOM     23  H   UNL     1       2.579  -0.208   0.473  0.00  0.00    +0.159 HD
ATOM     24  H   UNL     1       4.579  -0.670   1.586  0.00  0.00    +0.146 HD
ATOM     25  H   UNL     1       4.547  -1.302   3.143  0.00  0.00    +0.146 HD
ENDBRANCH  16  17
ENDBRANCH  14  16
ENDBRANCH   1  14
TORSDOF 4
