REMARK  Name = ZINC35575681
REMARK  5 active torsions:
REMARK  status: ('A' for Active; 'I' for Inactive)
REMARK    1  A    between atoms: C_1  and  S_2
REMARK    2  A    between atoms: S_2  and  C_5
REMARK    3  A    between atoms: C_7  and  C_23
REMARK    4  A    between atoms: C_9  and  N_22
REMARK    5  A    between atoms: N_10  and  C_14
REMARK                            x       y       z     vdW  Elec       q    Type
REMARK                         _______ _______ _______ _____ _____    ______ ____
ROOT
ATOM      1  C   UNL     1       0.834  -0.908  -1.392  0.00  0.00    +0.272 A 
ATOM      2  N   UNL     1       0.112  -1.104  -2.482  0.00  0.00    -0.211 NA
ATOM      3  C   UNL     1       0.655  -1.142  -3.694  0.00  0.00    +0.089 A 
ATOM      4  C   UNL     1       2.051  -0.966  -3.803  0.00  0.00    +0.086 A 
ATOM      5  C   UNL     1       2.975  -0.939  -4.841  0.00  0.00    +0.131 A 
ATOM      6  N   UNL     1       4.189  -0.727  -4.297  0.00  0.00    -0.216 N 
ATOM      7  N   UNL     1       4.076  -0.615  -2.907  0.00  0.00    -0.144 NA
ATOM      8  C   UNL     1       2.815  -0.751  -2.560  0.00  0.00    +0.189 A 
ATOM      9  N   UNL     1       2.132  -0.731  -1.399  0.00  0.00    -0.190 NA
ENDROOT
BRANCH   6  10
ATOM     10  C   UNL     1       5.388  -0.634  -5.017  0.00  0.00    +0.069 A 
ATOM     11  C   UNL     1       5.577  -1.407  -6.155  0.00  0.00    +0.029 A 
ATOM     12  C   UNL     1       6.759  -1.313  -6.863  0.00  0.00    +0.023 A 
ATOM     13  C   UNL     1       7.755  -0.450  -6.439  0.00  0.00    +0.059 A 
ATOM     14  C   UNL     1       7.569   0.322  -5.305  0.00  0.00    +0.061 A 
ATOM     15  C   UNL     1       6.385   0.236  -4.596  0.00  0.00    +0.049 A 
ATOM     16 CL   UNL     1       8.820   1.403  -4.776  0.00  0.00    -0.082 Cl
ATOM     17 CL   UNL     1       9.240  -0.335  -7.331  0.00  0.00    -0.082 Cl
ENDBRANCH   6  10
BRANCH   3  18
ATOM     18  C   UNL     1      -0.180  -1.364  -4.896  0.00  0.00    +0.001 A 
ATOM     19  C   UNL     1       0.218  -2.285  -5.866  0.00  0.00    +0.010 A 
ATOM     20  C   UNL     1      -0.565  -2.487  -6.984  0.00  0.00    +0.001 A 
ATOM     21  C   UNL     1      -1.743  -1.778  -7.144  0.00  0.00    +0.000 A 
ATOM     22  C   UNL     1      -2.143  -0.864  -6.186  0.00  0.00    +0.001 A 
ATOM     23  C   UNL     1      -1.372  -0.657  -5.061  0.00  0.00    +0.010 A 
ENDBRANCH   3  18
BRANCH   1  25
ATOM     24  C   UNL     1      -0.456   0.861   0.409  0.00  0.00    +0.204 C 
ATOM     25  S   UNL     1       0.002  -0.876   0.161  0.00  0.00    +0.029 S 
ATOM     26  O   UNL     1       0.987  -1.264   1.109  0.00  0.00    -0.167 OA
ATOM     27  O   UNL     1      -1.163  -1.666  -0.036  0.00  0.00    -0.167 OA
ENDBRANCH   1  25
BRANCH   5  28
ATOM     28  N   UNL     1       2.699  -1.099  -6.186  0.00  0.00    -0.342 N 
ATOM     29  H   UNL     1       1.780  -1.099  -6.496  0.00  0.00    +0.144 HD
ATOM     30  H   UNL     1       3.424  -1.212  -6.820  0.00  0.00    +0.144 HD
ENDBRANCH   5  28
TORSDOF 4
