REMARK  Name = ZINC20082728
REMARK  13 active torsions:
REMARK  status: ('A' for Active; 'I' for Inactive)
REMARK    1  A    between atoms: C_1  and  C_2
REMARK    2  A    between atoms: C_2  and  C_3
REMARK    3  A    between atoms: C_3  and  C_4
REMARK    4  A    between atoms: C_3  and  C_5
REMARK    5  A    between atoms: C_3  and  N_6
REMARK    6  A    between atoms: C_7  and  C_11
REMARK    7  A    between atoms: C_11  and  C_13
REMARK    8  A    between atoms: C_11  and  N_26
REMARK    9  A    between atoms: C_18  and  C_25
REMARK   10  A    between atoms: N_26  and  C_27
REMARK   11  A    between atoms: N_26  and  C_33
REMARK   12  A    between atoms: C_27  and  C_28
REMARK   13  A    between atoms: C_33  and  C_34
REMARK                            x       y       z     vdW  Elec       q    Type
REMARK                         _______ _______ _______ _____ _____    ______ ____
ROOT
ATOM      1  C   UNL     1       4.178   1.354  -0.882  0.00  0.00    +0.163 C 
ENDROOT
BRANCH   1   2
ATOM      2  C   UNL     1       5.038   1.111   0.332  0.00  0.00    +0.042 A 
ATOM      3  C   UNL     1       5.926   0.086   0.337  0.00  0.00    +0.021 A 
ATOM      4  C   UNL     1       6.747  -0.122   1.531  0.00  0.00    -0.001 A 
ATOM      5  C   UNL     1       7.680  -1.162   1.595  0.00  0.00    +0.010 A 
ATOM      6  C   UNL     1       8.431  -1.330   2.723  0.00  0.00    +0.004 A 
ATOM      7  C   UNL     1       8.276  -0.477   3.808  0.00  0.00    -0.048 A 
ATOM      8  C   UNL     1       7.364   0.555   3.767  0.00  0.00    +0.029 A 
ATOM      9  C   UNL     1       6.587   0.745   2.628  0.00  0.00    +0.049 A 
ATOM     10  N   UNL     1       5.667   1.769   2.559  0.00  0.00    -0.322 N 
ATOM     11  H   UNL     1       5.534   2.447   3.415  0.00  0.00    +0.169 HD
ATOM     12  C   UNL     1       4.921   1.956   1.456  0.00  0.00    +0.254 A 
ATOM     13  O   UNL     1       4.120   2.874   1.429  0.00  0.00    -0.268 OA
ATOM     14  C   UNL     1       9.116  -0.681   5.042  0.00  0.00    +0.044 C 
ENDBRANCH   1   2
BRANCH   1  16
ATOM     15  N   UNL     1       1.931   0.171  -1.126  0.00  0.00    -0.222 N 
ATOM     16  C   UNL     1       2.737   1.076  -0.539  0.00  0.00    +0.174 A 
ATOM     17  N   UNL     1       2.025   1.669   0.388  0.00  0.00    -0.111 NA
ATOM     18  N   UNL     1       0.843   1.155   0.372  0.00  0.00    -0.023 NA
ATOM     19  N   UNL     1       0.783   0.249  -0.541  0.00  0.00    -0.043 NA
BRANCH  15  20
ATOM     20  C   UNL     1       2.290  -0.732  -2.221  0.00  0.00    +0.062 C 
ATOM     21  C   UNL     1       2.754   0.087  -3.427  0.00  0.00    +0.036 C 
ATOM     22  C   UNL     1       3.421  -1.659  -1.769  0.00  0.00    +0.036 C 
BRANCH  20  24
ATOM     23  C   UNL     1       1.445  -2.513  -3.757  0.00  0.00    +0.006 C 
ATOM     24  C   UNL     1       1.070  -1.569  -2.612  0.00  0.00    +0.026 C 
ENDBRANCH  20  24
ENDBRANCH  15  20
ENDBRANCH   1  16
BRANCH   1  25
ATOM     25  N   UNL     1       4.319   2.752  -1.311  0.00  0.00    -0.277 NA
BRANCH  25  26
ATOM     26  C   UNL     1       3.249   3.126  -2.245  0.00  0.00    +0.160 C 
BRANCH  26  27
ATOM     27  C   UNL     1       2.091   3.709  -1.476  0.00  0.00    +0.119 A 
ATOM     28  C   UNL     1       1.996   4.978  -1.040  0.00  0.00    +0.046 A 
ATOM     29  C   UNL     1       0.755   5.089  -0.372  0.00  0.00    +0.041 A 
ATOM     30  C   UNL     1       0.166   3.882  -0.441  0.00  0.00    +0.195 A 
ATOM     31  O   UNL     1       0.977   3.051  -1.115  0.00  0.00    -0.467 OA
ENDBRANCH  26  27
ENDBRANCH  25  26
BRANCH  25  32
ATOM     32  C   UNL     1       5.642   2.990  -1.903  0.00  0.00    +0.128 C 
BRANCH  32  33
ATOM     33  C   UNL     1       6.664   3.138  -0.805  0.00  0.00    +0.004 A 
ATOM     34  C   UNL     1       7.650   2.284  -0.436  0.00  0.00    +0.012 A 
ATOM     35  C   UNL     1       8.480   2.632   0.613  0.00  0.00    +0.008 A 
ATOM     36  C   UNL     1       8.284   3.817   1.241  0.00  0.00    +0.045 A 
ATOM     37  S   UNL     1       6.895   4.487   0.341  0.00  0.00    -0.100 S 
ENDBRANCH  32  33
ENDBRANCH  25  32
ENDBRANCH   1  25
TORSDOF 9
