REMARK  Name = ZINC28963743
REMARK  10 active torsions:
REMARK  status: ('A' for Active; 'I' for Inactive)
REMARK    1  A    between atoms: C_1  and  C_2
REMARK    2  A    between atoms: C_2  and  C_3
REMARK    3  A    between atoms: C_3  and  C_4
REMARK    4  A    between atoms: C_4  and  C_5
REMARK    5  A    between atoms: C_12  and  C_14
REMARK    6  A    between atoms: C_15  and  C_27
REMARK    7  A    between atoms: C_21  and  C_23
REMARK    8  A    between atoms: C_23  and  N_24
REMARK    9  A    between atoms: N_24  and  C_25
REMARK   10  A    between atoms: N_24  and  C_26
REMARK                            x       y       z     vdW  Elec       q    Type
REMARK                         _______ _______ _______ _____ _____    ______ ____
ROOT
ATOM      1  C   UNL     1      -2.504   3.086   4.623  0.00  0.00    +0.100 A 
ATOM      2  C   UNL     1      -1.775   4.266   4.721  0.00  0.00    +0.099 A 
ATOM      3  N   UNL     1      -0.905   4.297   3.707  0.00  0.00    -0.227 NA
ATOM      4  C   UNL     1      -1.041   3.201   2.969  0.00  0.00    +0.139 A 
ATOM      5  N   UNL     1      -2.029   2.424   3.512  0.00  0.00    -0.297 N 
ATOM      6  C   UNL     1      -2.368   1.234   2.941  0.00  0.00    +0.093 A 
ATOM      7  C   UNL     1      -1.735   0.799   1.829  0.00  0.00    +0.020 A 
ATOM      8  C   UNL     1      -0.718   1.572   1.248  0.00  0.00    -0.059 A 
ATOM      9  C   UNL     1      -0.368   2.760   1.813  0.00  0.00    +0.048 A 
ENDROOT
BRANCH   1  17
ATOM     10  C   UNL     1      -5.568   2.719   9.758  0.00  0.00    +0.219 C 
ATOM     11  O   UNL     1      -6.425   1.951   9.375  0.00  0.00    -0.275 OA
ATOM     12  N   UNL     1      -4.598   3.122   8.915  0.00  0.00    -0.254 N 
ATOM     13  C   UNL     1      -4.578   2.657   7.605  0.00  0.00    +0.222 A 
ATOM     14  N   UNL     1      -5.522   1.818   7.205  0.00  0.00    -0.223 NA
ATOM     15  C   UNL     1      -5.541   1.350   5.965  0.00  0.00    +0.116 A 
ATOM     16  C   UNL     1      -4.563   1.749   5.077  0.00  0.00    +0.050 A 
ATOM     17  C   UNL     1      -3.572   2.634   5.528  0.00  0.00    +0.095 A 
ATOM     18  N   UNL     1      -3.618   3.064   6.792  0.00  0.00    -0.213 NA
ATOM     19  H   UNL     1      -3.821   3.819   9.262  0.00  0.00    +0.158 HD
BRANCH  10  20
ATOM     20  C   UNL     1      -5.589   3.224  11.178  0.00  0.00    +0.096 C 
BRANCH  20  21
ATOM     21  C   UNL     1      -6.784   2.618  11.917  0.00  0.00    +0.009 C 
BRANCH  21  23
ATOM     22  C   UNL     1      -8.001   2.524  14.097  0.00  0.00    +0.004 C 
ATOM     23  C   UNL     1      -6.806   3.130  13.359  0.00  0.00    -0.003 C 
ENDBRANCH  21  23
ENDBRANCH  20  21
ENDBRANCH  10  20
ENDBRANCH   1  17
BRANCH   2  24
ATOM     24  C   UNL     1      -1.934   5.306   5.765  0.00  0.00    +0.003 A 
ATOM     25  C   UNL     1      -3.197   5.591   6.281  0.00  0.00    +0.013 A 
ATOM     26  C   UNL     1      -3.339   6.556   7.256  0.00  0.00    +0.039 A 
ATOM     27  C   UNL     1      -2.231   7.249   7.715  0.00  0.00    +0.123 A 
ATOM     28  C   UNL     1      -0.974   6.973   7.201  0.00  0.00    +0.039 A 
ATOM     29  C   UNL     1      -0.821   6.006   6.229  0.00  0.00    +0.013 A 
ATOM     30  F   UNL     1      -2.376   8.197   8.667  0.00  0.00    -0.205 F 
ENDBRANCH   2  24
BRANCH   8  31
ATOM     31  C   UNL     1      -0.013   1.086   0.008  0.00  0.00    -0.044 C 
BRANCH  31  32
ATOM     32  N   UNL     1      -0.723   1.572  -1.182  0.00  0.00    +0.379 N 
ATOM     33  C   UNL     1       0.059   1.323  -2.401  0.00  0.00    -0.096 C 
ATOM     34  C   UNL     1      -2.059   0.969  -1.281  0.00  0.00    -0.096 C 
ATOM     35  H   UNL     1      -0.850   2.660  -1.079  0.00  0.00    -0.082 HD
ENDBRANCH  31  32
ENDBRANCH   8  31
TORSDOF 7
