REMARK  Name = ZINC44713734
REMARK  9 active torsions:
REMARK  status: ('A' for Active; 'I' for Inactive)
REMARK    1  A    between atoms: C_1  and  C_2
REMARK    2  A    between atoms: C_3  and  C_9
REMARK    3  A    between atoms: C_4  and  C_8
REMARK    4  A    between atoms: C_9  and  C_11
REMARK    5  A    between atoms: C_9  and  N_12
REMARK    6  A    between atoms: C_13  and  C_15
REMARK    7  A    between atoms: C_26  and  C_28
REMARK    8  A    between atoms: C_31  and  O_34
REMARK    9  A    between atoms: O_34  and  C_35
REMARK                            x       y       z     vdW  Elec       q    Type
REMARK                         _______ _______ _______ _____ _____    ______ ____
ROOT
ATOM      1  C   UNL     1       2.717  -0.851  -4.848  0.00  0.00    +0.100 C 
ATOM      2  C   UNL     1       4.026  -1.324  -4.177  0.00  0.00    +0.121 C 
ATOM      3  N   UNL     1       5.050  -1.230  -5.245  0.00  0.00    -0.296 N 
ATOM      4  C   UNL     1       4.713   0.019  -5.969  0.00  0.00    +0.115 C 
ATOM      5  C   UNL     1       3.172   0.030  -6.023  0.00  0.00    -0.004 C 
ATOM      6  C   UNL     1       2.686  -0.558  -7.344  0.00  0.00    -0.010 C 
ATOM      7  C   UNL     1       3.102   0.366  -8.492  0.00  0.00    -0.082 C 
ATOM      8  N   UNL     1       2.523   1.698  -8.285  0.00  0.00    +0.379 N 
ATOM      9  C   UNL     1       3.067   2.296  -7.059  0.00  0.00    -0.082 C 
ATOM     10  C   UNL     1       2.650   1.453  -5.850  0.00  0.00    -0.010 C 
ATOM     11  C   UNL     1       6.058  -2.087  -5.500  0.00  0.00    +0.247 C 
ATOM     12  O   UNL     1       6.140  -3.131  -4.882  0.00  0.00    -0.270 OA
ATOM     13  H   UNL     1       2.747   2.288  -9.073  0.00  0.00    -0.086 HD
ATOM     14  H   UNL     1       1.520   1.619  -8.202  0.00  0.00    -0.086 HD
ENDROOT
BRANCH  11  15
ATOM     15  C   UNL     1       7.064  -1.757  -6.528  0.00  0.00    +0.037 A 
ATOM     16  C   UNL     1       7.263  -0.428  -6.913  0.00  0.00    +0.016 A 
ATOM     17  C   UNL     1       8.203  -0.125  -7.873  0.00  0.00    +0.047 A 
ATOM     18  C   UNL     1       8.953  -1.138  -8.459  0.00  0.00    +0.130 A 
ATOM     19  C   UNL     1       8.757  -2.461  -8.080  0.00  0.00    +0.047 A 
ATOM     20  C   UNL     1       7.824  -2.772  -7.116  0.00  0.00    +0.016 A 
BRANCH  18  21
ATOM     21  O   UNL     1       9.877  -0.835  -9.405  0.00  0.00    -0.406 OA
BRANCH  21  22
ATOM     22  C   UNL     1      10.612  -1.924  -9.967  0.00  0.00    +0.575 C 
ATOM     23  F   UNL     1       9.726  -2.818 -10.579  0.00  0.00    -0.133 F 
ATOM     24  F   UNL     1      11.514  -1.437 -10.918  0.00  0.00    -0.133 F 
ATOM     25  F   UNL     1      11.314  -2.585  -8.953  0.00  0.00    -0.133 F 
ENDBRANCH  21  22
ENDBRANCH  18  21
ENDBRANCH  11  15
BRANCH   1  27
ATOM     26  N   UNL     1       0.549  -0.022  -3.993  0.00  0.00    -0.308 N 
ATOM     27  C   UNL     1       1.892  -0.046  -3.877  0.00  0.00    +0.219 C 
ATOM     28  O   UNL     1       2.435   0.580  -2.992  0.00  0.00    -0.275 OA
ATOM     29  H   UNL     1       0.114  -0.523  -4.701  0.00  0.00    +0.149 HD
BRANCH  26  30
ATOM     30  C   UNL     1      -0.254   0.760  -3.050  0.00  0.00    +0.104 C 
ATOM     31  C   UNL     1      -0.333   2.211  -3.528  0.00  0.00    +0.033 C 
BRANCH  30  34
ATOM     32  C   UNL     1      -1.884   0.235  -0.432  0.00  0.00    +0.065 C 
ATOM     33  C   UNL     1      -2.348  -0.046  -1.838  0.00  0.00    +0.038 A 
ATOM     34  C   UNL     1      -1.643   0.180  -2.971  0.00  0.00    +0.015 A 
ATOM     35  C   UNL     1      -2.431  -0.219  -4.055  0.00  0.00    +0.065 A 
ATOM     36  N   UNL     1      -3.568  -0.668  -3.590  0.00  0.00    -0.179 NA
ATOM     37  N   UNL     1      -3.538  -0.575  -2.193  0.00  0.00    -0.281 N 
ATOM     38  H   UNL     1      -4.247  -0.841  -1.588  0.00  0.00    +0.189 HD
ATOM     39  C   UNL     1      -2.038  -0.143  -5.508  0.00  0.00    +0.068 C 
ENDBRANCH  30  34
ENDBRANCH  26  30
ENDBRANCH   1  27
TORSDOF 6
