REMARK  Name = ZINC05659737
REMARK  4 active torsions:
REMARK  status: ('A' for Active; 'I' for Inactive)
REMARK    1  A    between atoms: C_1  and  N_2
REMARK    2  A    between atoms: C_6  and  C_7
REMARK    3  A    between atoms: C_8  and  C_9
REMARK    4  A    between atoms: N_16  and  C_19
REMARK                            x       y       z     vdW  Elec       q    Type
REMARK                         _______ _______ _______ _____ _____    ______ ____
ROOT
ATOM      1  C   UNL     1       0.237   1.136   0.150  0.00  0.00    +0.140 C 
ATOM      2  N   UNL     1      -0.587   1.581   1.277  0.00  0.00    -0.252 N 
ATOM      3  C   UNL     1      -0.914   0.699   2.244  0.00  0.00    +0.257 C 
ATOM      4  O   UNL     1      -0.534  -0.456   2.190  0.00  0.00    -0.269 OA
ATOM      5  C   UNL     1      -1.743   1.171   3.365  0.00  0.00    +0.099 C 
ATOM      6  C   UNL     1      -2.121   0.315   4.401  0.00  0.00    +0.018 C 
ATOM      7  C   UNL     1      -2.156   2.583   3.346  0.00  0.00    +0.257 C 
ATOM      8  O   UNL     1      -2.842   3.045   4.239  0.00  0.00    -0.269 OA
ATOM      9  N   UNL     1      -1.755   3.352   2.313  0.00  0.00    -0.252 N 
ATOM     10  C   UNL     1      -0.994   2.857   1.326  0.00  0.00    +0.148 C 
ATOM     11  S   UNL     1      -0.525   3.909   0.059  0.00  0.00    -0.018 S 
ATOM     12  C   UNL     1      -2.153   4.761   2.273  0.00  0.00    +0.140 C 
ENDROOT
BRANCH   6  13
ATOM     13  C   UNL     1      -2.922   0.788   5.437  0.00  0.00    +0.004 C 
ATOM     14  C   UNL     1      -3.376  -0.079   6.408  0.00  0.00    +0.046 C 
BRANCH  14  15
ATOM     15  C   UNL     1      -3.163  -1.465   6.270  0.00  0.00    +0.128 A 
ATOM     16  C   UNL     1      -3.445  -2.433   7.219  0.00  0.00    +0.049 A 
ATOM     17  C   UNL     1      -3.077  -3.661   6.657  0.00  0.00    +0.042 A 
ATOM     18  C   UNL     1      -2.588  -3.406   5.420  0.00  0.00    +0.195 A 
ATOM     19  O   UNL     1      -2.641  -2.087   5.191  0.00  0.00    -0.464 OA
ENDBRANCH  14  15
ENDBRANCH   6  13
TORSDOF 2
