REMARK  Name = ZINC39161277
REMARK  5 active torsions:
REMARK  status: ('A' for Active; 'I' for Inactive)
REMARK    1  A    between atoms: C_1  and  C_2
REMARK    2  A    between atoms: C_12  and  N_19
REMARK    3  A    between atoms: C_14  and  C_16
REMARK    4  A    between atoms: C_20  and  C_22
REMARK    5  A    between atoms: C_22  and  C_23
REMARK                            x       y       z     vdW  Elec       q    Type
REMARK                         _______ _______ _______ _____ _____    ______ ____
ROOT
ATOM      1  C   UNL     1       0.171   1.472   0.021  0.00  0.00    +0.007 C 
ATOM      2  C   UNL     1       0.132  -0.057  -0.004  0.00  0.00    -0.013 C 
ATOM      3  C   UNL     1       0.743  -0.571  -1.313  0.00  0.00    +0.003 C 
ATOM      4  C   UNL     1       0.603  -2.089  -1.345  0.00  0.00    +0.006 C 
ATOM      5  C   UNL     1       1.384  -2.741  -0.202  0.00  0.00    +0.016 C 
ATOM      6  C   UNL     1       0.994  -2.110   1.154  0.00  0.00    +0.052 C 
ATOM      7  C   UNL     1       0.958  -0.614   1.155  0.00  0.00    +0.017 C 
ATOM      8  S   UNL     1      -0.694  -2.797   1.386  0.00  0.00    -0.134 S 
ATOM      9  C   UNL     1      -0.546  -4.289   0.316  0.00  0.00    +0.143 C 
ATOM     10  C   UNL     1       0.941  -4.225  -0.162  0.00  0.00    +0.109 C 
ENDROOT
BRANCH  10  11
ATOM     11  C   UNL     1       1.813  -4.986   0.803  0.00  0.00    +0.216 C 
ATOM     12  O   UNL     1       2.217  -4.445   1.810  0.00  0.00    -0.276 OA
ATOM     13  N   UNL     1       2.143  -6.268   0.547  0.00  0.00    -0.329 N 
ATOM     14  H   UNL     1       1.881  -6.678  -0.292  0.00  0.00    +0.145 HD
ATOM     15  H   UNL     1       2.642  -6.780   1.202  0.00  0.00    +0.145 HD
ENDBRANCH  10  11
BRANCH   9  16
ATOM     16  N   UNL     1      -0.796  -5.509   1.088  0.00  0.00    -0.303 N 
ATOM     17  C   UNL     1      -1.899  -6.245   0.846  0.00  0.00    +0.218 C 
ATOM     18  O   UNL     1      -2.729  -5.852   0.054  0.00  0.00    -0.275 OA
ATOM     19  H   UNL     1      -0.169  -5.786   1.773  0.00  0.00    +0.150 HD
BRANCH  17  20
ATOM     20  C   UNL     1      -2.099  -7.558   1.558  0.00  0.00    +0.133 C 
BRANCH  20  21
ATOM     21  C   UNL     1      -3.399  -8.178   1.113  0.00  0.00    -0.014 A 
ATOM     22  C   UNL     1      -3.605  -9.012  -0.073  0.00  0.00    +0.003 A 
ATOM     23  C   UNL     1      -2.769  -9.475  -1.091  0.00  0.00    +0.010 A 
ATOM     24  C   UNL     1      -3.282 -10.261  -2.085  0.00  0.00    +0.001 A 
ATOM     25  C   UNL     1      -4.627 -10.601  -2.091  0.00  0.00    +0.002 A 
ATOM     26  C   UNL     1      -5.470 -10.155  -1.096  0.00  0.00    +0.026 A 
ATOM     27  C   UNL     1      -4.970  -9.355  -0.075  0.00  0.00    +0.047 A 
ATOM     28  N   UNL     1      -5.538  -8.767   1.033  0.00  0.00    -0.360 N 
ATOM     29  C   UNL     1      -4.586  -8.074   1.731  0.00  0.00    +0.087 A 
ATOM     30  H   UNL     1      -6.472  -8.836   1.283  0.00  0.00    +0.165 HD
ENDBRANCH  20  21
ENDBRANCH  17  20
ENDBRANCH   9  16
TORSDOF 4
