REMARK  Name = ZINC36093624
REMARK  9 active torsions:
REMARK  status: ('A' for Active; 'I' for Inactive)
REMARK    1  A    between atoms: C_1  and  C_2
REMARK    2  A    between atoms: C_2  and  O_3
REMARK    3  A    between atoms: O_3  and  C_4
REMARK    4  A    between atoms: C_6  and  C_18
REMARK    5  A    between atoms: C_9  and  O_10
REMARK    6  A    between atoms: O_10  and  C_11
REMARK    7  A    between atoms: C_11  and  C_13
REMARK    8  A    between atoms: N_27  and  C_30
REMARK    9  A    between atoms: C_31  and  O_33
REMARK                            x       y       z     vdW  Elec       q    Type
REMARK                         _______ _______ _______ _____ _____    ______ ____
ROOT
ATOM      1  C   UNL     1       0.675  -4.926  -0.013  0.00  0.00    +0.224 C 
ATOM      2  N   UNL     1       0.345  -6.176  -0.722  0.00  0.00    -0.313 N 
ATOM      3  C   UNL     1       0.439  -6.142  -2.094  0.00  0.00    +0.080 A 
ATOM      4  C   UNL     1       1.272  -5.231  -2.757  0.00  0.00    +0.067 A 
ATOM      5  C   UNL     1       1.254  -5.308  -4.204  0.00  0.00    -0.027 A 
ATOM      6  C   UNL     1       0.434  -6.260  -4.710  0.00  0.00    -0.021 A 
ATOM      7  S   UNL     1      -0.290  -7.031  -3.290  0.00  0.00    -0.080 S 
ATOM      8  C   UNL     1       0.216  -6.560  -6.159  0.00  0.00    -0.036 C 
ATOM      9  N   UNL     1       0.728  -5.426  -6.950  0.00  0.00    +0.381 N 
ATOM     10  C   UNL     1       2.094  -5.102  -6.518  0.00  0.00    -0.074 C 
ATOM     11  C   UNL     1       2.068  -4.427  -5.143  0.00  0.00    +0.018 C 
ATOM     12  C   UNL     1       0.738  -5.788  -8.373  0.00  0.00    -0.096 C 
ATOM     13  C   UNL     1       2.077  -4.305  -1.920  0.00  0.00    +0.220 C 
ATOM     14  N   UNL     1       1.780  -4.222  -0.653  0.00  0.00    -0.223 NA
ATOM     15  H   UNL     1       0.078  -6.978  -0.246  0.00  0.00    +0.149 HD
ATOM     16  H   UNL     1       0.133  -4.623  -6.811  0.00  0.00    -0.082 HD
ENDROOT
BRANCH   1  19
ATOM     17  C   UNL     1      -1.497  -1.835   0.038  0.00  0.00    +0.163 A 
ATOM     18  C   UNL     1      -0.382  -2.659   0.030  0.00  0.00    +0.056 A 
ATOM     19  C   UNL     1      -0.538  -4.032  -0.004  0.00  0.00    -0.002 A 
ATOM     20  C   UNL     1      -1.804  -4.586  -0.031  0.00  0.00    +0.011 A 
ATOM     21  C   UNL     1      -2.920  -3.771  -0.023  0.00  0.00    +0.050 A 
ATOM     22  C   UNL     1      -2.771  -2.393   0.017  0.00  0.00    +0.173 A 
BRANCH  17  23
ATOM     23  O   UNL     1      -1.345  -0.484   0.072  0.00  0.00    -0.489 OA
BRANCH  23  25
ATOM     24  C   UNL     1      -0.038   1.548   0.129  0.00  0.00    +0.048 C 
ATOM     25  C   UNL     1      -0.008   0.019   0.092  0.00  0.00    +0.226 C 
ENDBRANCH  23  25
ENDBRANCH  17  23
BRANCH  22  26
ATOM     26  O   UNL     1      -3.868  -1.589   0.031  0.00  0.00    -0.418 OA
BRANCH  26  27
ATOM     27  C   UNL     1      -4.261  -1.035  -1.134  0.00  0.00    +0.351 C 
ATOM     28  O   UNL     1      -3.701  -1.337  -2.171  0.00  0.00    -0.244 OA
BRANCH  27  29
ATOM     29  C   UNL     1      -5.362  -0.070  -1.151  0.00  0.00    +0.097 A 
ATOM     30  C   UNL     1      -5.919   0.604  -2.229  0.00  0.00    +0.022 A 
ATOM     31  C   UNL     1      -6.954   1.456  -1.929  0.00  0.00    +0.008 A 
ATOM     32  C   UNL     1      -7.354   1.580  -0.639  0.00  0.00    +0.046 A 
ATOM     33  S   UNL     1      -6.343   0.540   0.208  0.00  0.00    -0.090 S 
ENDBRANCH  27  29
ENDBRANCH  26  27
ENDBRANCH  22  26
ENDBRANCH   1  19
BRANCH  13  34
ATOM     34  O   UNL     1       3.082  -3.573  -2.453  0.00  0.00    -0.492 OA
ATOM     35  H   UNL     1       3.536  -3.005  -1.816  0.00  0.00    +0.294 HD
ENDBRANCH  13  34
TORSDOF 7
