REMARK  Name = ZINC35689491
REMARK  12 active torsions:
REMARK  status: ('A' for Active; 'I' for Inactive)
REMARK    1  A    between atoms: C_1  and  C_2
REMARK    2  A    between atoms: C_2  and  C_3
REMARK    3  A    between atoms: C_3  and  C_4
REMARK    4  A    between atoms: C_4  and  N_5
REMARK    5  A    between atoms: C_13  and  C_15
REMARK    6  A    between atoms: C_16  and  C_18
REMARK    7  A    between atoms: C_18  and  C_20
REMARK    8  A    between atoms: C_18  and  N_25
REMARK    9  A    between atoms: C_20  and  C_22
REMARK   10  A    between atoms: C_20  and  C_23
REMARK   11  A    between atoms: C_23  and  C_24
REMARK   12  A    between atoms: C_26  and  C_28
REMARK                            x       y       z     vdW  Elec       q    Type
REMARK                         _______ _______ _______ _____ _____    ______ ____
ROOT
ATOM      1  N   UNL     1      -2.695  -3.081  -0.528  0.00  0.00    -0.299 N 
ATOM      2  C   UNL     1      -3.015  -4.386  -0.421  0.00  0.00    +0.303 C 
ATOM      3  O   UNL     1      -2.151  -5.235  -0.525  0.00  0.00    -0.253 OA
ATOM      4  N   UNL     1      -4.294  -4.749  -0.197  0.00  0.00    -0.280 N 
ATOM      5  C   UNL     1      -5.366  -3.744  -0.185  0.00  0.00    +0.128 C 
ATOM      6  C   UNL     1      -6.119  -3.848   1.147  0.00  0.00    +0.127 C 
ATOM      7  N   UNL     1      -6.466  -5.256   1.382  0.00  0.00    -0.297 N 
ATOM      8  C   UNL     1      -5.394  -6.261   1.370  0.00  0.00    +0.130 C 
ATOM      9  C   UNL     1      -4.641  -6.159   0.032  0.00  0.00    +0.092 C 
ATOM     10  C   UNL     1      -5.535  -6.659  -1.104  0.00  0.00    +0.030 C 
ATOM     11  C   UNL     1      -7.745  -5.620   1.605  0.00  0.00    +0.236 C 
ATOM     12  O   UNL     1      -8.008  -6.771   1.884  0.00  0.00    -0.274 OA
ATOM     13  H   UNL     1      -3.393  -2.408  -0.518  0.00  0.00    +0.150 HD
ENDROOT
BRANCH   1  14
ATOM     14  C   UNL     1      -1.292  -2.680  -0.659  0.00  0.00    +0.106 C 
BRANCH  14  15
ATOM     15  C   UNL     1      -1.204  -1.156  -0.762  0.00  0.00    +0.018 C 
BRANCH  15  17
ATOM     16  C   UNL     1       0.348   0.787  -1.003  0.00  0.00    +0.004 C 
ATOM     17  C   UNL     1       0.261  -0.737  -0.900  0.00  0.00    -0.002 C 
ENDBRANCH  15  17
ENDBRANCH  14  15
ENDBRANCH   1  14
BRANCH  11  18
ATOM     18  C   UNL     1      -8.847  -4.597   1.508  0.00  0.00    +0.162 C 
BRANCH  18  19
ATOM     19  N   UNL     1      -9.987  -5.029   2.321  0.00  0.00    -0.300 N 
ATOM     20  C   UNL     1     -10.854  -4.117   2.804  0.00  0.00    +0.246 C 
ATOM     21  O   UNL     1     -10.690  -2.936   2.565  0.00  0.00    -0.270 OA
ATOM     22  H   UNL     1     -10.118  -5.971   2.511  0.00  0.00    +0.150 HD
BRANCH  20  23
ATOM     23  C   UNL     1     -12.003  -4.552   3.623  0.00  0.00    +0.055 A 
ATOM     24  C   UNL     1     -12.191  -5.907   3.903  0.00  0.00    +0.016 A 
ATOM     25  C   UNL     1     -13.266  -6.308   4.668  0.00  0.00    +0.021 A 
ATOM     26  C   UNL     1     -14.159  -5.369   5.159  0.00  0.00    +0.042 A 
ATOM     27  C   UNL     1     -13.980  -4.024   4.885  0.00  0.00    +0.040 A 
ATOM     28  C   UNL     1     -12.904  -3.610   4.125  0.00  0.00    +0.054 A 
ATOM     29 CL   UNL     1     -12.676  -1.922   3.788  0.00  0.00    -0.083 Cl
ATOM     30 CL   UNL     1     -15.510  -5.882   6.121  0.00  0.00    -0.083 Cl
ENDBRANCH  20  23
ENDBRANCH  18  19
BRANCH  18  31
ATOM     31  C   UNL     1      -9.285  -4.456   0.049  0.00  0.00    +0.015 C 
ATOM     32  C   UNL     1      -9.932  -5.762  -0.418  0.00  0.00    +0.010 C 
BRANCH  31  33
ATOM     33  C   UNL     1     -10.296  -3.314  -0.072  0.00  0.00    +0.002 C 
ATOM     34  C   UNL     1      -9.607  -1.987   0.249  0.00  0.00    +0.004 C 
ENDBRANCH  31  33
ENDBRANCH  18  31
ENDBRANCH  11  18
TORSDOF 8
