REMARK  Name = ZINC41358976
REMARK  11 active torsions:
REMARK  status: ('A' for Active; 'I' for Inactive)
REMARK    1  A    between atoms: C_1  and  C_2
REMARK    2  A    between atoms: C_5  and  N_23
REMARK    3  A    between atoms: C_10  and  C_11
REMARK    4  A    between atoms: C_11  and  C_13
REMARK    5  A    between atoms: C_16  and  O_21
REMARK    6  A    between atoms: C_17  and  O_19
REMARK    7  A    between atoms: O_19  and  C_20
REMARK    8  A    between atoms: O_21  and  C_22
REMARK    9  A    between atoms: C_24  and  C_26
REMARK   10  A    between atoms: C_26  and  C_27
REMARK   11  A    between atoms: C_27  and  C_28
REMARK                            x       y       z     vdW  Elec       q    Type
REMARK                         _______ _______ _______ _____ _____    ______ ____
ROOT
ATOM      1  C   UNL     1      -0.717   1.728   0.105  0.00  0.00    +0.048 C 
ATOM      2  C   UNL     1      -0.466   0.242   0.112  0.00  0.00    +0.006 A 
ATOM      3  C   UNL     1      -0.319  -0.630  -1.052  0.00  0.00    +0.026 A 
ATOM      4  C   UNL     1      -0.356  -0.422  -2.433  0.00  0.00    +0.035 A 
ATOM      5  C   UNL     1      -0.176  -1.493  -3.288  0.00  0.00    +0.034 A 
ATOM      6  C   UNL     1       0.040  -2.771  -2.774  0.00  0.00    +0.027 A 
ATOM      7  C   UNL     1       0.078  -2.985  -1.415  0.00  0.00    +0.049 A 
ATOM      8  C   UNL     1      -0.100  -1.922  -0.537  0.00  0.00    +0.136 A 
ATOM      9  O   UNL     1      -0.114  -1.832   0.809  0.00  0.00    -0.451 OA
ATOM     10  C   UNL     1      -0.323  -0.559   1.203  0.00  0.00    +0.179 A 
ENDROOT
BRANCH   5  11
ATOM     11  N   UNL     1      -0.211  -1.294  -4.674  0.00  0.00    -0.285 N 
ATOM     12  C   UNL     1       0.287  -0.160  -5.205  0.00  0.00    +0.218 C 
ATOM     13  O   UNL     1       0.692   0.723  -4.479  0.00  0.00    -0.275 OA
ATOM     14  H   UNL     1      -0.595  -1.972  -5.252  0.00  0.00    +0.155 HD
BRANCH  12  15
ATOM     15  C   UNL     1       0.343   0.011  -6.701  0.00  0.00    +0.104 C 
BRANCH  15  16
ATOM     16  C   UNL     1       0.947   1.376  -7.037  0.00  0.00    +0.086 C 
BRANCH  16  17
ATOM     17  C   UNL     1       1.002   1.547  -8.533  0.00  0.00    +0.139 A 
ATOM     18  C   UNL     1       0.039   2.086  -9.304  0.00  0.00    +0.087 A 
ATOM     19  C   UNL     1       0.482   2.060 -10.640  0.00  0.00    +0.172 A 
ATOM     20  N   UNL     1       1.670   1.523 -10.661  0.00  0.00    -0.066 NA
ATOM     21  O   UNL     1       2.023   1.194  -9.330  0.00  0.00    -0.358 OA
ATOM     22 CL   UNL     1      -0.400   2.641 -12.018  0.00  0.00    -0.058 Cl
ENDBRANCH  16  17
ENDBRANCH  15  16
ENDBRANCH  12  15
ENDBRANCH   5  11
BRANCH  10  23
ATOM     23  C   UNL     1      -0.390  -0.106   2.598  0.00  0.00    +0.228 C 
ATOM     24  O   UNL     1      -0.698   1.044   2.851  0.00  0.00    -0.283 OA
BRANCH  23  25
ATOM     25  C   UNL     1      -0.085  -1.046   3.694  0.00  0.00    +0.029 A 
ATOM     26  C   UNL     1       0.406  -2.323   3.406  0.00  0.00    +0.015 A 
ATOM     27  C   UNL     1       0.690  -3.199   4.431  0.00  0.00    +0.050 A 
ATOM     28  C   UNL     1       0.490  -2.817   5.751  0.00  0.00    +0.162 A 
ATOM     29  C   UNL     1       0.001  -1.545   6.045  0.00  0.00    +0.162 A 
ATOM     30  C   UNL     1      -0.281  -0.660   5.024  0.00  0.00    +0.061 A 
BRANCH  29  31
ATOM     31  O   UNL     1      -0.193  -1.174   7.339  0.00  0.00    -0.491 OA
ATOM     32  C   UNL     1      -0.697   0.144   7.568  0.00  0.00    +0.277 C 
ENDBRANCH  29  31
BRANCH  28  33
ATOM     33  O   UNL     1       0.772  -3.685   6.757  0.00  0.00    -0.491 OA
ATOM     34  C   UNL     1       1.269  -4.971   6.384  0.00  0.00    +0.277 C 
ENDBRANCH  28  33
ENDBRANCH  23  25
ENDBRANCH  10  23
TORSDOF 8
