REMARK  Name = ZINC38653126
REMARK  8 active torsions:
REMARK  status: ('A' for Active; 'I' for Inactive)
REMARK    1  A    between atoms: C_1  and  C_2
REMARK    2  A    between atoms: C_4  and  C_31
REMARK    3  A    between atoms: C_8  and  C_12
REMARK    4  A    between atoms: C_12  and  C_14
REMARK    5  A    between atoms: C_12  and  S_15
REMARK    6  A    between atoms: S_15  and  C_16
REMARK    7  A    between atoms: C_20  and  C_23
REMARK    8  A    between atoms: N_21  and  N_22
REMARK                            x       y       z     vdW  Elec       q    Type
REMARK                         _______ _______ _______ _____ _____    ______ ____
ROOT
ATOM      1  C   UNL     1       7.609  -5.134  -0.599  0.00  0.00    +0.252 C 
ATOM      2  N   UNL     1       7.160  -5.987   0.515  0.00  0.00    -0.236 N 
ATOM      3  N   UNL     1       7.763  -5.475   1.670  0.00  0.00    -0.167 NA
ATOM      4  C   UNL     1       8.502  -4.449   1.404  0.00  0.00    +0.162 C 
ATOM      5  N   UNL     1       8.489  -4.142   0.041  0.00  0.00    -0.220 N 
ATOM      6  H   UNL     1       6.564  -6.750   0.460  0.00  0.00    +0.171 HD
ENDROOT
BRANCH   4   7
ATOM      7  C   UNL     1       9.268  -3.692   2.417  0.00  0.00    +0.018 A 
ATOM      8  C   UNL     1       9.479  -2.322   2.256  0.00  0.00    +0.013 A 
ATOM      9  C   UNL     1      10.194  -1.621   3.205  0.00  0.00    +0.021 A 
ATOM     10  C   UNL     1      10.703  -2.275   4.315  0.00  0.00    +0.041 A 
ATOM     11  C   UNL     1      10.497  -3.634   4.480  0.00  0.00    +0.021 A 
ATOM     12  C   UNL     1       9.778  -4.344   3.540  0.00  0.00    +0.013 A 
ATOM     13 CL   UNL     1      11.602  -1.386   5.505  0.00  0.00    -0.084 Cl
ENDBRANCH   4   7
BRANCH   5  14
ATOM     14  N   UNL     1       9.159  -3.125  -0.577  0.00  0.00    -0.250 NA
ATOM     15  H   UNL     1       9.761  -2.641   0.072  0.00  0.00    +0.141 HD
ATOM     16  H   UNL     1       9.683  -3.466  -1.370  0.00  0.00    +0.141 HD
ENDBRANCH   5  14
BRANCH   1  17
ATOM     17  S   UNL     1       6.194  -4.316  -1.385  0.00  0.00    -0.106 S 
BRANCH  17  18
ATOM     18  C   UNL     1       5.396  -3.418  -0.025  0.00  0.00    +0.112 C 
ATOM     19  C   UNL     1       4.850  -4.418   0.996  0.00  0.00    +0.027 C 
BRANCH  18  26
ATOM     20  C   UNL     1       0.446   1.906  -0.934  0.00  0.00    +0.024 C 
ATOM     21  C   UNL     1       0.370   0.383  -0.806  0.00  0.00    +0.076 C 
ATOM     22  C   UNL     1       1.150  -0.293  -1.910  0.00  0.00    -0.045 C 
ATOM     23  C   UNL     1       2.189  -1.065  -1.559  0.00  0.00    +0.071 C 
ATOM     24  C   UNL     1       2.491  -1.194  -0.117  0.00  0.00    +0.111 C 
ATOM     25  N   UNL     1       3.494  -1.936   0.290  0.00  0.00    -0.226 NA
ATOM     26  C   UNL     1       4.262  -2.587  -0.569  0.00  0.00    +0.136 C 
ATOM     27  N   UNL     1       4.089  -2.546  -1.868  0.00  0.00    -0.160 NA
ATOM     28  C   UNL     1       3.114  -1.838  -2.447  0.00  0.00    +0.271 C 
ATOM     29  O   UNL     1       2.982  -1.822  -3.659  0.00  0.00    -0.268 OA
ATOM     30  S   UNL     1       1.264  -0.197   0.693  0.00  0.00    -0.098 S 
ATOM     31  C   UNL     1       0.772  -0.107  -3.357  0.00  0.00    +0.041 C 
ENDBRANCH  18  26
ENDBRANCH  17  18
ENDBRANCH   1  17
TORSDOF 5
