REMARK  Name = ZINC43474886
REMARK  7 active torsions:
REMARK  status: ('A' for Active; 'I' for Inactive)
REMARK    1  A    between atoms: C_3  and  C_20
REMARK    2  A    between atoms: C_5  and  O_7
REMARK    3  A    between atoms: O_7  and  C_8
REMARK    4  A    between atoms: C_8  and  C_9
REMARK    5  A    between atoms: N_11  and  C_12
REMARK    6  A    between atoms: C_15  and  N_19
REMARK    7  A    between atoms: C_20  and  O_21
REMARK                            x       y       z     vdW  Elec       q    Type
REMARK                         _______ _______ _______ _____ _____    ______ ____
ROOT
ATOM      1  C   UNL     1       0.193  -4.199  -0.018  0.00  0.00    +0.255 C 
ATOM      2  O   UNL     1       1.320  -4.645  -0.035  0.00  0.00    -0.272 OA
ATOM      3  N   UNL     1      -0.864  -5.036  -0.018  0.00  0.00    -0.282 N 
ATOM      4  H   UNL     1      -1.763  -4.682   0.062  0.00  0.00    +0.155 HD
ENDROOT
BRANCH   3   5
ATOM      5  C   UNL     1      -0.662  -6.418  -0.134  0.00  0.00    +0.048 A 
ATOM      6  C   UNL     1       0.454  -7.008   0.444  0.00  0.00    +0.026 A 
ATOM      7  C   UNL     1       0.653  -8.369   0.330  0.00  0.00    +0.024 A 
ATOM      8  C   UNL     1      -0.265  -9.150  -0.362  0.00  0.00    +0.026 A 
ATOM      9  C   UNL     1      -1.381  -8.561  -0.940  0.00  0.00    +0.039 A 
ATOM     10  C   UNL     1      -1.583  -7.199  -0.821  0.00  0.00    +0.041 A 
ATOM     11 BR   UNL     1      -3.107  -6.397  -1.601  0.00  0.00    -0.048 Br
BRANCH   8  12
ATOM     12  N   UNL     1      -0.063 -10.529  -0.477  0.00  0.00    -0.358 N 
ATOM     13  H   UNL     1       0.718 -10.941  -0.074  0.00  0.00    +0.142 HD
ATOM     14  H   UNL     1      -0.703 -11.074  -0.961  0.00  0.00    +0.142 HD
ENDBRANCH   8  12
ENDBRANCH   3   5
BRANCH   1  15
ATOM     15  C   UNL     1      -0.027  -2.708   0.004  0.00  0.00    +0.324 C 
BRANCH  15  16
ATOM     16  O   UNL     1       1.236  -2.040   0.000  0.00  0.00    -0.483 OA
BRANCH  16  21
ATOM     17  C   UNL     1      -0.014   1.376   0.058  0.00  0.00    +0.004 A 
ATOM     18  C   UNL     1       1.174   2.085   0.055  0.00  0.00    +0.006 A 
ATOM     19  C   UNL     1       2.382   1.413   0.034  0.00  0.00    -0.019 A 
ATOM     20  C   UNL     1       2.405   0.032   0.015  0.00  0.00    +0.051 A 
ATOM     21  C   UNL     1       1.216  -0.681   0.018  0.00  0.00    +0.122 A 
ATOM     22  C   UNL     1       0.004  -0.005   0.040  0.00  0.00    +0.045 A 
BRANCH  19  23
ATOM     23  C   UNL     1       3.674   2.188   0.031  0.00  0.00    +0.191 C 
BRANCH  23  24
ATOM     24  O   UNL     1       4.096   2.416   1.377  0.00  0.00    -0.390 OA
ATOM     25  H   UNL     1       4.924   2.910   1.452  0.00  0.00    +0.210 HD
ENDBRANCH  23  24
ENDBRANCH  19  23
ENDBRANCH  16  21
ENDBRANCH  15  16
ENDBRANCH   1  15
TORSDOF 7
