REMARK  Name = ZINC13946131
REMARK  5 active torsions:
REMARK  status: ('A' for Active; 'I' for Inactive)
REMARK    1  A    between atoms: C_3  and  C_10
REMARK    2  A    between atoms: C_5  and  N_7
REMARK    3  A    between atoms: C_13  and  C_15
REMARK    4  A    between atoms: N_17  and  C_18
REMARK    5  A    between atoms: C_19  and  C_28
REMARK                            x       y       z     vdW  Elec       q    Type
REMARK                         _______ _______ _______ _____ _____    ______ ____
ROOT
ATOM      1  C   UNL     1       1.495   8.580   0.035  0.00  0.00    +0.284 C 
ATOM      2  O   UNL     1       1.019   9.700   0.046  0.00  0.00    -0.266 OA
ATOM      3  N   UNL     1       2.833   8.416   0.022  0.00  0.00    -0.273 N 
ATOM      4  H   UNL     1       3.212   7.524   0.014  0.00  0.00    +0.156 HD
ENDROOT
BRANCH   3   5
ATOM      5  C   UNL     1       3.666   9.523   0.021  0.00  0.00    +0.085 A 
ATOM      6  C   UNL     1       5.052   9.559   0.015  0.00  0.00    +0.068 A 
ATOM      7  C   UNL     1       5.696  10.865   0.009  0.00  0.00    -0.023 A 
ATOM      8  C   UNL     1       4.850  11.917   0.027  0.00  0.00    -0.004 A 
ATOM      9  S   UNL     1       3.230  11.199   0.036  0.00  0.00    -0.077 S 
ATOM     10  C   UNL     1       5.199  13.372   0.050  0.00  0.00    +0.043 C 
ATOM     11  C   UNL     1       6.245  13.660  -1.035  0.00  0.00    +0.005 C 
ATOM     12  C   UNL     1       7.632  13.467  -0.431  0.00  0.00    +0.001 C 
ATOM     13  C   UNL     1       7.599  12.361   0.621  0.00  0.00    +0.005 C 
ATOM     14  C   UNL     1       7.210  11.031  -0.017  0.00  0.00    +0.037 C 
BRANCH   6  15
ATOM     15  C   UNL     1       5.842   8.324   0.011  0.00  0.00    +0.244 C 
ATOM     16  O   UNL     1       6.165   7.811  -1.044  0.00  0.00    -0.270 OA
ATOM     17  N   UNL     1       6.210   7.756   1.177  0.00  0.00    -0.325 N 
ATOM     18  H   UNL     1       5.952   8.164   2.018  0.00  0.00    +0.145 HD
ATOM     19  H   UNL     1       6.733   6.939   1.174  0.00  0.00    +0.145 HD
ENDBRANCH   6  15
ENDBRANCH   3   5
BRANCH   1  23
ATOM     20  C   UNL     1      -0.070   5.322   0.031  0.00  0.00    +0.136 A 
ATOM     21  C   UNL     1      -1.190   6.103   0.040  0.00  0.00    +0.050 A 
ATOM     22  C   UNL     1      -0.763   7.434   0.049  0.00  0.00    +0.055 A 
ATOM     23  C   UNL     1       0.615   7.410   0.036  0.00  0.00    +0.190 A 
ATOM     24  O   UNL     1       1.011   6.120   0.026  0.00  0.00    -0.450 OA
BRANCH  20  27
ATOM     25  C   UNL     1      -1.222   1.748   0.017  0.00  0.00    +0.003 A 
ATOM     26  C   UNL     1      -1.248   3.127   0.030  0.00  0.00    +0.012 A 
ATOM     27  C   UNL     1      -0.050   3.845   0.023  0.00  0.00    +0.019 A 
ATOM     28  C   UNL     1       1.167   3.160   0.008  0.00  0.00    +0.044 A 
ATOM     29  C   UNL     1       1.178   1.781   0.000  0.00  0.00    +0.127 A 
ATOM     30  C   UNL     1      -0.013   1.076   0.008  0.00  0.00    +0.033 A 
BRANCH  29  31
ATOM     31  N   UNL     1       2.467   1.053  -0.015  0.00  0.00    +0.056 N 
ATOM     32  O   UNL     1       2.479  -0.165  -0.022  0.00  0.00    -0.126 OA
ATOM     33  O   UNL     1       3.516   1.672  -0.022  0.00  0.00    -0.126 OA
ENDBRANCH  29  31
ENDBRANCH  20  27
ENDBRANCH   1  23
TORSDOF 5
