REMARK  Name = ZINC41001296
REMARK  15 active torsions:
REMARK  status: ('A' for Active; 'I' for Inactive)
REMARK    1  A    between atoms: C_1  and  C_2
REMARK    2  A    between atoms: C_2  and  C_3
REMARK    3  A    between atoms: C_3  and  C_4
REMARK    4  A    between atoms: C_4  and  S_5
REMARK    5  A    between atoms: S_5  and  C_6
REMARK    6  A    between atoms: C_11  and  C_22
REMARK    7  A    between atoms: C_13  and  C_17
REMARK    8  A    between atoms: C_14  and  C_16
REMARK    9  A    between atoms: C_17  and  O_19
REMARK   10  A    between atoms: O_19  and  C_20
REMARK   11  A    between atoms: C_20  and  C_21
REMARK   12  A    between atoms: C_27  and  O_28
REMARK   13  A    between atoms: O_28  and  C_29
REMARK   14  A    between atoms: C_29  and  C_30
REMARK   15  A    between atoms: C_30  and  C_31
REMARK                            x       y       z     vdW  Elec       q    Type
REMARK                         _______ _______ _______ _____ _____    ______ ____
ROOT
ATOM      1  C   UNL     1       1.841  -4.398   2.150  0.00  0.00    +0.210 A 
ATOM      2  N   UNL     1       1.227  -5.145   1.220  0.00  0.00    -0.187 NA
ATOM      3  C   UNL     1       1.252  -6.399   1.582  0.00  0.00    +0.219 A 
ATOM      4  N   UNL     1       1.900  -6.482   2.770  0.00  0.00    -0.220 N 
ATOM      5  N   UNL     1       2.270  -5.183   3.115  0.00  0.00    -0.141 NA
ATOM      6  C   UNL     1       2.129  -7.738   3.479  0.00  0.00    +0.183 C 
ATOM      7  C   UNL     1       1.298  -8.826   2.853  0.00  0.00    +0.082 C 
ATOM      8  C   UNL     1       0.674  -8.684   1.673  0.00  0.00    +0.020 C 
ATOM      9  N   UNL     1       0.741  -7.522   0.946  0.00  0.00    -0.287 N 
ATOM     10  C   UNL     1      -0.124  -9.840   1.128  0.00  0.00    +0.061 C 
ATOM     11  H   UNL     1       0.442  -7.487   0.024  0.00  0.00    +0.155 HD
ENDROOT
BRANCH   6  12
ATOM     12  C   UNL     1       3.588  -8.107   3.389  0.00  0.00    +0.024 A 
ATOM     13  C   UNL     1       4.177  -8.303   2.155  0.00  0.00    +0.025 A 
ATOM     14  C   UNL     1       5.516  -8.641   2.072  0.00  0.00    +0.018 A 
ATOM     15  C   UNL     1       6.268  -8.783   3.225  0.00  0.00    +0.019 A 
ATOM     16  C   UNL     1       5.683  -8.588   4.461  0.00  0.00    +0.047 A 
ATOM     17  C   UNL     1       4.341  -8.243   4.546  0.00  0.00    +0.126 A 
ATOM     18 BR   UNL     1       6.319  -8.909   0.382  0.00  0.00    -0.050 Br
BRANCH  17  19
ATOM     19  O   UNL     1       3.765  -8.046   5.761  0.00  0.00    -0.492 OA
BRANCH  19  20
ATOM     20  C   UNL     1       4.601  -8.204   6.909  0.00  0.00    +0.229 C 
BRANCH  20  21
ATOM     21  C   UNL     1       3.783  -7.944   8.175  0.00  0.00    +0.038 C 
ATOM     22  C   UNL     1       4.679  -8.113   9.404  0.00  0.00    +0.007 C 
ENDBRANCH  20  21
ENDBRANCH  19  20
ENDBRANCH  17  19
ENDBRANCH   6  12
BRANCH   7  23
ATOM     23  C   UNL     1       1.167 -10.053   3.541  0.00  0.00    +0.339 C 
ATOM     24  O   UNL     1       0.363 -10.160   4.448  0.00  0.00    -0.245 OA
BRANCH  23  25
ATOM     25  O   UNL     1       1.934 -11.108   3.191  0.00  0.00    -0.462 OA
BRANCH  25  26
ATOM     26  C   UNL     1       1.749 -12.318   3.928  0.00  0.00    +0.229 C 
ATOM     27  C   UNL     1       2.697 -13.392   3.392  0.00  0.00    +0.048 C 
ENDBRANCH  25  26
ENDBRANCH  23  25
ENDBRANCH   7  23
BRANCH   1  28
ATOM     28  S   UNL     1       2.046  -2.650   2.087  0.00  0.00    -0.084 S 
BRANCH  28  29
ATOM     29  C   UNL     1       1.245  -2.170   0.531  0.00  0.00    +0.077 C 
BRANCH  29  30
ATOM     30  C   UNL     1       1.351  -0.655   0.348  0.00  0.00    +0.011 C 
BRANCH  30  32
ATOM     31  C   UNL     1       0.782   1.265  -1.146  0.00  0.00    +0.004 C 
ATOM     32  C   UNL     1       0.675  -0.251  -0.963  0.00  0.00    -0.003 C 
ENDBRANCH  30  32
ENDBRANCH  29  30
ENDBRANCH  28  29
ENDBRANCH   1  28
TORSDOF 11
