REMARK  Name = ZINC12359973
REMARK  9 active torsions:
REMARK  status: ('A' for Active; 'I' for Inactive)
REMARK    1  A    between atoms: C_1  and  C_2
REMARK    2  A    between atoms: C_5  and  N_9
REMARK    3  A    between atoms: C_6  and  C_8
REMARK    4  A    between atoms: C_10  and  C_12
REMARK    5  A    between atoms: C_20  and  N_23
REMARK    6  A    between atoms: C_21  and  O_22
REMARK    7  A    between atoms: N_24  and  C_25
REMARK    8  A    between atoms: C_27  and  S_32
REMARK    9  A    between atoms: C_30  and  O_31
REMARK                            x       y       z     vdW  Elec       q    Type
REMARK                         _______ _______ _______ _____ _____    ______ ____
ROOT
ATOM      1  C   UNL     1       1.814   0.297  -1.224  0.00  0.00    +0.081 A 
ATOM      2  C   UNL     1       2.849   1.151  -1.567  0.00  0.00    +0.025 A 
ATOM      3  C   UNL     1       3.510   1.903  -0.585  0.00  0.00    -0.015 A 
ATOM      4  C   UNL     1       4.562   2.773  -0.923  0.00  0.00    +0.008 A 
ATOM      5  C   UNL     1       5.185   3.489   0.054  0.00  0.00    +0.001 A 
ATOM      6  C   UNL     1       4.795   3.373   1.386  0.00  0.00    +0.001 A 
ATOM      7  C   UNL     1       3.778   2.540   1.749  0.00  0.00    +0.011 A 
ATOM      8  C   UNL     1       3.115   1.789   0.772  0.00  0.00    +0.013 A 
ATOM      9  C   UNL     1       2.018   0.888   1.124  0.00  0.00    +0.136 A 
ATOM     10  C   UNL     1       1.396   0.157   0.112  0.00  0.00    +0.157 A 
ENDROOT
BRANCH   1  12
ATOM     11  N   UNL     1       1.599  -0.442  -3.546  0.00  0.00    -0.281 N 
ATOM     12  C   UNL     1       1.138  -0.482  -2.280  0.00  0.00    +0.252 C 
ATOM     13  O   UNL     1       0.166  -1.159  -2.007  0.00  0.00    -0.270 OA
ATOM     14  H   UNL     1       2.407   0.052  -3.753  0.00  0.00    +0.155 HD
BRANCH  11  19
ATOM     15  C   UNL     1      -1.193  -3.165  -7.666  0.00  0.00    +0.044 C 
ATOM     16  C   UNL     1      -0.451  -2.442  -6.571  0.00  0.00    -0.050 A 
ATOM     17  C   UNL     1      -1.087  -2.161  -5.375  0.00  0.00    +0.005 A 
ATOM     18  C   UNL     1      -0.411  -1.498  -4.371  0.00  0.00    +0.024 A 
ATOM     19  C   UNL     1       0.910  -1.113  -4.562  0.00  0.00    +0.037 A 
ATOM     20  C   UNL     1       1.545  -1.392  -5.765  0.00  0.00    -0.029 A 
ATOM     21  C   UNL     1       0.864  -2.060  -6.764  0.00  0.00    +0.008 A 
ATOM     22  C   UNL     1       2.976  -0.972  -5.979  0.00  0.00    +0.045 C 
ENDBRANCH  11  19
ENDBRANCH   1  12
BRANCH  10  23
ATOM     23  O   UNL     1       0.381  -0.688   0.416  0.00  0.00    -0.504 OA
ATOM     24  H   UNL     1       0.657  -1.605   0.545  0.00  0.00    +0.292 HD
ENDBRANCH  10  23
BRANCH   9  25
ATOM     25  N   UNL     1       1.615   0.762   2.416  0.00  0.00    -0.145 NA
ATOM     26  N   UNL     1       0.374   0.934   2.724  0.00  0.00    -0.145 NA
BRANCH  26  27
ATOM     27  C   UNL     1      -0.497   1.430   1.798  0.00  0.00    +0.129 A 
ATOM     28  C   UNL     1      -0.072   2.391   0.876  0.00  0.00    +0.062 A 
ATOM     29  C   UNL     1      -0.955   2.883  -0.060  0.00  0.00    +0.122 A 
ATOM     30  C   UNL     1      -2.267   2.437  -0.086  0.00  0.00    +0.033 A 
ATOM     31  C   UNL     1      -2.701   1.491   0.823  0.00  0.00    +0.049 A 
ATOM     32  C   UNL     1      -1.826   0.981   1.768  0.00  0.00    +0.144 A 
BRANCH  29  33
ATOM     33  S   UNL     1      -0.417   4.091  -1.225  0.00  0.00    +0.140 S 
ATOM     34  O   UNL     1       0.972   3.868  -1.428  0.00  0.00    -0.140 OA
ATOM     35  O   UNL     1      -1.355   4.072  -2.292  0.00  0.00    -0.140 OA
ATOM     36  O   UNL     1      -0.546   5.451  -0.555  0.00  0.00    -0.043 OA
ENDBRANCH  29  33
BRANCH  32  37
ATOM     37  O   UNL     1      -2.252   0.052   2.662  0.00  0.00    -0.505 OA
ATOM     38  H   UNL     1      -2.605   0.426   3.480  0.00  0.00    +0.292 HD
ENDBRANCH  32  37
ENDBRANCH  26  27
ENDBRANCH   9  25
TORSDOF 7
