REMARK  Name = ZINC37835208
REMARK  4 active torsions:
REMARK  status: ('A' for Active; 'I' for Inactive)
REMARK    1  A    between atoms: C_1  and  C_2
REMARK    2  A    between atoms: C_6  and  C_20
REMARK    3  A    between atoms: C_10  and  C_12
REMARK    4  A    between atoms: C_15  and  C_17
REMARK                            x       y       z     vdW  Elec       q    Type
REMARK                         _______ _______ _______ _____ _____    ______ ____
ROOT
ATOM      1  C   UNL     1       1.183   3.611   0.952  0.00  0.00    +0.028 C 
ATOM      2  C   UNL     1       0.524   2.259   0.669  0.00  0.00    +0.073 C 
ATOM      3  C   UNL     1      -0.987   2.367   0.897  0.00  0.00    +0.023 C 
ATOM      4  C   UNL     1      -1.621   0.982   0.749  0.00  0.00    +0.016 C 
ATOM      5  C   UNL     1      -1.040   0.037   1.803  0.00  0.00    +0.092 C 
ATOM      6  C   UNL     1       0.470  -0.097   1.585  0.00  0.00    +0.120 C 
ATOM      7  N   UNL     1       1.071   1.244   1.580  0.00  0.00    -0.298 N 
ATOM      8  C   UNL     1       2.102   1.539   2.397  0.00  0.00    +0.220 C 
ATOM      9  O   UNL     1       2.527   2.674   2.452  0.00  0.00    -0.275 OA
ENDROOT
BRANCH   5  10
ATOM     10  C   UNL     1      -1.689  -1.317   1.677  0.00  0.00    +0.215 C 
ATOM     11  O   UNL     1      -1.012  -2.294   1.440  0.00  0.00    -0.276 OA
ATOM     12  N   UNL     1      -3.023  -1.442   1.828  0.00  0.00    -0.329 N 
ATOM     13  H   UNL     1      -3.565  -0.660   2.018  0.00  0.00    +0.145 HD
ATOM     14  H   UNL     1      -3.441  -2.313   1.748  0.00  0.00    +0.145 HD
ENDBRANCH   5  10
BRANCH   8  15
ATOM     15  C   UNL     1       2.726   0.459   3.242  0.00  0.00    +0.090 C 
ATOM     16  C   UNL     1       4.150   0.694   3.751  0.00  0.00    +0.029 C 
ATOM     17  C   UNL     1       3.893  -0.326   2.638  0.00  0.00    +0.115 C 
BRANCH  17  18
ATOM     18  C   UNL     1       4.329   0.042   1.243  0.00  0.00    +0.360 C 
ATOM     19  O   UNL     1       5.427   0.538   1.059  0.00  0.00    -0.246 OA
ATOM     20  O   UNL     1       3.585  -0.158   0.298  0.00  0.00    -0.246 OA
ENDBRANCH  17  18
ENDBRANCH   8  15
TORSDOF 3
