REMARK  Name = ZINC23181263
REMARK  9 active torsions:
REMARK  status: ('A' for Active; 'I' for Inactive)
REMARK    1  A    between atoms: C_1  and  C_2
REMARK    2  A    between atoms: C_2  and  C_4
REMARK    3  A    between atoms: C_2  and  N_24
REMARK    4  A    between atoms: C_4  and  C_6
REMARK    5  A    between atoms: C_4  and  N_11
REMARK    6  A    between atoms: N_14  and  C_17
REMARK    7  A    between atoms: C_17  and  C_18
REMARK    8  A    between atoms: C_25  and  C_27
REMARK    9  A    between atoms: C_30  and  N_33
REMARK                            x       y       z     vdW  Elec       q    Type
REMARK                         _______ _______ _______ _____ _____    ______ ____
ROOT
ATOM      1  C   UNL     1       2.566  -1.518  -0.025  0.00  0.00    +0.113 C 
ENDROOT
BRANCH   1   2
ATOM      2  N   UNL     1       2.068  -2.666  -0.795  0.00  0.00    -0.297 NA
ATOM      3  C   UNL     1       2.268  -2.460  -2.236  0.00  0.00    +0.066 C 
ATOM      4  C   UNL     1       1.810  -3.708  -2.995  0.00  0.00    -0.063 C 
ATOM      5  N   UNL     1       0.396  -3.970  -2.694  0.00  0.00    +0.384 N 
ATOM      6  C   UNL     1       0.197  -4.176  -1.252  0.00  0.00    -0.063 C 
ATOM      7  C   UNL     1       0.654  -2.928  -0.494  0.00  0.00    +0.066 C 
ATOM      8  H   UNL     1      -0.185  -3.086  -2.994  0.00  0.00    -0.081 HD
BRANCH   5   9
ATOM      9  C   UNL     1      -0.102  -5.119  -3.463  0.00  0.00    -0.043 C 
BRANCH   9  10
ATOM     10  C   UNL     1      -0.109  -4.775  -4.930  0.00  0.00    -0.064 A 
ATOM     11  C   UNL     1      -1.232  -4.207  -5.502  0.00  0.00    +0.002 A 
ATOM     12  C   UNL     1      -1.236  -3.887  -6.847  0.00  0.00    +0.000 A 
ATOM     13  C   UNL     1      -0.121  -4.145  -7.622  0.00  0.00    +0.000 A 
ATOM     14  C   UNL     1       1.000  -4.719  -7.052  0.00  0.00    +0.000 A 
ATOM     15  C   UNL     1       1.006  -5.034  -5.706  0.00  0.00    +0.002 A 
ENDBRANCH   9  10
ENDBRANCH   5   9
ENDBRANCH   1   2
BRANCH   1  16
ATOM     16  C   UNL     1       1.779  -0.287  -0.393  0.00  0.00    +0.009 A 
ATOM     17  C   UNL     1       2.221   0.888  -0.906  0.00  0.00    +0.013 A 
ATOM     18  C   UNL     1       1.306   1.891  -1.168  0.00  0.00    +0.008 A 
ATOM     19  C   UNL     1      -0.005   1.670  -0.905  0.00  0.00    +0.045 A 
ATOM     20  S   UNL     1       0.022   0.003  -0.267  0.00  0.00    -0.100 S 
ENDBRANCH   1  16
BRANCH   1  22
ATOM     21  C   UNL     1       3.096  -3.118   1.819  0.00  0.00    +0.030 C 
ATOM     22  C   UNL     1       2.406  -1.798   1.470  0.00  0.00    +0.092 C 
BRANCH  22  23
ATOM     23  N   UNL     1       3.015  -0.710   2.239  0.00  0.00    -0.307 N 
ATOM     24  C   UNL     1       2.592  -0.451   3.492  0.00  0.00    +0.244 C 
ATOM     25  O   UNL     1       1.705  -1.120   3.985  0.00  0.00    -0.270 OA
ATOM     26  H   UNL     1       3.818  -0.104   1.793  0.00  0.00    +0.149 HD
BRANCH  24  27
ATOM     27  C   UNL     1       3.207   0.647   4.268  0.00  0.00    +0.037 A 
ATOM     28  C   UNL     1       4.230   1.414   3.708  0.00  0.00    +0.015 A 
ATOM     29  C   UNL     1       4.796   2.441   4.435  0.00  0.00    +0.033 A 
ATOM     30  C   UNL     1       4.359   2.704   5.721  0.00  0.00    +0.126 A 
ATOM     31  C   UNL     1       3.350   1.944   6.284  0.00  0.00    +0.033 A 
ATOM     32  C   UNL     1       2.772   0.918   5.566  0.00  0.00    +0.015 A 
BRANCH  30  33
ATOM     33  N   UNL     1       4.975   3.804   6.497  0.00  0.00    +0.056 N 
ATOM     34  O   UNL     1       4.592   4.038   7.630  0.00  0.00    -0.126 OA
ATOM     35  O   UNL     1       5.864   4.475   6.004  0.00  0.00    -0.126 OA
ENDBRANCH  30  33
ENDBRANCH  24  27
ENDBRANCH  22  23
ENDBRANCH   1  22
TORSDOF 8
