REMARK  Name = ZINC58961279
REMARK  10 active torsions:
REMARK  status: ('A' for Active; 'I' for Inactive)
REMARK    1  A    between atoms: C_1  and  C_2
REMARK    2  A    between atoms: C_5  and  C_8
REMARK    3  A    between atoms: C_10  and  C_34
REMARK    4  A    between atoms: C_12  and  S_14
REMARK    5  A    between atoms: S_14  and  C_15
REMARK    6  A    between atoms: C_15  and  C_17
REMARK    7  A    between atoms: C_15  and  C_18
REMARK    8  A    between atoms: N_24  and  C_26
REMARK    9  A    between atoms: C_26  and  C_27
REMARK   10  A    between atoms: C_32  and  C_33
REMARK                            x       y       z     vdW  Elec       q    Type
REMARK                         _______ _______ _______ _____ _____    ______ ____
ROOT
ATOM      1  C   UNL     1       0.121  -8.850  -2.264  0.00  0.00    +0.137 C 
ATOM      2  C   UNL     1       1.433  -9.170  -1.545  0.00  0.00    +0.029 C 
ENDROOT
BRANCH   1   3
ATOM      3  C   UNL     1       0.008  -9.698  -3.505  0.00  0.00    +0.231 C 
ATOM      4  O   UNL     1       0.367  -9.256  -4.576  0.00  0.00    -0.274 OA
ATOM      5  N   UNL     1      -0.491 -10.947  -3.425  0.00  0.00    -0.268 N 
ATOM      6  C   UNL     1      -0.596 -11.736  -4.579  0.00  0.00    +0.147 A 
ATOM      7  C   UNL     1      -0.215 -11.354  -5.876  0.00  0.00    +0.065 A 
ATOM      8  C   UNL     1      -0.475 -12.390  -6.706  0.00  0.00    +0.110 A 
ATOM      9  N   UNL     1      -0.999 -13.390  -5.968  0.00  0.00    -0.265 N 
ATOM     10  N   UNL     1      -1.061 -12.961  -4.636  0.00  0.00    -0.156 NA
ATOM     11  H   UNL     1      -0.778 -11.301  -2.568  0.00  0.00    +0.156 HD
BRANCH   9  12
ATOM     12  C   UNL     1      -1.424 -14.699  -6.470  0.00  0.00    +0.178 C 
BRANCH  12  13
ATOM     13  C   UNL     1      -0.721 -15.786  -5.699  0.00  0.00    -0.023 A 
ATOM     14  C   UNL     1       0.447 -16.338  -6.191  0.00  0.00    +0.006 A 
ATOM     15  C   UNL     1       1.092 -17.335  -5.484  0.00  0.00    +0.000 A 
ATOM     16  C   UNL     1       0.569 -17.780  -4.284  0.00  0.00    +0.000 A 
ATOM     17  C   UNL     1      -0.598 -17.227  -3.791  0.00  0.00    +0.004 A 
ATOM     18  C   UNL     1      -1.241 -16.227  -4.497  0.00  0.00    -0.046 A 
ATOM     19  C   UNL     1      -2.510 -15.621  -3.957  0.00  0.00    +0.044 C 
ENDBRANCH  12  13
ENDBRANCH   9  12
ENDBRANCH   1   3
BRANCH   1  20
ATOM     20  S   UNL     1       0.097  -7.096  -2.726  0.00  0.00    -0.074 S 
BRANCH  20  25
ATOM     21  C   UNL     1       0.060  -4.255  -0.021  0.00  0.00    +0.076 A 
ATOM     22  C   UNL     1       0.070  -4.971   1.179  0.00  0.00    +0.060 A 
ATOM     23  C   UNL     1       0.088  -6.354   1.122  0.00  0.00    +0.148 A 
ATOM     24  N   UNL     1       0.096  -6.953  -0.058  0.00  0.00    -0.218 NA
ATOM     25  C   UNL     1       0.086  -6.249  -1.181  0.00  0.00    +0.190 A 
ATOM     26  N   UNL     1       0.063  -4.925  -1.172  0.00  0.00    -0.222 NA
BRANCH  21  31
ATOM     27  C   UNL     1      -0.018   1.503   0.010  0.00  0.00    +0.044 C 
ATOM     28  C   UNL     1       0.002  -0.004   0.002  0.00  0.00    -0.050 A 
ATOM     29  C   UNL     1       0.006  -0.686  -1.201  0.00  0.00    +0.004 A 
ATOM     30  C   UNL     1       0.024  -2.066  -1.215  0.00  0.00    +0.010 A 
ATOM     31  C   UNL     1       0.040  -2.772  -0.013  0.00  0.00    +0.001 A 
ATOM     32  C   UNL     1       0.037  -2.079   1.196  0.00  0.00    +0.010 A 
ATOM     33  C   UNL     1       0.023  -0.699   1.198  0.00  0.00    +0.004 A 
ENDBRANCH  21  31
BRANCH  23  34
ATOM     34  C   UNL     1       0.100  -7.168   2.390  0.00  0.00    +0.434 C 
ATOM     35  F   UNL     1      -1.215  -7.437   2.783  0.00  0.00    -0.164 F 
ATOM     36  F   UNL     1       0.775  -8.372   2.164  0.00  0.00    -0.164 F 
ATOM     37  F   UNL     1       0.751  -6.450   3.399  0.00  0.00    -0.164 F 
ENDBRANCH  23  34
ENDBRANCH  20  25
ENDBRANCH   1  20
TORSDOF 7
