REMARK  Name = ZINC38903522
REMARK  14 active torsions:
REMARK  status: ('A' for Active; 'I' for Inactive)
REMARK    1  A    between atoms: C_1  and  C_2
REMARK    2  A    between atoms: C_2  and  C_3
REMARK    3  A    between atoms: C_3  and  C_5
REMARK    4  A    between atoms: C_3  and  N_13
REMARK    5  A    between atoms: C_8  and  O_11
REMARK    6  A    between atoms: O_11  and  C_12
REMARK    7  A    between atoms: C_14  and  C_16
REMARK    8  A    between atoms: N_21  and  C_23
REMARK    9  A    between atoms: C_23  and  C_24
REMARK   10  A    between atoms: C_26  and  C_29
REMARK   11  A    between atoms: C_32  and  C_35
REMARK   12  A    between atoms: C_35  and  C_36
REMARK   13  A    between atoms: C_35  and  C_37
REMARK   14  A    between atoms: C_35  and  C_38
REMARK                            x       y       z     vdW  Elec       q    Type
REMARK                         _______ _______ _______ _____ _____    ______ ____
ROOT
ATOM      1  C   UNL     1       3.934   1.552  -1.591  0.00  0.00    +0.058 C 
ATOM      2  C   UNL     1       4.431   1.509  -0.143  0.00  0.00    +0.009 C 
ATOM      3  C   UNL     1       5.877   2.010  -0.094  0.00  0.00    -0.018 C 
ATOM      4  C   UNL     1       5.943   3.418  -0.688  0.00  0.00    -0.078 C 
ATOM      5  N   UNL     1       5.481   3.388  -2.081  0.00  0.00    +0.386 N 
ATOM      6  C   UNL     1       4.073   2.977  -2.131  0.00  0.00    -0.065 C 
ATOM      7  H   UNL     1       6.040   2.732  -2.606  0.00  0.00    -0.081 HD
ENDROOT
BRANCH   1   9
ATOM      8  N   UNL     1       2.125  -0.091  -1.209  0.00  0.00    -0.308 N 
ATOM      9  C   UNL     1       2.487   1.134  -1.640  0.00  0.00    +0.215 C 
ATOM     10  O   UNL     1       1.649   1.899  -2.066  0.00  0.00    -0.276 OA
ATOM     11  H   UNL     1       2.795  -0.703  -0.868  0.00  0.00    +0.149 HD
BRANCH   8  12
ATOM     12  C   UNL     1       0.718  -0.497  -1.257  0.00  0.00    +0.103 C 
BRANCH  12  13
ATOM     13  C   UNL     1       0.632  -2.000  -1.327  0.00  0.00    -0.027 A 
ATOM     14  C   UNL     1       1.489  -2.777  -0.570  0.00  0.00    +0.009 A 
ATOM     15  C   UNL     1       1.412  -4.155  -0.634  0.00  0.00    +0.046 A 
ATOM     16  C   UNL     1       0.473  -4.759  -1.458  0.00  0.00    +0.120 A 
ATOM     17  C   UNL     1      -0.386  -3.977  -2.216  0.00  0.00    +0.046 A 
ATOM     18  C   UNL     1      -0.308  -2.600  -2.145  0.00  0.00    +0.009 A 
BRANCH  16  19
ATOM     19  O   UNL     1       0.396  -6.114  -1.522  0.00  0.00    -0.495 OA
ATOM     20  C   UNL     1      -0.595  -6.667  -2.392  0.00  0.00    +0.277 C 
ENDBRANCH  16  19
ENDBRANCH  12  13
BRANCH  12  22
ATOM     21  C   UNL     1      -0.019   1.526   0.010  0.00  0.00    +0.006 C 
ATOM     22  C   UNL     1       0.002  -0.004   0.002  0.00  0.00    +0.024 C 
ENDBRANCH  12  22
ENDBRANCH   8  12
ENDBRANCH   1   9
BRANCH   5  23
ATOM     23  C   UNL     1       5.620   4.726  -2.671  0.00  0.00    +0.022 C 
BRANCH  23  24
ATOM     24  C   UNL     1       7.080   5.094  -2.743  0.00  0.00    +0.211 A 
ATOM     25  N   UNL     1       7.877   4.854  -3.744  0.00  0.00    -0.193 NA
ATOM     26  C   UNL     1       9.110   5.318  -3.473  0.00  0.00    +0.202 A 
ATOM     27  N   UNL     1       9.100   5.862  -2.281  0.00  0.00    -0.056 NA
ATOM     28  O   UNL     1       7.774   5.729  -1.790  0.00  0.00    -0.340 OA
BRANCH  26  29
ATOM     29  C   UNL     1      10.287   5.228  -4.372  0.00  0.00    +0.022 A 
ATOM     30  C   UNL     1      10.166   4.625  -5.623  0.00  0.00    +0.012 A 
ATOM     31  C   UNL     1      11.264   4.544  -6.456  0.00  0.00    +0.005 A 
ATOM     32  C   UNL     1      12.482   5.059  -6.051  0.00  0.00    -0.042 A 
ATOM     33  C   UNL     1      12.608   5.657  -4.811  0.00  0.00    +0.005 A 
ATOM     34  C   UNL     1      11.515   5.750  -3.972  0.00  0.00    +0.012 A 
BRANCH  32  35
ATOM     35  C   UNL     1      13.677   4.966  -6.965  0.00  0.00    -0.013 C 
ATOM     36  C   UNL     1      13.379   5.703  -8.271  0.00  0.00    +0.015 C 
ATOM     37  C   UNL     1      14.890   5.604  -6.284  0.00  0.00    +0.015 C 
ATOM     38  C   UNL     1      13.976   3.496  -7.266  0.00  0.00    +0.015 C 
ENDBRANCH  32  35
ENDBRANCH  26  29
ENDBRANCH  23  24
ENDBRANCH   5  23
TORSDOF 9
