REMARK  Name = ZINC57316660
REMARK  7 active torsions:
REMARK  status: ('A' for Active; 'I' for Inactive)
REMARK    1  A    between atoms: C_4  and  C_7
REMARK    2  A    between atoms: C_10  and  C_12
REMARK    3  A    between atoms: C_13  and  C_14
REMARK    4  A    between atoms: N_16  and  C_17
REMARK    5  A    between atoms: C_17  and  N_19
REMARK    6  A    between atoms: N_19  and  C_20
REMARK    7  A    between atoms: C_21  and  C_28
REMARK                            x       y       z     vdW  Elec       q    Type
REMARK                         _______ _______ _______ _____ _____    ______ ____
ROOT
ATOM      1  C   UNL     1       9.145   0.626  -0.068  0.00  0.00    +0.242 C 
ATOM      2  O   UNL     1       9.907  -0.324  -0.082  0.00  0.00    -0.270 OA
ATOM      3  N   UNL     1       9.633   1.882  -0.060  0.00  0.00    -0.264 N 
ATOM      4  H   UNL     1       9.026   2.639  -0.048  0.00  0.00    +0.157 HD
ENDROOT
BRANCH   1   6
ATOM      5  C   UNL     1       7.255  -0.855  -0.067  0.00  0.00    +0.051 C 
ATOM      6  C   UNL     1       7.748   0.411  -0.059  0.00  0.00    +0.071 C 
BRANCH   5  10
ATOM      7  C   UNL     1       3.694  -0.683  -0.037  0.00  0.00    +0.136 A 
ATOM      8  C   UNL     1       3.854  -2.050  -0.052  0.00  0.00    +0.050 A 
ATOM      9  C   UNL     1       5.228  -2.300  -0.065  0.00  0.00    +0.050 A 
ATOM     10  C   UNL     1       5.859  -1.070  -0.059  0.00  0.00    +0.129 A 
ATOM     11  O   UNL     1       4.911  -0.110  -0.047  0.00  0.00    -0.455 OA
BRANCH   7  15
ATOM     12  C   UNL     1      -0.017   1.380   0.010  0.00  0.00    +0.000 A 
ATOM     13  C   UNL     1       1.168   2.094   0.002  0.00  0.00    +0.001 A 
ATOM     14  C   UNL     1       2.377   1.431  -0.013  0.00  0.00    +0.011 A 
ATOM     15  C   UNL     1       2.404   0.034  -0.021  0.00  0.00    +0.017 A 
ATOM     16  C   UNL     1       1.204  -0.681  -0.013  0.00  0.00    +0.011 A 
ATOM     17  C   UNL     1       0.002  -0.004   0.002  0.00  0.00    +0.001 A 
ENDBRANCH   7  15
ENDBRANCH   5  10
ENDBRANCH   1   6
BRANCH   3  18
ATOM     18  C   UNL     1      10.965   2.087  -0.068  0.00  0.00    +0.141 C 
ATOM     19  S   UNL     1      12.037   0.752  -0.088  0.00  0.00    -0.018 S 
BRANCH  18  20
ATOM     20  N   UNL     1      11.454   3.343  -0.060  0.00  0.00    -0.291 N 
ATOM     21  H   UNL     1      10.847   4.099  -0.048  0.00  0.00    +0.154 HD
BRANCH  20  22
ATOM     22  C   UNL     1      12.823   3.554  -0.068  0.00  0.00    +0.084 A 
ATOM     23  C   UNL     1      13.498   4.761  -0.057  0.00  0.00    +0.068 A 
ATOM     24  C   UNL     1      14.960   4.711  -0.070  0.00  0.00    -0.023 A 
ATOM     25  C   UNL     1      15.466   3.466  -0.093  0.00  0.00    -0.004 A 
ATOM     26  S   UNL     1      14.044   2.404  -0.088  0.00  0.00    -0.077 S 
ATOM     27  C   UNL     1      16.970   3.472  -0.110  0.00  0.00    +0.043 C 
ATOM     28  C   UNL     1      17.350   4.910  -0.527  0.00  0.00    +0.010 C 
ATOM     29  C   UNL     1      16.116   5.709  -0.061  0.00  0.00    +0.037 C 
BRANCH  23  30
ATOM     30  C   UNL     1      12.778   6.037  -0.033  0.00  0.00    +0.244 C 
ATOM     31  O   UNL     1      12.488   6.553   1.031  0.00  0.00    -0.270 OA
ATOM     32  N   UNL     1      12.437   6.641  -1.189  0.00  0.00    -0.325 N 
ATOM     33  H   UNL     1      12.668   6.230  -2.037  0.00  0.00    +0.145 HD
ATOM     34  H   UNL     1      11.961   7.485  -1.173  0.00  0.00    +0.145 HD
ENDBRANCH  23  30
ENDBRANCH  20  22
ENDBRANCH  18  20
ENDBRANCH   3  18
TORSDOF 7
