REMARK  Name = ZINC30978865
REMARK  9 active torsions:
REMARK  status: ('A' for Active; 'I' for Inactive)
REMARK    1  A    between atoms: C_4  and  S_7
REMARK    2  A    between atoms: S_7  and  C_8
REMARK    3  A    between atoms: C_8  and  C_9
REMARK    4  A    between atoms: C_9  and  C_10
REMARK    5  A    between atoms: C_10  and  N_11
REMARK    6  A    between atoms: C_12  and  C_14
REMARK    7  A    between atoms: N_17  and  C_20
REMARK    8  A    between atoms: C_20  and  C_21
REMARK    9  A    between atoms: C_23  and  C_26
REMARK                            x       y       z     vdW  Elec       q    Type
REMARK                         _______ _______ _______ _____ _____    ______ ____
ROOT
ATOM      1  C   UNL     1       0.606  -2.171  -1.026  0.00  0.00    +0.071 C 
ATOM      2  C   UNL     1       1.353  -2.680   0.210  0.00  0.00    -0.006 C 
ATOM      3  C   UNL     1       1.423  -4.208   0.165  0.00  0.00    -0.077 C 
ATOM      4  N   UNL     1       2.118  -4.631  -1.058  0.00  0.00    +0.386 N 
ATOM      5  C   UNL     1       1.393  -4.195  -2.259  0.00  0.00    -0.077 C 
ATOM      6  C   UNL     1       1.322  -2.667  -2.286  0.00  0.00    -0.006 C 
ATOM      7  H   UNL     1       3.105  -4.146  -1.068  0.00  0.00    -0.081 HD
ENDROOT
BRANCH   1   9
ATOM      8  N   UNL     1       0.002  -0.004   0.002  0.00  0.00    -0.315 N 
ATOM      9  C   UNL     1       0.585  -0.664  -1.018  0.00  0.00    +0.216 C 
ATOM     10  O   UNL     1       1.093  -0.046  -1.929  0.00  0.00    -0.276 OA
ATOM     11  H   UNL     1      -0.459  -0.565   0.828  0.00  0.00    +0.149 HD
BRANCH   8  12
ATOM     12  C   UNL     1      -0.018   1.461   0.010  0.00  0.00    +0.105 C 
BRANCH  12  13
ATOM     13  C   UNL     1      -0.734   1.954   1.269  0.00  0.00    +0.030 C 
BRANCH  13  14
ATOM     14  C   UNL     1      -0.755   3.484   1.277  0.00  0.00    +0.076 C 
BRANCH  14  15
ATOM     15  S   UNL     1      -1.604   4.069   2.770  0.00  0.00    -0.125 S 
BRANCH  15  19
ATOM     16  C   UNL     1      -1.453   8.582   2.418  0.00  0.00    +0.000 A 
ATOM     17  C   UNL     1      -2.064   7.995   3.512  0.00  0.00    +0.001 A 
ATOM     18  C   UNL     1      -2.112   6.620   3.622  0.00  0.00    +0.015 A 
ATOM     19  C   UNL     1      -1.545   5.825   2.633  0.00  0.00    +0.008 A 
ATOM     20  C   UNL     1      -0.927   6.418   1.539  0.00  0.00    +0.015 A 
ATOM     21  C   UNL     1      -0.888   7.794   1.432  0.00  0.00    +0.001 A 
ENDBRANCH  15  19
ENDBRANCH  14  15
ENDBRANCH  13  14
ENDBRANCH  12  13
ENDBRANCH   8  12
ENDBRANCH   1   9
BRANCH   4  22
ATOM     22  C   UNL     1       2.326  -6.085  -1.068  0.00  0.00    +0.022 C 
BRANCH  22  23
ATOM     23  C   UNL     1       3.275  -6.465   0.039  0.00  0.00    +0.211 A 
ATOM     24  N   UNL     1       2.950  -6.782   1.268  0.00  0.00    -0.193 NA
ATOM     25  C   UNL     1       4.118  -7.045   1.896  0.00  0.00    +0.202 A 
ATOM     26  N   UNL     1       5.074  -6.873   1.021  0.00  0.00    -0.056 NA
ATOM     27  O   UNL     1       4.607  -6.546  -0.049  0.00  0.00    -0.340 OA
BRANCH  25  28
ATOM     28  C   UNL     1       4.284  -7.452   3.314  0.00  0.00    +0.023 A 
ATOM     29  C   UNL     1       5.556  -7.691   3.829  0.00  0.00    +0.012 A 
ATOM     30  C   UNL     1       5.705  -8.070   5.147  0.00  0.00    +0.002 A 
ATOM     31  C   UNL     1       4.594  -8.212   5.958  0.00  0.00    +0.015 A 
ATOM     32  C   UNL     1       3.327  -7.975   5.453  0.00  0.00    +0.019 A 
ATOM     33  C   UNL     1       3.168  -7.592   4.136  0.00  0.00    +0.027 A 
ATOM     34 BR   UNL     1       1.813  -8.171   6.569  0.00  0.00    -0.050 Br
ENDBRANCH  25  28
ENDBRANCH  22  23
ENDBRANCH   4  22
TORSDOF 9
