REMARK  Name = ZINC36609607
REMARK  13 active torsions:
REMARK  status: ('A' for Active; 'I' for Inactive)
REMARK    1  A    between atoms: C_1  and  C_2
REMARK    2  A    between atoms: C_2  and  C_3
REMARK    3  A    between atoms: C_3  and  C_4
REMARK    4  A    between atoms: C_5  and  C_6
REMARK    5  A    between atoms: C_6  and  C_8
REMARK    6  A    between atoms: C_6  and  N_22
REMARK    7  A    between atoms: N_10  and  C_11
REMARK    8  A    between atoms: C_11  and  S_12
REMARK    9  A    between atoms: S_12  and  C_15
REMARK   10  A    between atoms: C_18  and  C_21
REMARK   11  A    between atoms: N_22  and  C_23
REMARK   12  A    between atoms: C_29  and  C_31
REMARK   13  A    between atoms: C_32  and  C_33
REMARK                            x       y       z     vdW  Elec       q    Type
REMARK                         _______ _______ _______ _____ _____    ______ ____
ROOT
ATOM      1  C   UNL     1       1.982  -4.333   1.259  0.00  0.00    +0.191 C 
ENDROOT
BRANCH   1   2
ATOM      2  C   UNL     1       2.817  -5.156   0.313  0.00  0.00    +0.239 C 
ATOM      3  O   UNL     1       2.284  -5.946  -0.437  0.00  0.00    -0.273 OA
ATOM      4  N   UNL     1       4.158  -5.014   0.300  0.00  0.00    -0.294 N 
ATOM      5  H   UNL     1       4.584  -4.382   0.900  0.00  0.00    +0.150 HD
BRANCH   4   6
ATOM      6  C   UNL     1       4.970  -5.814  -0.620  0.00  0.00    +0.278 C 
BRANCH   6   7
ATOM      7  S   UNL     1       5.289  -4.861  -2.130  0.00  0.00    +0.013 S 
ATOM      8  O   UNL     1       6.129  -5.599  -3.006  0.00  0.00    -0.168 OA
ATOM      9  O   UNL     1       4.083  -4.277  -2.603  0.00  0.00    -0.168 OA
BRANCH   7  10
ATOM     10  C   UNL     1       6.274  -3.497  -1.606  0.00  0.00    +0.090 A 
ATOM     11  C   UNL     1       5.668  -2.323  -1.199  0.00  0.00    +0.027 A 
ATOM     12  C   UNL     1       6.440  -1.253  -0.788  0.00  0.00    +0.005 A 
ATOM     13  C   UNL     1       7.819  -1.357  -0.782  0.00  0.00    -0.050 A 
ATOM     14  C   UNL     1       8.425  -2.532  -1.188  0.00  0.00    +0.005 A 
ATOM     15  C   UNL     1       7.652  -3.603  -1.595  0.00  0.00    +0.027 A 
ATOM     16  C   UNL     1       8.661  -0.191  -0.335  0.00  0.00    +0.044 C 
ENDBRANCH   7  10
ENDBRANCH   6   7
ENDBRANCH   4   6
ENDBRANCH   1   2
BRANCH   1  17
ATOM     17  N   UNL     1       0.567  -4.670   1.080  0.00  0.00    -0.245 N 
ATOM     18  C   UNL     1      -0.144  -5.162   2.113  0.00  0.00    +0.297 C 
ATOM     19  O   UNL     1       0.401  -5.376   3.180  0.00  0.00    -0.260 OA
BRANCH  17  20
ATOM     20  C   UNL     1      -0.045  -4.481  -0.163  0.00  0.00    +0.038 A 
ATOM     21  C   UNL     1      -1.207  -5.173  -0.479  0.00  0.00    +0.023 A 
ATOM     22  C   UNL     1      -1.809  -4.984  -1.708  0.00  0.00    +0.002 A 
ATOM     23  C   UNL     1      -1.256  -4.106  -2.623  0.00  0.00    +0.000 A 
ATOM     24  C   UNL     1      -0.098  -3.416  -2.311  0.00  0.00    +0.002 A 
ATOM     25  C   UNL     1       0.505  -3.596  -1.082  0.00  0.00    +0.023 A 
ENDBRANCH  17  20
BRANCH  18  26
ATOM     26  C   UNL     1      -1.542  -5.434   1.956  0.00  0.00    -0.002 C 
ATOM     27  C   UNL     1      -2.687  -5.656   1.827  0.00  0.00    -0.057 C 
BRANCH  27  28
ATOM     28  C   UNL     1      -4.085  -5.927   1.669  0.00  0.00    +0.025 A 
ATOM     29  C   UNL     1      -4.713  -5.688   0.443  0.00  0.00    +0.017 A 
ATOM     30  C   UNL     1      -6.059  -5.952   0.299  0.00  0.00    +0.001 A 
ATOM     31  C   UNL     1      -6.787  -6.452   1.365  0.00  0.00    +0.000 A 
ATOM     32  C   UNL     1      -6.172  -6.691   2.581  0.00  0.00    +0.001 A 
ATOM     33  C   UNL     1      -4.826  -6.438   2.739  0.00  0.00    +0.017 A 
ENDBRANCH  27  28
ENDBRANCH  18  26
ENDBRANCH   1  17
BRANCH   1  35
ATOM     34  C   UNL     1       1.161  -2.099   0.716  0.00  0.00    -0.029 C 
ATOM     35  C   UNL     1       2.190  -2.869   0.970  0.00  0.00    +0.001 C 
BRANCH  34  36
ATOM     36  C   UNL     1       1.369  -0.635   0.427  0.00  0.00    +0.027 C 
BRANCH  36  38
ATOM     37  C   UNL     1       0.938   1.203  -1.210  0.00  0.00    +0.004 C 
ATOM     38  C   UNL     1       0.726  -0.284  -0.917  0.00  0.00    +0.001 C 
ENDBRANCH  36  38
ENDBRANCH  34  36
ENDBRANCH   1  35
TORSDOF 11
