REMARK  Name = ZINC00646487
REMARK  8 active torsions:
REMARK  status: ('A' for Active; 'I' for Inactive)
REMARK    1  A    between atoms: C_1  and  C_2
REMARK    2  A    between atoms: C_3  and  C_26
REMARK    3  A    between atoms: C_4  and  C_19
REMARK    4  A    between atoms: C_9  and  C_11
REMARK    5  A    between atoms: C_22  and  O_25
REMARK    6  A    between atoms: N_28  and  C_29
REMARK    7  A    between atoms: C_34  and  O_35
REMARK    8  A    between atoms: O_35  and  C_36
REMARK                            x       y       z     vdW  Elec       q    Type
REMARK                         _______ _______ _______ _____ _____    ______ ____
ROOT
ATOM      1  C   UNL     1      -0.018   1.502   0.020  0.00  0.00    +0.061 C 
ATOM      2  C   UNL     1       0.002  -0.005   0.021  0.00  0.00    +0.018 C 
ATOM      3  C   UNL     1      -1.163  -0.668   0.019  0.00  0.00    +0.060 C 
ATOM      4  C   UNL     1      -1.254  -2.171   0.033  0.00  0.00    +0.177 C 
ATOM      5  N   UNL     1       0.062  -2.740  -0.247  0.00  0.00    -0.220 N 
ATOM      6  C   UNL     1       1.210  -2.015  -0.242  0.00  0.00    +0.219 A 
ATOM      7  N   UNL     1       2.199  -2.818  -0.521  0.00  0.00    -0.193 NA
ATOM      8  C   UNL     1       1.726  -4.062  -0.714  0.00  0.00    +0.185 A 
ATOM      9  N   UNL     1       0.418  -4.052  -0.556  0.00  0.00    -0.147 NA
ATOM     10  N   UNL     1       1.214  -0.652   0.017  0.00  0.00    -0.287 N 
ATOM     11  H   UNL     1       2.040  -0.176   0.192  0.00  0.00    +0.155 HD
ENDROOT
BRANCH   8  12
ATOM     12  C   UNL     1       2.545  -5.252  -1.052  0.00  0.00    +0.039 A 
ATOM     13  C   UNL     1       1.935  -6.492  -1.235  0.00  0.00    +0.013 A 
ATOM     14  C   UNL     1       2.702  -7.596  -1.548  0.00  0.00    +0.001 A 
ATOM     15  C   UNL     1       4.073  -7.474  -1.681  0.00  0.00    +0.001 A 
ATOM     16  C   UNL     1       4.685  -6.247  -1.501  0.00  0.00    +0.021 A 
ATOM     17  C   UNL     1       3.927  -5.134  -1.193  0.00  0.00    +0.052 A 
ATOM     18 CL   UNL     1       4.695  -3.592  -0.974  0.00  0.00    -0.083 Cl
ENDBRANCH   8  12
BRANCH   4  19
ATOM     19  C   UNL     1      -1.724  -2.634   1.388  0.00  0.00    -0.018 A 
ATOM     20  C   UNL     1      -0.986  -2.329   2.516  0.00  0.00    +0.009 A 
ATOM     21  C   UNL     1      -1.414  -2.752   3.759  0.00  0.00    +0.046 A 
ATOM     22  C   UNL     1      -2.587  -3.484   3.875  0.00  0.00    +0.117 A 
ATOM     23  C   UNL     1      -3.326  -3.789   2.741  0.00  0.00    +0.046 A 
ATOM     24  C   UNL     1      -2.896  -3.358   1.501  0.00  0.00    +0.009 A 
BRANCH  22  25
ATOM     25  O   UNL     1      -3.011  -3.903   5.096  0.00  0.00    -0.507 OA
ATOM     26  H   UNL     1      -3.591  -3.275   5.548  0.00  0.00    +0.292 HD
ENDBRANCH  22  25
ENDBRANCH   4  19
BRANCH   3  27
ATOM     27  C   UNL     1      -2.364   0.079   0.006  0.00  0.00    +0.248 C 
ATOM     28  O   UNL     1      -2.324   1.297  -0.005  0.00  0.00    -0.270 OA
ATOM     29  N   UNL     1      -3.553  -0.555   0.004  0.00  0.00    -0.279 N 
ATOM     30  H   UNL     1      -3.587  -1.522  -0.069  0.00  0.00    +0.155 HD
BRANCH  29  31
ATOM     31  C   UNL     1      -4.740   0.181   0.108  0.00  0.00    +0.076 A 
ATOM     32  C   UNL     1      -4.733   1.431   0.710  0.00  0.00    +0.027 A 
ATOM     33  C   UNL     1      -5.906   2.155   0.810  0.00  0.00    +0.002 A 
ATOM     34  C   UNL     1      -7.087   1.637   0.313  0.00  0.00    +0.004 A 
ATOM     35  C   UNL     1      -7.102   0.392  -0.287  0.00  0.00    +0.047 A 
ATOM     36  C   UNL     1      -5.930  -0.338  -0.398  0.00  0.00    +0.141 A 
BRANCH  36  37
ATOM     37  O   UNL     1      -5.942  -1.560  -0.994  0.00  0.00    -0.493 OA
ATOM     38  C   UNL     1      -7.198  -2.028  -1.489  0.00  0.00    +0.277 C 
ENDBRANCH  36  37
ENDBRANCH  29  31
ENDBRANCH   3  27
TORSDOF 6
