REMARK  Name = ZINC20343524
REMARK  3 active torsions:
REMARK  status: ('A' for Active; 'I' for Inactive)
REMARK    1  A    between atoms: C_1  and  C_2
REMARK    2  A    between atoms: N_8  and  C_24
REMARK    3  A    between atoms: C_24  and  C_25
REMARK                            x       y       z     vdW  Elec       q    Type
REMARK                         _______ _______ _______ _____ _____    ______ ____
ROOT
ATOM      1  C   UNL     1      -1.691   4.223   0.040  0.00  0.00    +0.068 C 
ATOM      2  C   UNL     1      -0.777   3.025   0.026  0.00  0.00    +0.066 A 
ATOM      3  C   UNL     1       0.617   3.061   0.012  0.00  0.00    +0.040 A 
ATOM      4  C   UNL     1       1.077   1.778   0.001  0.00  0.00    +0.129 A 
ATOM      5  N   UNL     1      -0.011   0.966   0.007  0.00  0.00    -0.263 N 
ATOM      6  H   UNL     1       0.118  -0.127   0.005  0.00  0.00    +0.190 HD
ATOM      7  N   UNL     1      -1.155   1.772   0.017  0.00  0.00    -0.177 NA
ATOM      8  N   UNL     1       2.468   1.749  -0.011  0.00  0.00    -0.246 N 
ATOM      9  C   UNL     1       2.999   2.987  -0.010  0.00  0.00    +0.242 C 
ATOM     10  O   UNL     1       4.178   3.274  -0.019  0.00  0.00    -0.273 OA
ATOM     11  C   UNL     1       1.835   3.944   0.005  0.00  0.00    +0.148 C 
ATOM     12  C   UNL     1       1.877   4.839   1.212  0.00  0.00    -0.011 A 
ATOM     13  C   UNL     1       1.883   4.598   2.567  0.00  0.00    +0.006 A 
ATOM     14  C   UNL     1       1.928   5.655   3.459  0.00  0.00    +0.000 A 
ATOM     15  C   UNL     1       1.968   6.957   2.994  0.00  0.00    +0.001 A 
ATOM     16  C   UNL     1       1.961   7.212   1.639  0.00  0.00    +0.012 A 
ATOM     17  C   UNL     1       1.916   6.150   0.729  0.00  0.00    +0.024 A 
ATOM     18  C   UNL     1       1.901   6.126  -0.747  0.00  0.00    +0.162 A 
ATOM     19  C   UNL     1       1.854   4.848  -1.196  0.00  0.00    +0.113 A 
ATOM     20  N   UNL     1       1.845   4.884  -2.538  0.00  0.00    -0.198 NA
ATOM     21  C   UNL     1       1.882   6.136  -2.926  0.00  0.00    +0.286 A 
ATOM     22  O   UNL     1       1.917   6.926  -1.842  0.00  0.00    -0.424 OA
ATOM     23  N   UNL     1       1.887   6.570  -4.236  0.00  0.00    -0.313 N 
ATOM     24  H   UNL     1       1.920   7.647  -4.458  0.00  0.00    +0.147 HD
ATOM     25  H   UNL     1       1.857   5.840  -5.057  0.00  0.00    +0.147 HD
ENDROOT
BRANCH   8  26
ATOM     26  C   UNL     1       3.261   0.517  -0.025  0.00  0.00    +0.210 C 
BRANCH  26  27
ATOM     27  C   UNL     1       3.521   0.103  -1.451  0.00  0.00    +0.228 C 
ATOM     28  O   UNL     1       3.086   0.770  -2.365  0.00  0.00    -0.274 OA
ATOM     29  N   UNL     1       4.236  -1.010  -1.709  0.00  0.00    -0.328 N 
ATOM     30  H   UNL     1       4.426  -1.312  -2.750  0.00  0.00    +0.145 HD
ATOM     31  H   UNL     1       4.631  -1.615  -0.880  0.00  0.00    +0.145 HD
ENDBRANCH  26  27
ENDBRANCH   8  26
TORSDOF 2
