REMARK  Name = ZINC36205411
REMARK  3 active torsions:
REMARK  status: ('A' for Active; 'I' for Inactive)
REMARK    1  A    between atoms: C_4  and  C_8
REMARK    2  A    between atoms: C_6  and  N_7
REMARK    3  A    between atoms: C_8  and  C_9
REMARK                            x       y       z     vdW  Elec       q    Type
REMARK                         _______ _______ _______ _____ _____    ______ ____
ROOT
ATOM      1  C   UNL     1      -0.017   1.385   0.010  0.00  0.00    +0.024 A 
ATOM      2  C   UNL     1       1.171   2.090   0.002  0.00  0.00    +0.022 A 
ATOM      3  C   UNL     1       2.378   1.415  -0.013  0.00  0.00    +0.045 A 
ATOM      4  C   UNL     1       2.400   0.031  -0.021  0.00  0.00    -0.022 A 
ATOM      5  C   UNL     1       1.216  -0.680  -0.014  0.00  0.00    +0.028 A 
ATOM      6  C   UNL     1       0.002  -0.004   0.002  0.00  0.00    +0.025 A 
ATOM      7 CL   UNL     1       3.869   2.305  -0.022  0.00  0.00    -0.083 Cl
ENDROOT
BRANCH   6   8
ATOM      8  N   UNL     1      -1.198  -0.721   0.010  0.00  0.00    -0.358 N 
ATOM      9  H   UNL     1      -2.045  -0.248   0.021  0.00  0.00    +0.142 HD
ATOM     10  H   UNL     1      -1.183  -1.690   0.005  0.00  0.00    +0.142 HD
ENDBRANCH   6   8
BRANCH   4  11
ATOM     11  C   UNL     1       3.717  -0.701  -0.038  0.00  0.00    +0.080 C 
BRANCH  11  12
ATOM     12  C   UNL     1       4.262  -0.722  -1.443  0.00  0.00    +0.015 A 
ATOM     13  C   UNL     1       5.080   0.161  -2.065  0.00  0.00    +0.124 A 
ATOM     14  N   UNL     1       5.408  -0.103  -3.318  0.00  0.00    -0.233 NA
ATOM     15  C   UNL     1       4.954  -1.178  -3.926  0.00  0.00    +0.156 A 
ATOM     16  S   UNL     1       4.014  -1.920  -2.743  0.00  0.00    -0.057 S 
ATOM     17  N   UNL     1       5.196  -1.600  -5.224  0.00  0.00    -0.338 N 
ATOM     18  H   UNL     1       5.767  -1.075  -5.806  0.00  0.00    +0.144 HD
ATOM     19  H   UNL     1       4.795  -2.421  -5.550  0.00  0.00    +0.144 HD
ENDBRANCH  11  12
ENDBRANCH   4  11
TORSDOF 3
