REMARK  Name = ZINC66153454
REMARK  10 active torsions:
REMARK  status: ('A' for Active; 'I' for Inactive)
REMARK    1  A    between atoms: C_1  and  C_2
REMARK    2  A    between atoms: C_2  and  C_3
REMARK    3  A    between atoms: C_3  and  C_5
REMARK    4  A    between atoms: C_3  and  N_6
REMARK    5  A    between atoms: C_7  and  C_9
REMARK    6  A    between atoms: C_14  and  N_15
REMARK    7  A    between atoms: C_16  and  C_18
REMARK    8  A    between atoms: C_18  and  C_19
REMARK    9  A    between atoms: C_19  and  C_20
REMARK   10  A    between atoms: C_23  and  N_26
REMARK                            x       y       z     vdW  Elec       q    Type
REMARK                         _______ _______ _______ _____ _____    ______ ____
ROOT
ATOM      1  N   UNL     1      -6.286   0.009  -1.474  0.00  0.00    -0.285 N 
ATOM      2  C   UNL     1      -7.541   0.480  -1.338  0.00  0.00    +0.218 C 
ATOM      3  O   UNL     1      -8.041   1.137  -2.226  0.00  0.00    -0.275 OA
ATOM      4  H   UNL     1      -5.907  -0.567  -0.791  0.00  0.00    +0.155 HD
ENDROOT
BRANCH   1  10
ATOM      5  C   UNL     1      -4.180   0.694  -2.458  0.00  0.00    +0.058 A 
ATOM      6  C   UNL     1      -3.434   1.026  -3.591  0.00  0.00    +0.015 A 
ATOM      7  C   UNL     1      -4.030   1.017  -4.834  0.00  0.00    +0.001 A 
ATOM      8  C   UNL     1      -5.368   0.679  -4.966  0.00  0.00    +0.002 A 
ATOM      9  C   UNL     1      -6.117   0.348  -3.855  0.00  0.00    +0.024 A 
ATOM     10  C   UNL     1      -5.532   0.347  -2.596  0.00  0.00    +0.046 A 
BRANCH   5  12
ATOM     11  N   UNL     1      -2.223   0.919  -1.009  0.00  0.00    -0.309 N 
ATOM     12  C   UNL     1      -3.548   0.702  -1.125  0.00  0.00    +0.246 C 
ATOM     13  O   UNL     1      -4.223   0.513  -0.131  0.00  0.00    -0.270 OA
ATOM     14  H   UNL     1      -1.685   1.070  -1.802  0.00  0.00    +0.149 HD
BRANCH  11  15
ATOM     15  C   UNL     1      -1.595   0.927   0.315  0.00  0.00    +0.070 C 
ATOM     16  C   UNL     1      -1.248  -0.506   0.723  0.00  0.00    +0.028 C 
BRANCH  15  18
ATOM     17  C   UNL     1      -0.678   3.227  -0.017  0.00  0.00    +0.005 C 
ATOM     18  C   UNL     1      -0.318   1.768   0.269  0.00  0.00    +0.018 C 
ENDBRANCH  15  18
ENDBRANCH  11  15
ENDBRANCH   5  12
ENDBRANCH   1  10
BRANCH   2  19
ATOM     19  C   UNL     1      -8.322   0.191  -0.082  0.00  0.00    +0.101 C 
BRANCH  19  20
ATOM     20  C   UNL     1      -9.706   0.836  -0.183  0.00  0.00    +0.044 C 
BRANCH  20  21
ATOM     21  C   UNL     1     -10.488   0.547   1.073  0.00  0.00    -0.047 A 
ATOM     22  C   UNL     1     -11.271  -0.590   1.151  0.00  0.00    +0.005 A 
ATOM     23  C   UNL     1     -11.989  -0.858   2.301  0.00  0.00    +0.023 A 
ATOM     24  C   UNL     1     -11.922   0.016   3.378  0.00  0.00    +0.025 A 
ATOM     25  C   UNL     1     -11.134   1.157   3.296  0.00  0.00    +0.023 A 
ATOM     26  C   UNL     1     -10.415   1.416   2.146  0.00  0.00    +0.005 A 
BRANCH  24  27
ATOM     27  N   UNL     1     -12.647  -0.252   4.542  0.00  0.00    -0.358 N 
ATOM     28  H   UNL     1     -13.197  -1.048   4.598  0.00  0.00    +0.142 HD
ATOM     29  H   UNL     1     -12.600   0.359   5.294  0.00  0.00    +0.142 HD
ENDBRANCH  24  27
ENDBRANCH  20  21
ENDBRANCH  19  20
ENDBRANCH   2  19
TORSDOF 8
