REMARK  Name = ZINC19503042
REMARK  3 active torsions:
REMARK  status: ('A' for Active; 'I' for Inactive)
REMARK    1  A    between atoms: C_5  and  C_7
REMARK    2  A    between atoms: N_9  and  C_10
REMARK    3  A    between atoms: C_10  and  C_16
REMARK                            x       y       z     vdW  Elec       q    Type
REMARK                         _______ _______ _______ _____ _____    ______ ____
ROOT
ATOM      1  C   UNL     1       0.002  -0.004   0.002  0.00  0.00    +0.246 C 
ATOM      2  O   UNL     1       1.063  -0.598  -0.011  0.00  0.00    -0.270 OA
ATOM      3  N   UNL     1      -1.156  -0.694   0.009  0.00  0.00    -0.296 N 
ATOM      4  H   UNL     1      -2.116  -0.157   0.021  0.00  0.00    +0.150 HD
ENDROOT
BRANCH   1   9
ATOM      5  C   UNL     1      -1.246   3.538   0.033  0.00  0.00    +0.001 A 
ATOM      6  C   UNL     1      -0.056   4.243   0.025  0.00  0.00    +0.001 A 
ATOM      7  C   UNL     1       1.153   3.572   0.010  0.00  0.00    +0.015 A 
ATOM      8  C   UNL     1       1.180   2.192   0.003  0.00  0.00    +0.025 A 
ATOM      9  C   UNL     1      -0.018   1.474   0.010  0.00  0.00    +0.050 A 
ATOM     10  C   UNL     1      -1.235   2.159   0.020  0.00  0.00    +0.014 A 
ATOM     11  I   UNL     1       3.012   1.176  -0.021  0.00  0.00    -0.043 I 
ENDBRANCH   1   9
BRANCH   3  12
ATOM     12  C   UNL     1      -1.136  -2.159   0.001  0.00  0.00    +0.136 C 
ATOM     13  C   UNL     1      -0.420  -2.652  -1.258  0.00  0.00    +0.037 C 
ATOM     14  C   UNL     1      -1.160  -2.145  -2.497  0.00  0.00    +0.003 C 
ATOM     15  C   UNL     1      -2.595  -2.675  -2.486  0.00  0.00    +0.000 C 
ATOM     16  C   UNL     1      -3.311  -2.181  -1.227  0.00  0.00    +0.003 C 
ATOM     17  C   UNL     1      -2.571  -2.688   0.012  0.00  0.00    +0.037 C 
BRANCH  12  18
ATOM     18  C   UNL     1      -0.407  -2.658   1.222  0.00  0.00    +0.379 C 
ATOM     19  O   UNL     1      -0.766  -3.675   1.766  0.00  0.00    -0.244 OA
ATOM     20  O   UNL     1       0.641  -1.972   1.705  0.00  0.00    -0.244 OA
ENDBRANCH  12  18
ENDBRANCH   3  12
TORSDOF 3
