REMARK  Name = ZINC35140010
REMARK  16 active torsions:
REMARK  status: ('A' for Active; 'I' for Inactive)
REMARK    1  A    between atoms: C_1  and  C_2
REMARK    2  A    between atoms: C_5  and  N_8
REMARK    3  A    between atoms: C_9  and  N_17
REMARK    4  A    between atoms: C_11  and  C_13
REMARK    5  A    between atoms: C_13  and  C_14
REMARK    6  A    between atoms: C_13  and  C_15
REMARK    7  A    between atoms: C_13  and  C_16
REMARK    8  A    between atoms: C_18  and  C_20
REMARK    9  A    between atoms: C_20  and  N_21
REMARK   10  A    between atoms: N_21  and  C_22
REMARK   11  A    between atoms: C_22  and  C_23
REMARK   12  A    between atoms: C_23  and  O_24
REMARK   13  A    between atoms: O_24  and  C_25
REMARK   14  A    between atoms: C_26  and  C_28
REMARK   15  A    between atoms: C_31  and  O_34
REMARK   16  A    between atoms: O_34  and  C_35
REMARK                            x       y       z     vdW  Elec       q    Type
REMARK                         _______ _______ _______ _____ _____    ______ ____
ROOT
ATOM      1  N   UNL     1       2.486  -3.188   2.773  0.00  0.00    -0.269 N 
ATOM      2  C   UNL     1       2.800  -4.409   3.248  0.00  0.00    +0.236 C 
ATOM      3  O   UNL     1       2.716  -5.380   2.526  0.00  0.00    -0.274 OA
ATOM      4  H   UNL     1       2.554  -2.411   3.350  0.00  0.00    +0.156 HD
ENDROOT
BRANCH   1   6
ATOM      5  N   UNL     1       1.717  -1.874   0.843  0.00  0.00    -0.218 N 
ATOM      6  C   UNL     1       2.064  -3.040   1.452  0.00  0.00    +0.129 A 
ATOM      7  C   UNL     1       1.924  -4.037   0.536  0.00  0.00    +0.069 A 
ATOM      8  C   UNL     1       1.481  -3.462  -0.659  0.00  0.00    +0.071 A 
ATOM      9  N   UNL     1       1.351  -2.172  -0.475  0.00  0.00    -0.169 NA
BRANCH   5  14
ATOM     10  C   UNL     1       1.725   3.277   3.227  0.00  0.00    +0.044 C 
ATOM     11  C   UNL     1       1.723   1.909   2.594  0.00  0.00    -0.050 A 
ATOM     12  C   UNL     1       2.057   1.766   1.260  0.00  0.00    +0.005 A 
ATOM     13  C   UNL     1       2.056   0.514   0.677  0.00  0.00    +0.028 A 
ATOM     14  C   UNL     1       1.719  -0.602   1.432  0.00  0.00    +0.067 A 
ATOM     15  C   UNL     1       1.384  -0.455   2.771  0.00  0.00    +0.028 A 
ATOM     16  C   UNL     1       1.392   0.799   3.350  0.00  0.00    +0.005 A 
ENDBRANCH   5  14
BRANCH   8  17
ATOM     17  C   UNL     1       1.195  -4.202  -1.940  0.00  0.00    +0.006 C 
ATOM     18  C   UNL     1      -0.128  -4.958  -1.807  0.00  0.00    +0.017 C 
ATOM     19  C   UNL     1       1.099  -3.204  -3.095  0.00  0.00    +0.017 C 
ATOM     20  C   UNL     1       2.325  -5.196  -2.217  0.00  0.00    +0.017 C 
ENDBRANCH   8  17
ENDBRANCH   1   6
BRANCH   2  21
ATOM     21  C   UNL     1       3.257  -4.568   4.675  0.00  0.00    +0.204 C 
BRANCH  21  22
ATOM     22  N   UNL     1       3.535  -5.981   4.944  0.00  0.00    -0.287 N 
ATOM     23  C   UNL     1       2.616  -6.741   5.573  0.00  0.00    +0.247 C 
ATOM     24  O   UNL     1       2.865  -7.901   5.839  0.00  0.00    -0.270 OA
BRANCH  23  25
ATOM     25  C   UNL     1       1.307  -6.165   5.939  0.00  0.00    +0.037 A 
ATOM     26  C   UNL     1       0.622  -5.351   5.033  0.00  0.00    +0.016 A 
ATOM     27  C   UNL     1      -0.599  -4.816   5.378  0.00  0.00    +0.046 A 
ATOM     28  C   UNL     1      -1.150  -5.084   6.625  0.00  0.00    +0.120 A 
ATOM     29  C   UNL     1      -0.472  -5.893   7.529  0.00  0.00    +0.046 A 
ATOM     30  C   UNL     1       0.747  -6.436   7.190  0.00  0.00    +0.016 A 
BRANCH  28  31
ATOM     31  O   UNL     1      -2.353  -4.553   6.962  0.00  0.00    -0.495 OA
ATOM     32  C   UNL     1      -2.861  -4.869   8.259  0.00  0.00    +0.277 C 
ENDBRANCH  28  31
ENDBRANCH  23  25
BRANCH  22  33
ATOM     33  C   UNL     1       4.811  -6.569   4.530  0.00  0.00    +0.136 C 
BRANCH  33  34
ATOM     34  C   UNL     1       5.869  -6.298   5.603  0.00  0.00    +0.178 C 
BRANCH  34  35
ATOM     35  O   UNL     1       5.512  -6.981   6.806  0.00  0.00    -0.381 OA
ATOM     36  C   UNL     1       6.439  -6.793   7.877  0.00  0.00    +0.194 C 
ENDBRANCH  34  35
ENDBRANCH  33  34
ENDBRANCH  22  33
ENDBRANCH  21  22
ENDBRANCH   2  21
TORSDOF 10
