REMARK  Name = ZINC22240259
REMARK  6 active torsions:
REMARK  status: ('A' for Active; 'I' for Inactive)
REMARK    1  A    between atoms: C_5  and  C_7
REMARK    2  A    between atoms: C_10  and  S_13
REMARK    3  A    between atoms: N_11  and  N_12
REMARK    4  A    between atoms: S_13  and  C_14
REMARK    5  A    between atoms: C_14  and  C_15
REMARK    6  A    between atoms: C_28  and  C_30
REMARK                            x       y       z     vdW  Elec       q    Type
REMARK                         _______ _______ _______ _____ _____    ______ ____
ROOT
ATOM      1  C   UNL     1       0.382   5.920   1.354  0.00  0.00    +0.231 C 
ATOM      2  O   UNL     1       0.403   7.132   1.302  0.00  0.00    -0.274 OA
ATOM      3  N   UNL     1       0.898   5.194   0.344  0.00  0.00    -0.257 N 
ATOM      4  C   UNL     1       0.881   3.793   0.390  0.00  0.00    +0.058 A 
ATOM      5  C   UNL     1      -0.302   3.094   0.212  0.00  0.00    +0.025 A 
ATOM      6  C   UNL     1      -0.292   1.712   0.218  0.00  0.00    +0.002 A 
ATOM      7  C   UNL     1       0.891   1.023   0.416  0.00  0.00    +0.002 A 
ATOM      8  C   UNL     1       2.074   1.713   0.608  0.00  0.00    +0.025 A 
ATOM      9  C   UNL     1       2.073   3.098   0.600  0.00  0.00    +0.055 A 
ATOM     10  N   UNL     1       3.251   3.819   0.825  0.00  0.00    -0.284 N 
ATOM     11  C   UNL     1       3.602   4.834   0.005  0.00  0.00    +0.219 C 
ATOM     12  O   UNL     1       4.582   5.502   0.258  0.00  0.00    -0.275 OA
ATOM     13  C   UNL     1       2.783   5.143  -1.221  0.00  0.00    +0.128 C 
ATOM     14  C   UNL     1       1.487   5.852  -0.823  0.00  0.00    +0.194 C 
ATOM     15  H   UNL     1       3.901   3.561   1.674  0.00  0.00    +0.155 HD
ENDROOT
BRANCH  14  16
ATOM     16  C   UNL     1       0.499   5.798  -1.990  0.00  0.00    +0.409 C 
ATOM     17  F   UNL     1       0.222   4.463  -2.304  0.00  0.00    -0.169 F 
ATOM     18  F   UNL     1      -0.686   6.446  -1.627  0.00  0.00    -0.169 F 
ATOM     19  F   UNL     1       1.056   6.433  -3.104  0.00  0.00    -0.169 F 
ENDBRANCH  14  16
BRANCH   1  20
ATOM     20  C   UNL     1      -0.222   5.228   2.549  0.00  0.00    +0.173 C 
BRANCH  20  21
ATOM     21  S   UNL     1      -0.824   6.466   3.724  0.00  0.00    -0.075 S 
BRANCH  21  25
ATOM     22  C   UNL     1      -2.382   4.643   6.809  0.00  0.00    +0.183 A 
ATOM     23  N   UNL     1      -1.992   3.645   6.051  0.00  0.00    -0.127 NA
ATOM     24  N   UNL     1      -1.454   4.096   4.974  0.00  0.00    -0.121 NA
ATOM     25  C   UNL     1      -1.458   5.410   4.983  0.00  0.00    +0.209 A 
ATOM     26  N   UNL     1      -2.052   5.804   6.149  0.00  0.00    -0.224 N 
BRANCH  22  31
ATOM     27  C   UNL     1      -4.799   5.205   9.628  0.00  0.00    +0.001 A 
ATOM     28  C   UNL     1      -4.298   4.345  10.589  0.00  0.00    +0.001 A 
ATOM     29  C   UNL     1      -3.175   3.581  10.325  0.00  0.00    +0.021 A 
ATOM     30  C   UNL     1      -2.547   3.673   9.098  0.00  0.00    +0.052 A 
ATOM     31  C   UNL     1      -3.048   4.539   8.124  0.00  0.00    +0.039 A 
ATOM     32  C   UNL     1      -4.178   5.311   8.400  0.00  0.00    +0.013 A 
ATOM     33 CL   UNL     1      -1.138   2.714   8.768  0.00  0.00    -0.083 Cl
ENDBRANCH  22  31
BRANCH  26  34
ATOM     34  N   UNL     1      -2.271   7.085   6.571  0.00  0.00    -0.295 N 
ATOM     35  H   UNL     1      -1.957   7.932   5.944  0.00  0.00    +0.163 HD
ATOM     36  H   UNL     1      -2.762   7.268   7.538  0.00  0.00    +0.163 HD
ENDBRANCH  26  34
ENDBRANCH  21  25
ENDBRANCH  20  21
ENDBRANCH   1  20
TORSDOF 6
