REMARK  Name = ZINC35091258
REMARK  13 active torsions:
REMARK  status: ('A' for Active; 'I' for Inactive)
REMARK    1  A    between atoms: C_1  and  C_2
REMARK    2  A    between atoms: C_2  and  C_3
REMARK    3  A    between atoms: C_3  and  C_4
REMARK    4  A    between atoms: C_4  and  N_5
REMARK    5  A    between atoms: N_5  and  C_6
REMARK    6  A    between atoms: C_6  and  C_8
REMARK    7  A    between atoms: C_6  and  C_9
REMARK    8  A    between atoms: N_19  and  C_20
REMARK    9  A    between atoms: C_23  and  C_26
REMARK   10  A    between atoms: C_26  and  C_27
REMARK   11  A    between atoms: N_30  and  C_31
REMARK   12  A    between atoms: C_36  and  O_37
REMARK   13  A    between atoms: O_37  and  C_38
REMARK                            x       y       z     vdW  Elec       q    Type
REMARK                         _______ _______ _______ _____ _____    ______ ____
ROOT
ATOM      1  C   UNL     1       1.019  -3.644   3.345  0.00  0.00    +0.141 C 
ATOM      2  C   UNL     1       0.774  -2.151   3.570  0.00  0.00    +0.036 C 
ENDROOT
BRANCH   1   3
ATOM      3  C   UNL     1      -0.272  -4.311   2.948  0.00  0.00    +0.138 A 
ATOM      4  N   UNL     1      -0.926  -3.833   1.933  0.00  0.00    -0.231 NA
ATOM      5  C   UNL     1      -2.095  -4.382   1.518  0.00  0.00    +0.078 A 
ATOM      6  C   UNL     1      -2.798  -3.869   0.426  0.00  0.00    +0.028 A 
ATOM      7  C   UNL     1      -3.981  -4.457   0.039  0.00  0.00    +0.002 A 
ATOM      8  C   UNL     1      -4.486  -5.556   0.722  0.00  0.00    +0.001 A 
ATOM      9  C   UNL     1      -3.811  -6.081   1.802  0.00  0.00    +0.015 A 
ATOM     10  C   UNL     1      -2.611  -5.501   2.209  0.00  0.00    +0.065 A 
ATOM     11  C   UNL     1      -1.847  -6.018   3.354  0.00  0.00    +0.266 A 
ATOM     12  O   UNL     1      -2.237  -6.979   3.992  0.00  0.00    -0.267 OA
ATOM     13  N   UNL     1      -0.691  -5.388   3.668  0.00  0.00    -0.263 N 
BRANCH  13  14
ATOM     14  C   UNL     1       0.078  -5.843   4.746  0.00  0.00    +0.051 A 
ATOM     15  C   UNL     1      -0.091  -5.285   6.006  0.00  0.00    +0.026 A 
ATOM     16  C   UNL     1       0.668  -5.737   7.068  0.00  0.00    +0.005 A 
ATOM     17  C   UNL     1       1.596  -6.745   6.877  0.00  0.00    -0.047 A 
ATOM     18  C   UNL     1       1.766  -7.303   5.623  0.00  0.00    +0.005 A 
ATOM     19  C   UNL     1       1.006  -6.859   4.558  0.00  0.00    +0.026 A 
BRANCH  17  20
ATOM     20  C   UNL     1       2.423  -7.235   8.037  0.00  0.00    +0.032 C 
ATOM     21  C   UNL     1       1.694  -8.387   8.732  0.00  0.00    +0.009 C 
ENDBRANCH  17  20
ENDBRANCH  13  14
ENDBRANCH   1   3
BRANCH   1  22
ATOM     22  N   UNL     1       2.008  -3.821   2.279  0.00  0.00    -0.276 N 
ATOM     23  C   UNL     1       3.166  -4.463   2.534  0.00  0.00    +0.307 C 
ATOM     24  O   UNL     1       3.389  -4.895   3.648  0.00  0.00    -0.252 OA
ATOM     25  N   UNL     1       4.076  -4.626   1.553  0.00  0.00    -0.266 N 
ATOM     26  H   UNL     1       3.874  -4.333   0.651  0.00  0.00    +0.156 HD
BRANCH  25  27
ATOM     27  C   UNL     1       5.314  -5.218   1.837  0.00  0.00    +0.077 A 
ATOM     28  C   UNL     1       5.426  -6.131   2.876  0.00  0.00    +0.027 A 
ATOM     29  C   UNL     1       6.648  -6.713   3.155  0.00  0.00    +0.002 A 
ATOM     30  C   UNL     1       7.761  -6.389   2.400  0.00  0.00    +0.004 A 
ATOM     31  C   UNL     1       7.656  -5.481   1.363  0.00  0.00    +0.047 A 
ATOM     32  C   UNL     1       6.434  -4.897   1.074  0.00  0.00    +0.141 A 
BRANCH  32  33
ATOM     33  O   UNL     1       6.328  -4.007   0.051  0.00  0.00    -0.493 OA
ATOM     34  C   UNL     1       7.518  -3.725  -0.689  0.00  0.00    +0.277 C 
ENDBRANCH  32  33
ENDBRANCH  25  27
BRANCH  22  35
ATOM     35  C   UNL     1       1.740  -3.301   0.937  0.00  0.00    +0.110 C 
BRANCH  35  36
ATOM     36  C   UNL     1       2.261  -1.866   0.832  0.00  0.00    +0.019 C 
BRANCH  36  38
ATOM     37  C   UNL     1       2.502   0.112  -0.675  0.00  0.00    +0.004 C 
ATOM     38  C   UNL     1       1.980  -1.322  -0.570  0.00  0.00    -0.002 C 
ENDBRANCH  36  38
ENDBRANCH  35  36
ENDBRANCH  22  35
ENDBRANCH   1  22
TORSDOF 9
