REMARK  Name = ZINC13483680
REMARK  11 active torsions:
REMARK  status: ('A' for Active; 'I' for Inactive)
REMARK    1  A    between atoms: C_1  and  C_2
REMARK    2  A    between atoms: C_2  and  C_4
REMARK    3  A    between atoms: C_2  and  C_12
REMARK    4  A    between atoms: C_4  and  C_5
REMARK    5  A    between atoms: C_5  and  C_6
REMARK    6  A    between atoms: N_8  and  C_9
REMARK    7  A    between atoms: C_9  and  C_10
REMARK    8  A    between atoms: C_18  and  C_39
REMARK    9  A    between atoms: C_19  and  O_38
REMARK   10  A    between atoms: C_30  and  C_37
REMARK   11  A    between atoms: C_33  and  O_36
REMARK                            x       y       z     vdW  Elec       q    Type
REMARK                         _______ _______ _______ _____ _____    ______ ____
ROOT
ATOM      1  C   UNL     1      -0.365   0.991   7.481  0.00  0.00    +0.001 C 
ATOM      2  C   UNL     1      -1.187   1.187   8.705  0.00  0.00    +0.005 C 
ATOM      3  C   UNL     1      -1.417  -0.259   9.363  0.00  0.00    +0.005 C 
ATOM      4  C   UNL     1      -0.335  -1.106   8.551  0.00  0.00    +0.001 C 
ATOM      5  C   UNL     1      -0.436  -0.587   7.130  0.00  0.00    +0.000 C 
ATOM      6  C   UNL     1       0.711  -1.052   6.260  0.00  0.00    +0.121 C 
ATOM      7  C   UNL     1       0.982  -2.541   6.646  0.00  0.00    +0.036 C 
ATOM      8  C   UNL     1      -0.174  -3.199   7.310  0.00  0.00    +0.001 C 
ATOM      9  C   UNL     1      -0.469  -2.546   8.640  0.00  0.00    -0.004 C 
ATOM     10  C   UNL     1      -1.874  -3.045   9.148  0.00  0.00    +0.004 C 
ATOM     11  C   UNL     1      -1.900  -4.558   8.988  0.00  0.00    +0.004 C 
ATOM     12  C   UNL     1      -0.537  -5.135   8.799  0.00  0.00    -0.002 C 
ATOM     13  C   UNL     1       0.042  -4.750   7.478  0.00  0.00    -0.026 C 
ATOM     14  C   UNL     1       1.562  -5.132   7.545  0.00  0.00    +0.010 C 
ATOM     15  C   UNL     1       1.719  -6.547   7.782  0.00  0.00    +0.032 C 
ATOM     16  C   UNL     1       1.059  -7.056   9.047  0.00  0.00    +0.115 C 
ATOM     17  C   UNL     1      -0.467  -6.623   9.043  0.00  0.00    +0.035 C 
ATOM     18  C   UNL     1      -0.651  -5.446   6.372  0.00  0.00    +0.012 C 
ATOM     19  C   UNL     1      -1.780  -0.822   6.480  0.00  0.00    +0.014 C 
ENDROOT
BRANCH   1  21
ATOM     20  C   UNL     1      -1.291   3.179   6.732  0.00  0.00    +0.008 C 
ATOM     21  C   UNL     1      -0.977   1.742   6.309  0.00  0.00    -0.010 C 
BRANCH  21  22
ATOM     22  C   UNL     1       0.011   1.759   5.141  0.00  0.00    +0.013 C 
BRANCH  22  23
ATOM     23  C   UNL     1      -0.632   2.451   3.938  0.00  0.00    +0.096 C 
BRANCH  23  24
ATOM     24  C   UNL     1       0.341   2.468   2.788  0.00  0.00    +0.213 C 
ATOM     25  O   UNL     1       1.442   1.974   2.918  0.00  0.00    -0.276 OA
ATOM     26  N   UNL     1      -0.011   3.030   1.615  0.00  0.00    -0.305 N 
ATOM     27  H   UNL     1      -0.891   3.425   1.511  0.00  0.00    +0.149 HD
BRANCH  26  28
ATOM     28  C   UNL     1       0.936   3.046   0.497  0.00  0.00    +0.229 C 
BRANCH  28  29
ATOM     29  C   UNL     1       0.302   3.728  -0.688  0.00  0.00    +0.373 C 
ATOM     30  O   UNL     1      -0.825   4.157  -0.607  0.00  0.00    -0.245 OA
ATOM     31  O   UNL     1       0.989   3.859  -1.834  0.00  0.00    -0.245 OA
ENDBRANCH  28  29
ENDBRANCH  26  28
ENDBRANCH  23  24
ENDBRANCH  22  23
ENDBRANCH  21  22
ENDBRANCH   1  21
BRANCH  16  32
ATOM     32  O   UNL     1       1.172  -8.488   9.096  0.00  0.00    -0.392 OA
ATOM     33  H   UNL     1       2.083  -8.810   9.097  0.00  0.00    +0.210 HD
ENDBRANCH  16  32
BRANCH   6  34
ATOM     34  O   UNL     1       0.291  -1.065   4.842  0.00  0.00    -0.391 OA
ATOM     35  H   UNL     1       0.981  -1.353   4.229  0.00  0.00    +0.210 HD
ENDBRANCH   6  34
TORSDOF 8
