REMARK  Name = ZINC09293595
REMARK  9 active torsions:
REMARK  status: ('A' for Active; 'I' for Inactive)
REMARK    1  A    between atoms: C_1  and  C_2
REMARK    2  A    between atoms: C_2  and  N_3
REMARK    3  A    between atoms: C_6  and  C_32
REMARK    4  A    between atoms: C_7  and  C_31
REMARK    5  A    between atoms: N_12  and  C_13
REMARK    6  A    between atoms: C_13  and  C_15
REMARK    7  A    between atoms: C_20  and  N_21
REMARK    8  A    between atoms: N_21  and  S_22
REMARK    9  A    between atoms: S_22  and  C_25
REMARK                            x       y       z     vdW  Elec       q    Type
REMARK                         _______ _______ _______ _____ _____    ______ ____
ROOT
ATOM      1  C   UNL     1       6.566   1.806   0.268  0.00  0.00    +0.061 A 
ATOM      2  C   UNL     1       6.997   3.116   0.050  0.00  0.00    +0.015 A 
ATOM      3  C   UNL     1       8.338   3.379  -0.123  0.00  0.00    +0.001 A 
ATOM      4  C   UNL     1       9.265   2.350  -0.081  0.00  0.00    +0.002 A 
ATOM      5  C   UNL     1       8.855   1.050   0.135  0.00  0.00    +0.025 A 
ATOM      6  C   UNL     1       7.507   0.767   0.316  0.00  0.00    +0.060 A 
ENDROOT
BRANCH   1   7
ATOM      7  C   UNL     1       5.129   1.517   0.454  0.00  0.00    +0.271 C 
ATOM      8  O   UNL     1       4.757   0.372   0.645  0.00  0.00    -0.268 OA
BRANCH   7  18
ATOM      9  N   UNL     1       1.900   3.125   0.572  0.00  0.00    -0.321 N 
ATOM     10  C   UNL     1       0.611   2.664   0.766  0.00  0.00    +0.058 A 
ATOM     11  C   UNL     1      -0.583   3.402   0.790  0.00  0.00    +0.030 A 
ATOM     12  C   UNL     1      -1.791   2.779   0.996  0.00  0.00    -0.046 A 
ATOM     13  C   UNL     1      -1.869   1.409   1.182  0.00  0.00    -0.046 A 
ATOM     14  C   UNL     1      -0.707   0.657   1.168  0.00  0.00    +0.020 A 
ATOM     15  C   UNL     1       0.501   1.280   0.961  0.00  0.00    +0.039 A 
ATOM     16  S   UNL     1       2.183   0.720   0.862  0.00  0.00    -0.052 S 
ATOM     17  C   UNL     1       2.944   2.253   0.581  0.00  0.00    +0.167 A 
ATOM     18  N   UNL     1       4.236   2.512   0.413  0.00  0.00    -0.152 NA
ATOM     19  C   UNL     1      -3.204   0.744   1.401  0.00  0.00    +0.044 C 
ATOM     20  C   UNL     1      -3.054   3.601   1.016  0.00  0.00    +0.044 C 
BRANCH   9  22
ATOM     21  C   UNL     1       3.449   4.959   1.043  0.00  0.00    +0.027 C 
ATOM     22  C   UNL     1       2.142   4.554   0.357  0.00  0.00    +0.121 C 
ENDBRANCH   9  22
ENDBRANCH   7  18
ENDBRANCH   1   7
BRANCH   6  23
ATOM     23  N   UNL     1       7.092  -0.541   0.539  0.00  0.00    -0.216 N 
ATOM     24  H   UNL     1       6.239  -0.845   0.190  0.00  0.00    +0.174 HD
BRANCH  23  25
ATOM     25  S   UNL     1       8.052  -1.579   1.400  0.00  0.00    +0.072 S 
ATOM     26  O   UNL     1       7.319  -2.788   1.541  0.00  0.00    -0.150 OA
ATOM     27  O   UNL     1       9.339  -1.534   0.799  0.00  0.00    -0.150 OA
BRANCH  25  28
ATOM     28  C   UNL     1       8.228  -0.905   3.018  0.00  0.00    +0.108 A 
ATOM     29  C   UNL     1       9.271  -0.043   3.299  0.00  0.00    +0.029 A 
ATOM     30  C   UNL     1       9.407   0.489   4.567  0.00  0.00    +0.002 A 
ATOM     31  C   UNL     1       8.504   0.152   5.558  0.00  0.00    +0.000 A 
ATOM     32  C   UNL     1       7.464  -0.715   5.280  0.00  0.00    +0.002 A 
ATOM     33  C   UNL     1       7.326  -1.244   4.010  0.00  0.00    +0.029 A 
ENDBRANCH  25  28
ENDBRANCH  23  25
ENDBRANCH   6  23
TORSDOF 6
