REMARK  Name = ZINC09563284
REMARK  6 active torsions:
REMARK  status: ('A' for Active; 'I' for Inactive)
REMARK    1  A    between atoms: C_1  and  S_2
REMARK    2  A    between atoms: S_2  and  C_3
REMARK    3  A    between atoms: C_3  and  C_4
REMARK    4  A    between atoms: C_4  and  N_5
REMARK    5  A    between atoms: N_14  and  C_15
REMARK    6  A    between atoms: C_15  and  C_17
REMARK                            x       y       z     vdW  Elec       q    Type
REMARK                         _______ _______ _______ _____ _____    ______ ____
ROOT
ATOM      1  N   UNL     1      -1.255   1.989   0.010  0.00  0.00    -0.320 N 
ATOM      2  C   UNL     1       0.002   1.413  -0.050  0.00  0.00    +0.058 A 
ATOM      3  C   UNL     1       1.244   2.069  -0.083  0.00  0.00    +0.028 A 
ATOM      4  C   UNL     1       2.418   1.357  -0.136  0.00  0.00    +0.022 A 
ATOM      5  C   UNL     1       2.417  -0.029  -0.160  0.00  0.00    +0.042 A 
ATOM      6  C   UNL     1       1.208  -0.702  -0.128  0.00  0.00    +0.037 A 
ATOM      7  C   UNL     1       0.034   0.011  -0.075  0.00  0.00    +0.040 A 
ATOM      8  S   UNL     1      -1.683  -0.441  -0.021  0.00  0.00    -0.052 S 
ATOM      9  C   UNL     1      -2.370   1.206   0.032  0.00  0.00    +0.167 A 
ATOM     10  N   UNL     1      -3.644   1.574   0.083  0.00  0.00    -0.149 NA
ATOM     11 CL   UNL     1       3.913  -0.908  -0.228  0.00  0.00    -0.084 Cl
ENDROOT
BRANCH  10  12
ATOM     12  C   UNL     1      -4.610   0.645   0.102  0.00  0.00    +0.305 C 
ATOM     13  O   UNL     1      -4.318  -0.539   0.072  0.00  0.00    -0.265 OA
BRANCH  12  14
ATOM     14  C   UNL     1      -6.022   1.054   0.159  0.00  0.00    +0.191 A 
ATOM     15  C   UNL     1      -7.098   0.216   0.178  0.00  0.00    +0.054 A 
ATOM     16  C   UNL     1      -8.242   1.029   0.237  0.00  0.00    +0.042 A 
ATOM     17  C   UNL     1      -7.818   2.311   0.243  0.00  0.00    +0.196 A 
ATOM     18  O   UNL     1      -6.479   2.322   0.196  0.00  0.00    -0.458 OA
ENDBRANCH  12  14
ENDBRANCH  10  12
BRANCH   1  19
ATOM     19  C   UNL     1      -1.387   3.448   0.040  0.00  0.00    +0.135 C 
BRANCH  19  20
ATOM     20  C   UNL     1      -2.618   3.865  -0.768  0.00  0.00    +0.090 C 
BRANCH  20  22
ATOM     21  C   UNL     1      -4.178   6.000  -1.856  0.00  0.00    +0.084 C 
ATOM     22  S   UNL     1      -2.683   5.674  -0.881  0.00  0.00    -0.162 S 
ENDBRANCH  20  22
ENDBRANCH  19  20
ENDBRANCH   1  19
TORSDOF 5
