REMARK  Name = ZINC35155222
REMARK  12 active torsions:
REMARK  status: ('A' for Active; 'I' for Inactive)
REMARK    1  A    between atoms: C_1  and  C_2
REMARK    2  A    between atoms: C_2  and  C_3
REMARK    3  A    between atoms: C_3  and  N_4
REMARK    4  A    between atoms: N_4  and  C_5
REMARK    5  A    between atoms: N_4  and  S_28
REMARK    6  A    between atoms: C_5  and  C_6
REMARK    7  A    between atoms: N_8  and  C_9
REMARK    8  A    between atoms: C_10  and  C_22
REMARK    9  A    between atoms: C_11  and  C_21
REMARK   10  A    between atoms: N_13  and  C_14
REMARK   11  A    between atoms: C_19  and  C_20
REMARK   12  A    between atoms: S_28  and  C_31
REMARK                            x       y       z     vdW  Elec       q    Type
REMARK                         _______ _______ _______ _____ _____    ______ ____
ROOT
ATOM      1  C   UNL     1       0.590  -4.681  -3.115  0.00  0.00    +0.234 C 
ATOM      2  O   UNL     1       1.494  -4.999  -3.859  0.00  0.00    -0.274 OA
ATOM      3  N   UNL     1      -0.568  -4.216  -3.622  0.00  0.00    -0.269 N 
ATOM      4  H   UNL     1      -1.294  -3.969  -3.027  0.00  0.00    +0.156 HD
ENDROOT
BRANCH   3   5
ATOM      5  C   UNL     1      -0.725  -4.090  -4.998  0.00  0.00    +0.137 A 
ATOM      6  C   UNL     1      -1.687  -4.709  -5.776  0.00  0.00    +0.045 A 
ATOM      7  C   UNL     1      -1.476  -4.301  -7.108  0.00  0.00    +0.070 A 
ATOM      8  N   UNL     1      -0.453  -3.488  -7.133  0.00  0.00    -0.169 NA
ATOM      9  N   UNL     1       0.036  -3.331  -5.832  0.00  0.00    -0.217 N 
ATOM     10  C   UNL     1      -2.291  -4.729  -8.300  0.00  0.00    +0.068 C 
BRANCH   9  11
ATOM     11  C   UNL     1       1.124  -2.532  -5.453  0.00  0.00    +0.070 A 
ATOM     12  C   UNL     1       1.005  -1.659  -4.380  0.00  0.00    +0.028 A 
ATOM     13  C   UNL     1       2.078  -0.873  -4.009  0.00  0.00    +0.002 A 
ATOM     14  C   UNL     1       3.270  -0.955  -4.705  0.00  0.00    +0.000 A 
ATOM     15  C   UNL     1       3.392  -1.823  -5.774  0.00  0.00    +0.005 A 
ATOM     16  C   UNL     1       2.323  -2.616  -6.147  0.00  0.00    -0.025 A 
ATOM     17  C   UNL     1       2.458  -3.566  -7.308  0.00  0.00    +0.046 C 
ENDBRANCH   9  11
BRANCH   6  18
ATOM     18  C   UNL     1      -2.744  -5.633  -5.297  0.00  0.00    -0.013 A 
ATOM     19  C   UNL     1      -2.398  -6.864  -4.744  0.00  0.00    +0.008 A 
ATOM     20  C   UNL     1      -3.386  -7.720  -4.300  0.00  0.00    +0.001 A 
ATOM     21  C   UNL     1      -4.717  -7.356  -4.403  0.00  0.00    +0.000 A 
ATOM     22  C   UNL     1      -5.065  -6.135  -4.951  0.00  0.00    +0.001 A 
ATOM     23  C   UNL     1      -4.086  -5.269  -5.393  0.00  0.00    +0.008 A 
ENDBRANCH   6  18
ENDBRANCH   3   5
BRANCH   1  24
ATOM     24  C   UNL     1       0.763  -4.808  -1.623  0.00  0.00    +0.205 C 
BRANCH  24  25
ATOM     25  N   UNL     1       2.099  -5.333  -1.329  0.00  0.00    -0.168 NA
BRANCH  25  26
ATOM     26  S   UNL     1       2.317  -6.957  -1.094  0.00  0.00    +0.061 S 
ATOM     27  O   UNL     1       1.246  -7.611  -1.761  0.00  0.00    -0.153 OA
ATOM     28  O   UNL     1       3.680  -7.231  -1.389  0.00  0.00    -0.153 OA
BRANCH  26  29
ATOM     29  C   UNL     1       2.102  -7.268   0.627  0.00  0.00    +0.106 A 
ATOM     30  C   UNL     1       3.186  -7.201   1.482  0.00  0.00    +0.031 A 
ATOM     31  C   UNL     1       3.018  -7.444   2.832  0.00  0.00    +0.040 A 
ATOM     32  C   UNL     1       1.764  -7.754   3.329  0.00  0.00    +0.124 A 
ATOM     33  C   UNL     1       0.678  -7.821   2.472  0.00  0.00    +0.040 A 
ATOM     34  C   UNL     1       0.847  -7.572   1.123  0.00  0.00    +0.031 A 
ATOM     35  F   UNL     1       1.599  -7.992   4.648  0.00  0.00    -0.205 F 
ENDBRANCH  26  29
ENDBRANCH  25  26
BRANCH  25  36
ATOM     36  C   UNL     1       3.242  -4.420  -1.243  0.00  0.00    +0.110 C 
BRANCH  36  38
ATOM     37  C   UNL     1       4.516  -2.882   0.257  0.00  0.00    +0.005 C 
ATOM     38  C   UNL     1       3.322  -3.834   0.168  0.00  0.00    +0.014 C 
ENDBRANCH  36  38
ENDBRANCH  25  36
ENDBRANCH  24  25
ENDBRANCH   1  24
TORSDOF 9
