REMARK  Name = ZINC08957453
REMARK  12 active torsions:
REMARK  status: ('A' for Active; 'I' for Inactive)
REMARK    1  A    between atoms: C_1  and  C_2
REMARK    2  A    between atoms: C_2  and  N_3
REMARK    3  A    between atoms: N_3  and  C_4
REMARK    4  A    between atoms: N_3  and  S_11
REMARK    5  A    between atoms: C_4  and  C_5
REMARK    6  A    between atoms: S_11  and  C_14
REMARK    7  A    between atoms: C_17  and  C_20
REMARK    8  A    between atoms: C_20  and  N_22
REMARK    9  A    between atoms: N_24  and  C_34
REMARK   10  A    between atoms: C_26  and  O_32
REMARK   11  A    between atoms: O_32  and  C_33
REMARK   12  A    between atoms: C_34  and  C_35
REMARK                            x       y       z     vdW  Elec       q    Type
REMARK                         _______ _______ _______ _____ _____    ______ ____
ROOT
ATOM      1  C   UNL     1      -6.555  -0.444  -3.640  0.00  0.00    +0.106 A 
ATOM      2  C   UNL     1      -6.988  -1.113  -2.509  0.00  0.00    +0.029 A 
ATOM      3  C   UNL     1      -6.123  -1.323  -1.455  0.00  0.00    +0.015 A 
ATOM      4  C   UNL     1      -4.810  -0.858  -1.531  0.00  0.00    +0.039 A 
ATOM      5  C   UNL     1      -4.381  -0.180  -2.672  0.00  0.00    +0.015 A 
ATOM      6  C   UNL     1      -5.254   0.019  -3.722  0.00  0.00    +0.029 A 
ENDROOT
BRANCH   1   7
ATOM      7  S   UNL     1      -7.666  -0.181  -4.983  0.00  0.00    +0.061 S 
ATOM      8  O   UNL     1      -6.875  -0.143  -6.163  0.00  0.00    -0.153 OA
ATOM      9  O   UNL     1      -8.735  -1.101  -4.812  0.00  0.00    -0.153 OA
BRANCH   7  10
ATOM     10  N   UNL     1      -8.309   1.333  -4.796  0.00  0.00    -0.173 NA
BRANCH  10  12
ATOM     11  C   UNL     1      -9.079   1.928  -2.552  0.00  0.00    +0.022 C 
ATOM     12  C   UNL     1      -9.502   1.525  -3.966  0.00  0.00    +0.106 C 
ENDBRANCH  10  12
BRANCH  10  13
ATOM     13  C   UNL     1      -7.686   2.481  -5.460  0.00  0.00    +0.144 C 
BRANCH  13  14
ATOM     14  C   UNL     1      -8.400   2.759  -6.758  0.00  0.00    -0.032 A 
ATOM     15  C   UNL     1      -7.906   2.244  -7.942  0.00  0.00    +0.005 A 
ATOM     16  C   UNL     1      -8.563   2.494  -9.132  0.00  0.00    +0.000 A 
ATOM     17  C   UNL     1      -9.709   3.268  -9.139  0.00  0.00    +0.000 A 
ATOM     18  C   UNL     1     -10.200   3.788  -7.956  0.00  0.00    +0.000 A 
ATOM     19  C   UNL     1      -9.545   3.533  -6.765  0.00  0.00    +0.005 A 
ENDBRANCH  13  14
ENDBRANCH  10  13
ENDBRANCH   7  10
ENDBRANCH   1   7
BRANCH   4  20
ATOM     20  C   UNL     1      -3.876  -1.080  -0.403  0.00  0.00    +0.269 C 
ATOM     21  O   UNL     1      -4.255  -1.669   0.595  0.00  0.00    -0.268 OA
BRANCH  20  22
ATOM     22  N   UNL     1      -2.619  -0.634  -0.479  0.00  0.00    -0.152 NA
ATOM     23  C   UNL     1      -1.781  -0.833   0.534  0.00  0.00    +0.167 A 
ATOM     24  N   UNL     1      -0.478  -0.456   0.637  0.00  0.00    -0.314 N 
ATOM     25  C   UNL     1       0.242  -0.759   1.779  0.00  0.00    +0.100 A 
ATOM     26  C   UNL     1       1.585  -0.453   2.072  0.00  0.00    +0.145 A 
ATOM     27  C   UNL     1       2.146  -0.830   3.274  0.00  0.00    +0.048 A 
ATOM     28  C   UNL     1       1.409  -1.514   4.226  0.00  0.00    +0.005 A 
ATOM     29  C   UNL     1       0.086  -1.823   3.964  0.00  0.00    +0.017 A 
ATOM     30  C   UNL     1      -0.476  -1.447   2.765  0.00  0.00    +0.042 A 
ATOM     31  S   UNL     1      -2.086  -1.635   2.041  0.00  0.00    -0.052 S 
BRANCH  26  32
ATOM     32  O   UNL     1       2.337   0.218   1.159  0.00  0.00    -0.493 OA
ATOM     33  C   UNL     1       3.694   0.494   1.513  0.00  0.00    +0.277 C 
ENDBRANCH  26  32
BRANCH  24  34
ATOM     34  C   UNL     1       0.164   0.266  -0.464  0.00  0.00    +0.151 C 
BRANCH  34  35
ATOM     35  C   UNL     1      -0.018   1.749  -0.266  0.00  0.00    -0.013 C 
ATOM     36  C   UNL     1       1.026   2.540  -0.244  0.00  0.00    +0.005 C 
ENDBRANCH  34  35
ENDBRANCH  24  34
ENDBRANCH  20  22
ENDBRANCH   4  20
TORSDOF 10
