REMARK  Name = ZINC16399063
REMARK  6 active torsions:
REMARK  status: ('A' for Active; 'I' for Inactive)
REMARK    1  A    between atoms: C_3  and  C_8
REMARK    2  A    between atoms: C_11  and  C_13
REMARK    3  A    between atoms: N_15  and  C_16
REMARK    4  A    between atoms: C_16  and  N_18
REMARK    5  A    between atoms: N_18  and  C_19
REMARK    6  A    between atoms: C_20  and  C_27
REMARK                            x       y       z     vdW  Elec       q    Type
REMARK                         _______ _______ _______ _____ _____    ______ ____
ROOT
ATOM      1  C   UNL     1       5.277   7.505   0.006  0.00  0.00    +0.142 C 
ATOM      2  S   UNL     1       6.971   7.756  -0.013  0.00  0.00    -0.018 S 
ENDROOT
BRANCH   1   5
ATOM      3  C   UNL     1       5.619   5.196  -0.019  0.00  0.00    +0.285 C 
ATOM      4  O   UNL     1       6.822   5.374  -0.032  0.00  0.00    -0.266 OA
ATOM      5  N   UNL     1       4.781   6.252   0.001  0.00  0.00    -0.261 N 
ATOM      6  H   UNL     1       3.822   6.110   0.011  0.00  0.00    +0.157 HD
BRANCH   3  10
ATOM      7  C   UNL     1       3.656   2.161  -0.022  0.00  0.00    +0.136 A 
ATOM      8  C   UNL     1       4.906   1.613  -0.042  0.00  0.00    +0.050 A 
ATOM      9  C   UNL     1       5.820   2.672  -0.044  0.00  0.00    +0.055 A 
ATOM     10  C   UNL     1       5.080   3.835  -0.024  0.00  0.00    +0.190 A 
ATOM     11  O   UNL     1       3.772   3.499  -0.017  0.00  0.00    -0.450 OA
BRANCH   7  14
ATOM     12  C   UNL     1      -0.017   1.379   0.010  0.00  0.00    +0.002 A 
ATOM     13  C   UNL     1       1.167   2.088   0.002  0.00  0.00    +0.011 A 
ATOM     14  C   UNL     1       2.386   1.408  -0.013  0.00  0.00    +0.019 A 
ATOM     15  C   UNL     1       2.398   0.011  -0.021  0.00  0.00    +0.031 A 
ATOM     16  C   UNL     1       1.207  -0.686  -0.013  0.00  0.00    +0.042 A 
ATOM     17  C   UNL     1       0.002  -0.004   0.002  0.00  0.00    +0.020 A 
ATOM     18 CL   UNL     1       1.220  -2.422  -0.022  0.00  0.00    -0.084 Cl
ENDBRANCH   7  14
ENDBRANCH   3  10
ENDBRANCH   1   5
BRANCH   1  19
ATOM     19  N   UNL     1       4.440   8.561   0.026  0.00  0.00    -0.291 N 
ATOM     20  H   UNL     1       3.480   8.419   0.036  0.00  0.00    +0.154 HD
BRANCH  19  21
ATOM     21  C   UNL     1       4.949   9.850   0.031  0.00  0.00    +0.084 A 
ATOM     22  C   UNL     1       4.249  11.041   0.056  0.00  0.00    +0.068 A 
ATOM     23  C   UNL     1       5.029  12.278   0.056  0.00  0.00    -0.023 A 
ATOM     24  C   UNL     1       6.360  12.086   0.030  0.00  0.00    -0.004 A 
ATOM     25  S   UNL     1       6.559  10.322   0.015  0.00  0.00    -0.077 S 
ATOM     26  C   UNL     1       7.115  13.388   0.028  0.00  0.00    +0.043 C 
ATOM     27  C   UNL     1       6.065  14.447  -0.377  0.00  0.00    +0.010 C 
ATOM     28  C   UNL     1       4.752  13.779   0.081  0.00  0.00    +0.037 C 
BRANCH  22  29
ATOM     29  C   UNL     1       2.783  11.064   0.080  0.00  0.00    +0.244 C 
ATOM     30  O   UNL     1       2.192  11.062   1.144  0.00  0.00    -0.270 OA
ATOM     31  N   UNL     1       2.090  11.088  -1.076  0.00  0.00    -0.325 N 
ATOM     32  H   UNL     1       2.562  11.089  -1.924  0.00  0.00    +0.145 HD
ATOM     33  H   UNL     1       1.121  11.103  -1.060  0.00  0.00    +0.145 HD
ENDBRANCH  22  29
ENDBRANCH  19  21
ENDBRANCH   1  19
TORSDOF 6
