REMARK  Name = ZINC15941262
REMARK  12 active torsions:
REMARK  status: ('A' for Active; 'I' for Inactive)
REMARK    1  A    between atoms: C_1  and  C_2
REMARK    2  A    between atoms: N_6  and  C_21
REMARK    3  A    between atoms: C_10  and  C_20
REMARK    4  A    between atoms: N_11  and  C_12
REMARK    5  A    between atoms: C_12  and  C_13
REMARK    6  A    between atoms: C_21  and  C_22
REMARK    7  A    between atoms: N_24  and  C_25
REMARK    8  A    between atoms: C_25  and  C_26
REMARK    9  A    between atoms: C_26  and  C_27
REMARK   10  A    between atoms: C_27  and  N_28
REMARK   11  A    between atoms: C_30  and  C_37
REMARK   12  A    between atoms: C_33  and  C_36
REMARK                            x       y       z     vdW  Elec       q    Type
REMARK                         _______ _______ _______ _____ _____    ______ ____
ROOT
ATOM      1  C   UNL     1      -0.561   0.469  -0.680  0.00  0.00    +0.064 C 
ATOM      2  C   UNL     1      -0.238  -0.870  -0.070  0.00  0.00    +0.026 A 
ATOM      3  C   UNL     1      -0.204  -2.054  -0.729  0.00  0.00    +0.028 A 
ATOM      4  C   UNL     1      -0.429  -2.505  -2.104  0.00  0.00    +0.143 A 
ATOM      5  N   UNL     1      -0.308  -3.764  -2.398  0.00  0.00    -0.176 NA
ATOM      6  N   UNL     1       0.031  -4.742  -1.467  0.00  0.00    -0.220 N 
ATOM      7  C   UNL     1       0.264  -4.463  -0.168  0.00  0.00    +0.277 A 
ATOM      8  O   UNL     1       0.558  -5.348   0.615  0.00  0.00    -0.265 OA
ATOM      9  C   UNL     1       0.157  -3.073   0.282  0.00  0.00    +0.070 A 
ATOM     10  C   UNL     1       0.307  -2.405   1.454  0.00  0.00    +0.029 A 
ATOM     11  N   UNL     1       0.076  -1.094   1.236  0.00  0.00    -0.343 N 
ATOM     12  C   UNL     1       0.676  -3.025   2.778  0.00  0.00    +0.064 C 
ENDROOT
BRANCH  11  13
ATOM     13  C   UNL     1       0.148  -0.053   2.265  0.00  0.00    +0.158 C 
BRANCH  13  14
ATOM     14  C   UNL     1       1.578   0.395   2.426  0.00  0.00    -0.009 A 
ATOM     15  C   UNL     1       2.458  -0.359   3.180  0.00  0.00    +0.007 A 
ATOM     16  C   UNL     1       3.769   0.051   3.328  0.00  0.00    +0.000 A 
ATOM     17  C   UNL     1       4.202   1.216   2.723  0.00  0.00    +0.001 A 
ATOM     18  C   UNL     1       3.324   1.971   1.968  0.00  0.00    +0.020 A 
ATOM     19  C   UNL     1       2.012   1.557   1.815  0.00  0.00    +0.046 A 
ATOM     20 CL   UNL     1       0.909   2.501   0.863  0.00  0.00    -0.083 Cl
ENDBRANCH  13  14
ENDBRANCH  11  13
BRANCH   6  21
ATOM     21  C   UNL     1       0.138  -6.133  -1.917  0.00  0.00    +0.243 C 
BRANCH  21  22
ATOM     22  C   UNL     1      -1.201  -6.809  -1.781  0.00  0.00    +0.235 C 
ATOM     23  O   UNL     1      -2.152  -6.191  -1.350  0.00  0.00    -0.274 OA
ATOM     24  N   UNL     1      -1.343  -8.101  -2.137  0.00  0.00    -0.314 N 
ATOM     25  H   UNL     1      -0.582  -8.596  -2.482  0.00  0.00    +0.149 HD
BRANCH  24  26
ATOM     26  C   UNL     1      -2.645  -8.759  -2.005  0.00  0.00    +0.102 C 
BRANCH  26  27
ATOM     27  C   UNL     1      -2.533 -10.211  -2.475  0.00  0.00    +0.000 C 
BRANCH  27  28
ATOM     28  C   UNL     1      -3.893 -10.898  -2.337  0.00  0.00    -0.077 C 
BRANCH  28  29
ATOM     29  N   UNL     1      -3.785 -12.292  -2.788  0.00  0.00    +0.380 N 
ATOM     30  C   UNL     1      -3.472 -12.318  -4.221  0.00  0.00    -0.076 C 
ATOM     31  C   UNL     1      -3.279 -13.765  -4.679  0.00  0.00    -0.031 C 
ATOM     32  C   UNL     1      -4.567 -14.552  -4.422  0.00  0.00    +0.003 C 
ATOM     33  C   UNL     1      -4.925 -14.457  -2.936  0.00  0.00    -0.031 C 
ATOM     34  C   UNL     1      -5.057 -12.983  -2.543  0.00  0.00    -0.076 C 
ATOM     35  C   UNL     1      -6.252 -15.175  -2.683  0.00  0.00    +0.005 C 
ATOM     36  C   UNL     1      -2.127 -14.400  -3.896  0.00  0.00    +0.005 C 
ATOM     37  H   UNL     1      -3.049 -12.754  -2.276  0.00  0.00    -0.082 HD
ENDBRANCH  28  29
ENDBRANCH  27  28
ENDBRANCH  26  27
ENDBRANCH  24  26
ENDBRANCH  21  22
ENDBRANCH   6  21
TORSDOF 8
