REMARK  Name = ZINC27794691
REMARK  11 active torsions:
REMARK  status: ('A' for Active; 'I' for Inactive)
REMARK    1  A    between atoms: C_1  and  C_2
REMARK    2  A    between atoms: C_2  and  S_3
REMARK    3  A    between atoms: S_3  and  C_6
REMARK    4  A    between atoms: C_9  and  N_22
REMARK    5  A    between atoms: C_10  and  C_12
REMARK    6  A    between atoms: N_14  and  C_15
REMARK    7  A    between atoms: C_18  and  C_21
REMARK    8  A    between atoms: N_22  and  C_23
REMARK    9  A    between atoms: N_22  and  C_29
REMARK   10  A    between atoms: C_23  and  C_24
REMARK   11  A    between atoms: C_29  and  C_30
REMARK                            x       y       z     vdW  Elec       q    Type
REMARK                         _______ _______ _______ _____ _____    ______ ____
ROOT
ATOM      1  C   UNL     1      -0.893  -1.888   3.281  0.00  0.00    +0.271 A 
ATOM      2  N   UNL     1      -1.584  -2.196   2.200  0.00  0.00    -0.218 NA
ATOM      3  C   UNL     1      -2.294  -1.286   1.560  0.00  0.00    +0.140 A 
ATOM      4  C   UNL     1      -2.308   0.026   2.044  0.00  0.00    +0.080 A 
ATOM      5  C   UNL     1      -1.556   0.314   3.193  0.00  0.00    +0.152 A 
ATOM      6  N   UNL     1      -0.873  -0.671   3.776  0.00  0.00    -0.205 NA
ENDROOT
BRANCH   5   7
ATOM      7  C   UNL     1      -1.525   1.684   3.751  0.00  0.00    +0.269 C 
ATOM      8  O   UNL     1      -2.156   2.573   3.212  0.00  0.00    -0.268 OA
ATOM      9  N   UNL     1      -0.799   1.946   4.855  0.00  0.00    -0.280 N 
ATOM     10  H   UNL     1      -0.290   1.128   5.386  0.00  0.00    +0.155 HD
BRANCH   9  11
ATOM     11  C   UNL     1      -0.692   3.259   5.326  0.00  0.00    +0.034 A 
ATOM     12  C   UNL     1       0.490   3.693   5.913  0.00  0.00    +0.023 A 
ATOM     13  C   UNL     1       0.594   4.992   6.372  0.00  0.00    +0.005 A 
ATOM     14  C   UNL     1      -0.480   5.855   6.259  0.00  0.00    -0.050 A 
ATOM     15  C   UNL     1      -1.660   5.424   5.679  0.00  0.00    +0.005 A 
ATOM     16  C   UNL     1      -1.768   4.129   5.213  0.00  0.00    +0.023 A 
ATOM     17  C   UNL     1      -0.365   7.269   6.767  0.00  0.00    +0.044 C 
ENDBRANCH   9  11
ENDBRANCH   5   7
BRANCH   1  18
ATOM     18  S   UNL     1       0.034  -3.151   4.088  0.00  0.00    +0.032 S 
ATOM     19  O   UNL     1       0.127  -2.725   5.440  0.00  0.00    -0.166 OA
ATOM     20  O   UNL     1      -0.632  -4.360   3.753  0.00  0.00    -0.166 OA
BRANCH  18  22
ATOM     21  C   UNL     1       2.569  -4.168   3.932  0.00  0.00    +0.028 C 
ATOM     22  C   UNL     1       1.669  -3.102   3.304  0.00  0.00    +0.172 C 
ENDBRANCH  18  22
ENDBRANCH   1  18
BRANCH   4  23
ATOM     23  N   UNL     1      -3.040   1.016   1.403  0.00  0.00    -0.315 N 
BRANCH  23  24
ATOM     24  C   UNL     1      -4.479   0.722   1.450  0.00  0.00    +0.179 C 
BRANCH  24  25
ATOM     25  C   UNL     1      -5.253   1.922   0.970  0.00  0.00    +0.122 A 
ATOM     26  C   UNL     1      -5.614   2.167  -0.303  0.00  0.00    +0.046 A 
ATOM     27  C   UNL     1      -6.320   3.392  -0.300  0.00  0.00    +0.041 A 
ATOM     28  C   UNL     1      -6.349   3.822   0.975  0.00  0.00    +0.195 A 
ATOM     29  O   UNL     1      -5.706   2.924   1.740  0.00  0.00    -0.466 OA
ENDBRANCH  24  25
ENDBRANCH  23  24
BRANCH  23  30
ATOM     30  C   UNL     1      -2.585   1.194   0.018  0.00  0.00    +0.148 C 
BRANCH  30  31
ATOM     31  C   UNL     1      -1.177   1.732   0.017  0.00  0.00    +0.007 A 
ATOM     32  C   UNL     1      -0.004   1.053   0.013  0.00  0.00    +0.013 A 
ATOM     33  C   UNL     1       1.182   1.764   0.007  0.00  0.00    +0.008 A 
ATOM     34  C   UNL     1       1.136   3.118   0.009  0.00  0.00    +0.045 A 
ATOM     35  S   UNL     1      -0.622   3.429   0.022  0.00  0.00    -0.100 S 
ENDBRANCH  30  31
ENDBRANCH  23  30
ENDBRANCH   4  23
TORSDOF 9
