REMARK  Name = ZINC02914874
REMARK  3 active torsions:
REMARK  status: ('A' for Active; 'I' for Inactive)
REMARK    1  A    between atoms: C_1  and  C_2
REMARK    2  A    between atoms: C_5  and  C_8
REMARK    3  A    between atoms: C_11  and  C_22
REMARK                            x       y       z     vdW  Elec       q    Type
REMARK                         _______ _______ _______ _____ _____    ______ ____
ROOT
ATOM      1  C   UNL     1      -0.050   3.811  -0.553  0.00  0.00    +0.145 C 
ATOM      2  C   UNL     1       1.187   3.012  -0.249  0.00  0.00    +0.026 C 
ATOM      3  C   UNL     1       1.175   1.711   0.000  0.00  0.00    +0.040 C 
ATOM      4  N   UNL     1      -0.011   0.966   0.007  0.00  0.00    -0.285 N 
ATOM      5  C   UNL     1      -1.204   1.671   0.017  0.00  0.00    +0.202 A 
ATOM      6  N   UNL     1      -1.241   3.023  -0.235  0.00  0.00    -0.301 N 
ATOM      7  C   UNL     1      -2.546   3.416  -0.135  0.00  0.00    +0.071 A 
ATOM      8  C   UNL     1      -3.175   4.645  -0.299  0.00  0.00    +0.028 A 
ATOM      9  C   UNL     1      -4.550   4.676  -0.127  0.00  0.00    +0.002 A 
ATOM     10  C   UNL     1      -5.276   3.539   0.181  0.00  0.00    +0.002 A 
ATOM     11  C   UNL     1      -4.673   2.304   0.338  0.00  0.00    +0.030 A 
ATOM     12  C   UNL     1      -3.285   2.249   0.170  0.00  0.00    +0.091 A 
ATOM     13  N   UNL     1      -2.409   1.227   0.252  0.00  0.00    -0.214 NA
ATOM     14  H   UNL     1       0.002  -0.004   0.002  0.00  0.00    +0.155 HD
ENDROOT
BRANCH   1  19
ATOM     15  C   UNL     1      -0.106   5.204  -6.160  0.00  0.00    +0.044 C 
ATOM     16  C   UNL     1      -0.091   4.841  -4.698  0.00  0.00    -0.050 A 
ATOM     17  C   UNL     1      -0.091   5.836  -3.739  0.00  0.00    +0.004 A 
ATOM     18  C   UNL     1      -0.078   5.503  -2.397  0.00  0.00    +0.006 A 
ATOM     19  C   UNL     1      -0.065   4.174  -2.015  0.00  0.00    -0.021 A 
ATOM     20  C   UNL     1      -0.059   3.179  -2.975  0.00  0.00    +0.006 A 
ATOM     21  C   UNL     1      -0.078   3.512  -4.316  0.00  0.00    +0.004 A 
ENDBRANCH   1  19
BRANCH   3  22
ATOM     22  C   UNL     1       2.456   1.022   0.279  0.00  0.00    +0.014 A 
ATOM     23  C   UNL     1       2.481  -0.351   0.546  0.00  0.00    +0.013 A 
ATOM     24  C   UNL     1       3.704  -0.947   0.801  0.00  0.00    +0.020 A 
ATOM     25  C   UNL     1       4.851  -0.174   0.784  0.00  0.00    +0.111 A 
ATOM     26  N   UNL     1       4.796   1.119   0.528  0.00  0.00    -0.263 NA
ATOM     27  C   UNL     1       3.656   1.730   0.275  0.00  0.00    +0.120 A 
ENDBRANCH   3  22
TORSDOF 2
