REMARK  Name = ZINC09380818
REMARK  10 active torsions:
REMARK  status: ('A' for Active; 'I' for Inactive)
REMARK    1  A    between atoms: C_1  and  C_2
REMARK    2  A    between atoms: C_2  and  S_3
REMARK    3  A    between atoms: S_3  and  N_6
REMARK    4  A    between atoms: N_6  and  C_7
REMARK    5  A    between atoms: C_10  and  C_13
REMARK    6  A    between atoms: N_15  and  S_26
REMARK    7  A    between atoms: C_16  and  C_19
REMARK    8  A    between atoms: S_26  and  C_29
REMARK    9  A    between atoms: C_32  and  O_35
REMARK   10  A    between atoms: O_35  and  C_36
REMARK                            x       y       z     vdW  Elec       q    Type
REMARK                         _______ _______ _______ _____ _____    ______ ____
ROOT
ATOM      1  C   UNL     1      -3.315  -0.157   3.965  0.00  0.00    +0.070 C 
ATOM      2  N   UNL     1      -2.927  -0.088   2.738  0.00  0.00    -0.167 NA
ATOM      3  N   UNL     1      -3.411   1.022   2.050  0.00  0.00    -0.115 N 
ATOM      4  C   UNL     1      -4.247   1.820   2.960  0.00  0.00    +0.154 C 
ATOM      5  C   UNL     1      -4.202   1.026   4.281  0.00  0.00    +0.088 C 
ENDROOT
BRANCH   4   6
ATOM      6  C   UNL     1      -5.661   1.905   2.445  0.00  0.00    -0.023 A 
ATOM      7  C   UNL     1      -6.244   0.806   1.843  0.00  0.00    +0.008 A 
ATOM      8  C   UNL     1      -7.542   0.881   1.374  0.00  0.00    +0.038 A 
ATOM      9  C   UNL     1      -8.254   2.062   1.498  0.00  0.00    +0.123 A 
ATOM     10  C   UNL     1      -7.667   3.164   2.096  0.00  0.00    +0.038 A 
ATOM     11  C   UNL     1      -6.371   3.085   2.568  0.00  0.00    +0.008 A 
ATOM     12  F   UNL     1      -9.521   2.138   1.036  0.00  0.00    -0.205 F 
ENDBRANCH   4   6
BRANCH   1  16
ATOM     13  C   UNL     1      -2.266  -3.233   6.697  0.00  0.00    +0.048 A 
ATOM     14  C   UNL     1      -1.782  -3.269   5.394  0.00  0.00    +0.025 A 
ATOM     15  C   UNL     1      -2.120  -2.272   4.505  0.00  0.00    +0.011 A 
ATOM     16  C   UNL     1      -2.950  -1.225   4.913  0.00  0.00    -0.002 A 
ATOM     17  C   UNL     1      -3.430  -1.190   6.225  0.00  0.00    +0.011 A 
ATOM     18  C   UNL     1      -3.092  -2.193   7.107  0.00  0.00    +0.025 A 
BRANCH  13  19
ATOM     19  N   UNL     1      -1.921  -4.245   7.595  0.00  0.00    -0.221 N 
ATOM     20  H   UNL     1      -2.570  -4.927   7.829  0.00  0.00    +0.173 HD
BRANCH  19  21
ATOM     21  S   UNL     1      -0.406  -4.280   8.261  0.00  0.00    +0.043 S 
ATOM     22  O   UNL     1      -0.406  -5.425   9.104  0.00  0.00    -0.155 OA
ATOM     23  O   UNL     1       0.479  -4.198   7.152  0.00  0.00    -0.155 OA
BRANCH  21  25
ATOM     24  C   UNL     1       1.114  -2.634   9.830  0.00  0.00    +0.030 C 
ATOM     25  C   UNL     1      -0.299  -2.769   9.258  0.00  0.00    +0.185 C 
ENDBRANCH  21  25
ENDBRANCH  19  21
ENDBRANCH  13  19
ENDBRANCH   1  16
BRANCH   3  26
ATOM     26  S   UNL     1      -3.091   1.388   0.466  0.00  0.00    +0.089 S 
ATOM     27  O   UNL     1      -4.094   2.306   0.051  0.00  0.00    -0.149 OA
ATOM     28  O   UNL     1      -2.867   0.153  -0.199  0.00  0.00    -0.149 OA
BRANCH  26  29
ATOM     29  C   UNL     1      -1.562   2.264   0.432  0.00  0.00    +0.110 A 
ATOM     30  C   UNL     1      -0.373   1.571   0.299  0.00  0.00    +0.032 A 
ATOM     31  C   UNL     1       0.826   2.255   0.266  0.00  0.00    +0.047 A 
ATOM     32  C   UNL     1       0.838   3.638   0.372  0.00  0.00    +0.120 A 
ATOM     33  C   UNL     1      -0.357   4.331   0.512  0.00  0.00    +0.047 A 
ATOM     34  C   UNL     1      -1.553   3.642   0.545  0.00  0.00    +0.032 A 
BRANCH  32  35
ATOM     35  O   UNL     1       2.016   4.314   0.340  0.00  0.00    -0.495 OA
ATOM     36  C   UNL     1       1.952   5.737   0.455  0.00  0.00    +0.277 C 
ENDBRANCH  32  35
ENDBRANCH  26  29
ENDBRANCH   3  26
TORSDOF 8
