REMARK  Name = ZINC03573224
REMARK  10 active torsions:
REMARK  status: ('A' for Active; 'I' for Inactive)
REMARK    1  A    between atoms: C_1  and  C_2
REMARK    2  A    between atoms: C_5  and  C_29
REMARK    3  A    between atoms: C_6  and  N_8
REMARK    4  A    between atoms: C_9  and  C_11
REMARK    5  A    between atoms: C_11  and  S_12
REMARK    6  A    between atoms: S_12  and  C_13
REMARK    7  A    between atoms: C_16  and  C_19
REMARK    8  A    between atoms: N_17  and  N_18
REMARK    9  A    between atoms: C_22  and  O_25
REMARK   10  A    between atoms: O_25  and  C_26
REMARK                            x       y       z     vdW  Elec       q    Type
REMARK                         _______ _______ _______ _____ _____    ______ ____
ROOT
ATOM      1  C   UNL     1       0.618   0.027  -0.154  0.00  0.00    +0.209 A 
ATOM      2  N   UNL     1       1.683  -0.743  -0.164  0.00  0.00    -0.121 NA
ATOM      3  N   UNL     1       1.333  -1.979  -0.209  0.00  0.00    -0.127 NA
ATOM      4  C   UNL     1       0.024  -2.074  -0.240  0.00  0.00    +0.182 A 
ATOM      5  N   UNL     1      -0.474  -0.792  -0.205  0.00  0.00    -0.224 N 
ENDROOT
BRANCH   4   6
ATOM      6  C   UNL     1      -0.765  -3.322  -0.300  0.00  0.00    +0.021 A 
ATOM      7  C   UNL     1      -0.177  -4.540   0.047  0.00  0.00    +0.015 A 
ATOM      8  C   UNL     1      -0.918  -5.701  -0.006  0.00  0.00    +0.046 A 
ATOM      9  C   UNL     1      -2.245  -5.662  -0.414  0.00  0.00    +0.127 A 
ATOM     10  C   UNL     1      -2.832  -4.454  -0.765  0.00  0.00    +0.046 A 
ATOM     11  C   UNL     1      -2.100  -3.287  -0.710  0.00  0.00    +0.015 A 
BRANCH   9  12
ATOM     12  O   UNL     1      -2.970  -6.809  -0.471  0.00  0.00    -0.434 OA
BRANCH  12  13
ATOM     13  C   UNL     1      -2.305  -8.017  -0.096  0.00  0.00    +0.541 C 
ATOM     14  F   UNL     1      -1.207  -8.225  -0.938  0.00  0.00    -0.166 F 
ATOM     15  F   UNL     1      -1.865  -7.915   1.228  0.00  0.00    -0.166 F 
ENDBRANCH  12  13
ENDBRANCH   9  12
ENDBRANCH   4   6
BRANCH   5  16
ATOM     16  N   UNL     1      -1.788  -0.416  -0.219  0.00  0.00    -0.295 N 
ATOM     17  H   UNL     1      -2.098  -0.220  -1.159  0.00  0.00    +0.163 HD
ATOM     18  H   UNL     1      -2.369  -1.117   0.214  0.00  0.00    +0.163 HD
ENDBRANCH   5  16
BRANCH   1  19
ATOM     19  S   UNL     1       0.603   1.788  -0.093  0.00  0.00    -0.075 S 
BRANCH  19  20
ATOM     20  C   UNL     1       2.382   2.116  -0.045  0.00  0.00    +0.173 C 
BRANCH  20  22
ATOM     21  N   UNL     1       3.875   4.086   0.055  0.00  0.00    -0.285 N 
ATOM     22  C   UNL     1       2.617   3.604   0.011  0.00  0.00    +0.227 C 
ATOM     23  O   UNL     1       1.674   4.367   0.018  0.00  0.00    -0.275 OA
ATOM     24  H   UNL     1       4.629   3.480  -0.008  0.00  0.00    +0.155 HD
BRANCH  21  30
ATOM     25  C   UNL     1       2.481   8.705  -0.894  0.00  0.00    +0.044 C 
ATOM     26  C   UNL     1       3.432   7.723  -0.259  0.00  0.00    -0.049 A 
ATOM     27  C   UNL     1       4.522   8.182   0.458  0.00  0.00    +0.004 A 
ATOM     28  C   UNL     1       5.397   7.284   1.042  0.00  0.00    +0.005 A 
ATOM     29  C   UNL     1       5.185   5.926   0.910  0.00  0.00    -0.029 A 
ATOM     30  C   UNL     1       4.092   5.462   0.190  0.00  0.00    +0.037 A 
ATOM     31  C   UNL     1       3.218   6.366  -0.399  0.00  0.00    +0.027 A 
ATOM     32  C   UNL     1       6.139   4.948   1.546  0.00  0.00    +0.045 C 
ENDBRANCH  21  30
ENDBRANCH  20  22
ENDBRANCH  19  20
ENDBRANCH   1  19
TORSDOF 8
