REMARK  Name = ZINC01808110
REMARK  11 active torsions:
REMARK  status: ('A' for Active; 'I' for Inactive)
REMARK    1  A    between atoms: C_1  and  C_2
REMARK    2  A    between atoms: C_2  and  C_3
REMARK    3  A    between atoms: C_3  and  N_61
REMARK    4  A    between atoms: N_13  and  C_22
REMARK    5  A    between atoms: C_14  and  S_16
REMARK    6  A    between atoms: S_16  and  C_17
REMARK    7  A    between atoms: C_17  and  C_18
REMARK    8  A    between atoms: C_18  and  C_19
REMARK    9  A    between atoms: C_19  and  C_20
REMARK   10  A    between atoms: C_19  and  C_21
REMARK   11  A    between atoms: C_25  and  C_28
REMARK                            x       y       z     vdW  Elec       q    Type
REMARK                         _______ _______ _______ _____ _____    ______ ____
ROOT
ATOM      1  C   UNL     1       2.778   3.679  -1.550  0.00  0.00    -0.074 C 
ATOM      2  C   UNL     1       1.304   3.268  -1.567  0.00  0.00    +0.018 C 
ATOM      3  C   UNL     1       1.192   1.868  -0.968  0.00  0.00    -0.026 A 
ATOM      4  C   UNL     1       2.291   1.090  -0.869  0.00  0.00    -0.021 A 
ATOM      5  S   UNL     1       1.723  -0.416  -0.130  0.00  0.00    -0.075 S 
ATOM      6  C   UNL     1       0.007   0.005   0.045  0.00  0.00    +0.117 A 
ATOM      7  C   UNL     1      -0.067   1.307  -0.480  0.00  0.00    +0.076 A 
ATOM      8  C   UNL     1      -1.364   1.909  -0.472  0.00  0.00    +0.268 A 
ATOM      9  O   UNL     1      -1.525   3.037  -0.907  0.00  0.00    -0.267 OA
ATOM     10  N   UNL     1      -2.404   1.218   0.031  0.00  0.00    -0.255 N 
ATOM     11  C   UNL     1      -2.243  -0.047   0.522  0.00  0.00    +0.177 A 
ATOM     12  N   UNL     1      -1.060  -0.626   0.522  0.00  0.00    -0.216 NA
ATOM     13  C   UNL     1       3.680   1.446  -1.302  0.00  0.00    -0.035 C 
ATOM     14  N   UNL     1       3.588   2.626  -2.194  0.00  0.00    +0.383 N 
ATOM     15  H   UNL     1       3.136   2.347  -3.073  0.00  0.00    -0.081 HD
ENDROOT
BRANCH  10  16
ATOM     16  C   UNL     1      -3.676   1.805   0.046  0.00  0.00    +0.052 A 
ATOM     17  C   UNL     1      -4.087   2.547   1.146  0.00  0.00    +0.026 A 
ATOM     18  C   UNL     1      -5.339   3.129   1.156  0.00  0.00    +0.005 A 
ATOM     19  C   UNL     1      -6.188   2.964   0.077  0.00  0.00    -0.050 A 
ATOM     20  C   UNL     1      -5.785   2.221  -1.017  0.00  0.00    +0.005 A 
ATOM     21  C   UNL     1      -4.531   1.641  -1.035  0.00  0.00    +0.026 A 
ATOM     22  C   UNL     1      -7.557   3.595   0.094  0.00  0.00    +0.044 C 
ENDBRANCH  10  16
BRANCH  14  23
ATOM     23  C   UNL     1       4.942   3.140  -2.494  0.00  0.00    -0.079 C 
BRANCH  23  25
ATOM     24  C   UNL     1       7.003   4.195  -1.554  0.00  0.00    +0.002 C 
ATOM     25  C   UNL     1       5.607   3.667  -1.220  0.00  0.00    -0.022 C 
ENDBRANCH  23  25
ENDBRANCH  14  23
BRANCH  11  26
ATOM     26  S   UNL     1      -3.636  -0.915   1.163  0.00  0.00    -0.087 S 
BRANCH  26  27
ATOM     27  C   UNL     1      -2.844  -2.469   1.646  0.00  0.00    +0.077 C 
BRANCH  27  28
ATOM     28  C   UNL     1      -3.890  -3.410   2.247  0.00  0.00    +0.014 C 
BRANCH  28  29
ATOM     29  C   UNL     1      -3.220  -4.723   2.655  0.00  0.00    -0.016 C 
ATOM     30  C   UNL     1      -4.238  -5.615   3.368  0.00  0.00    +0.007 C 
ATOM     31  C   UNL     1      -2.700  -5.440   1.407  0.00  0.00    +0.007 C 
ENDBRANCH  28  29
ENDBRANCH  27  28
ENDBRANCH  26  27
ENDBRANCH  11  26
TORSDOF 7
