REMARK  Name = ZINC09462632
REMARK  6 active torsions:
REMARK  status: ('A' for Active; 'I' for Inactive)
REMARK    1  A    between atoms: C_1  and  C_2
REMARK    2  A    between atoms: C_3  and  O_33
REMARK    3  A    between atoms: C_10  and  C_12
REMARK    4  A    between atoms: C_13  and  O_32
REMARK    5  A    between atoms: N_14  and  C_26
REMARK    6  A    between atoms: N_17  and  C_20
REMARK                            x       y       z     vdW  Elec       q    Type
REMARK                         _______ _______ _______ _____ _____    ______ ____
ROOT
ATOM      1  C   UNL     1       3.385   5.805   0.600  0.00  0.00    +0.110 A 
ATOM      2  C   UNL     1       4.564   5.129   0.709  0.00  0.00    +0.211 A 
ATOM      3  N   UNL     1       4.701   3.907   0.099  0.00  0.00    -0.260 N 
ATOM      4  C   UNL     1       3.682   3.377  -0.603  0.00  0.00    +0.175 A 
ATOM      5  S   UNL     1       3.878   1.852  -1.355  0.00  0.00    -0.012 S 
ATOM      6  N   UNL     1       2.511   4.029  -0.722  0.00  0.00    -0.256 N 
ATOM      7  C   UNL     1       2.336   5.233  -0.143  0.00  0.00    +0.269 A 
ATOM      8  O   UNL     1       1.275   5.821  -0.258  0.00  0.00    -0.267 OA
ENDROOT
BRANCH   1  18
ATOM      9  C   UNL     1       3.762   9.919  -3.058  0.00  0.00    +0.069 C 
ATOM     10  C   UNL     1       3.133   9.593  -1.728  0.00  0.00    +0.080 A 
ATOM     11  C   UNL     1       3.588   8.499  -1.002  0.00  0.00    +0.144 A 
ATOM     12  C   UNL     1       2.996   8.216   0.218  0.00  0.00    +0.036 A 
ATOM     13  C   UNL     1       1.968   9.035   0.669  0.00  0.00    +0.006 A 
ATOM     14  C   UNL     1       1.569  10.103  -0.106  0.00  0.00    +0.117 A 
ATOM     15  N   UNL     1       2.156  10.348  -1.266  0.00  0.00    -0.256 NA
ATOM     16  C   UNL     1       1.521   8.495   2.005  0.00  0.00    +0.198 C 
ATOM     17  O   UNL     1       2.024   7.148   2.078  0.00  0.00    -0.362 OA
ATOM     18  C   UNL     1       3.210   7.148   1.260  0.00  0.00    +0.193 C 
BRANCH  11  19
ATOM     19  O   UNL     1       4.595   7.721  -1.480  0.00  0.00    -0.505 OA
ATOM     20  H   UNL     1       4.295   6.980  -2.025  0.00  0.00    +0.292 HD
ENDBRANCH  11  19
ENDBRANCH   1  18
BRANCH   6  21
ATOM     21  C   UNL     1       1.467   3.454  -1.459  0.00  0.00    +0.052 A 
ATOM     22  C   UNL     1       0.547   2.626  -0.831  0.00  0.00    +0.026 A 
ATOM     23  C   UNL     1      -0.481   2.061  -1.560  0.00  0.00    +0.002 A 
ATOM     24  C   UNL     1      -0.591   2.315  -2.915  0.00  0.00    +0.000 A 
ATOM     25  C   UNL     1       0.321   3.144  -3.542  0.00  0.00    +0.002 A 
ATOM     26  C   UNL     1       1.351   3.712  -2.818  0.00  0.00    +0.026 A 
ENDBRANCH   6  21
BRANCH   3  27
ATOM     27  C   UNL     1       5.909   3.206   0.207  0.00  0.00    +0.052 A 
ATOM     28  C   UNL     1       6.119   2.342   1.274  0.00  0.00    +0.026 A 
ATOM     29  C   UNL     1       7.310   1.649   1.375  0.00  0.00    +0.002 A 
ATOM     30  C   UNL     1       8.296   1.823   0.421  0.00  0.00    +0.000 A 
ATOM     31  C   UNL     1       8.092   2.688  -0.639  0.00  0.00    +0.002 A 
ATOM     32  C   UNL     1       6.902   3.379  -0.749  0.00  0.00    +0.026 A 
ENDBRANCH   3  27
BRANCH   2  33
ATOM     33  O   UNL     1       5.588   5.658   1.412  0.00  0.00    -0.493 OA
ATOM     34  H   UNL     1       6.405   5.141   1.366  0.00  0.00    +0.294 HD
ENDBRANCH   2  33
TORSDOF 5
