REMARK  Name = ZINC38847511
REMARK  7 active torsions:
REMARK  status: ('A' for Active; 'I' for Inactive)
REMARK    1  A    between atoms: C_1  and  C_2
REMARK    2  A    between atoms: N_11  and  C_12
REMARK    3  A    between atoms: C_12  and  C_13
REMARK    4  A    between atoms: C_13  and  C_14
REMARK    5  A    between atoms: C_14  and  N_15
REMARK    6  A    between atoms: C_20  and  C_22
REMARK    7  A    between atoms: C_25  and  C_28
REMARK                            x       y       z     vdW  Elec       q    Type
REMARK                         _______ _______ _______ _____ _____    ______ ____
ROOT
ATOM      1  C   UNL     1       1.394   0.871  -1.023  0.00  0.00    +0.044 C 
ATOM      2  C   UNL     1       0.925  -0.539  -0.773  0.00  0.00    -0.049 A 
ATOM      3  C   UNL     1       0.392  -1.295  -1.807  0.00  0.00    +0.005 A 
ATOM      4  C   UNL     1      -0.041  -2.579  -1.607  0.00  0.00    +0.029 A 
ATOM      5  C   UNL     1       0.043  -3.179  -0.329  0.00  0.00    +0.080 A 
ATOM      6  C   UNL     1       0.591  -2.380   0.701  0.00  0.00    +0.041 A 
ATOM      7  C   UNL     1       1.027  -1.096   0.489  0.00  0.00    +0.020 A 
ATOM      8  S   UNL     1       0.522  -3.469   2.103  0.00  0.00    -0.052 S 
ATOM      9  C   UNL     1      -0.206  -4.869   1.263  0.00  0.00    +0.168 A 
ATOM     10  N   UNL     1      -0.335  -4.423   0.035  0.00  0.00    -0.224 NA
ATOM     11  N   UNL     1      -0.546  -6.109   1.777  0.00  0.00    -0.246 N 
ATOM     12  C   UNL     1      -0.241  -6.416   3.054  0.00  0.00    +0.252 C 
ATOM     13  O   UNL     1       0.280  -5.584   3.771  0.00  0.00    -0.270 OA
ENDROOT
BRANCH  12  14
ATOM     14  C   UNL     1      -0.539  -7.763   3.580  0.00  0.00    +0.037 A 
ATOM     15  C   UNL     1      -0.563  -8.861   2.717  0.00  0.00    +0.013 A 
ATOM     16  C   UNL     1      -0.841 -10.117   3.209  0.00  0.00    +0.009 A 
ATOM     17  C   UNL     1      -1.098 -10.292   4.569  0.00  0.00    -0.018 A 
ATOM     18  C   UNL     1      -1.075  -9.196   5.432  0.00  0.00    +0.009 A 
ATOM     19  C   UNL     1      -0.792  -7.941   4.943  0.00  0.00    +0.013 A 
BRANCH  17  20
ATOM     20  C   UNL     1      -1.398 -11.645   5.098  0.00  0.00    -0.018 A 
ATOM     21  C   UNL     1      -1.417 -12.743   4.240  0.00  0.00    +0.008 A 
ATOM     22  C   UNL     1      -1.696 -13.999   4.738  0.00  0.00    +0.001 A 
ATOM     23  C   UNL     1      -1.956 -14.170   6.086  0.00  0.00    +0.000 A 
ATOM     24  C   UNL     1      -1.939 -13.084   6.942  0.00  0.00    +0.001 A 
ATOM     25  C   UNL     1      -1.655 -11.823   6.456  0.00  0.00    +0.008 A 
ENDBRANCH  17  20
ENDBRANCH  12  14
BRANCH  11  26
ATOM     26  C   UNL     1      -1.239  -7.086   0.934  0.00  0.00    +0.117 C 
BRANCH  26  27
ATOM     27  C   UNL     1      -0.270  -7.628  -0.119  0.00  0.00    +0.041 C 
BRANCH  27  28
ATOM     28  C   UNL     1      -0.993  -8.649  -1.000  0.00  0.00    +0.124 C 
BRANCH  28  29
ATOM     29  N   UNL     1      -0.066  -9.168  -2.008  0.00  0.00    -0.338 N 
ATOM     30  C   UNL     1       0.155  -8.646  -3.254  0.00  0.00    +0.104 A 
ATOM     31  C   UNL     1       1.079  -9.427  -3.846  0.00  0.00    +0.101 A 
ATOM     32  N   UNL     1       1.414 -10.399  -2.984  0.00  0.00    -0.352 N 
ATOM     33  C   UNL     1       0.736 -10.247  -1.879  0.00  0.00    +0.173 A 
ATOM     34  H   UNL     1       2.061 -11.101  -3.154  0.00  0.00    +0.166 HD
ENDBRANCH  28  29
ENDBRANCH  27  28
ENDBRANCH  26  27
ENDBRANCH  11  26
TORSDOF 6
