REMARK  Name = ZINC38596284
REMARK  13 active torsions:
REMARK  status: ('A' for Active; 'I' for Inactive)
REMARK    1  A    between atoms: C_1  and  C_2
REMARK    2  A    between atoms: C_2  and  O_3
REMARK    3  A    between atoms: O_3  and  C_4
REMARK    4  A    between atoms: C_7  and  S_11
REMARK    5  A    between atoms: C_9  and  C_10
REMARK    6  A    between atoms: S_11  and  N_14
REMARK    7  A    between atoms: N_14  and  C_15
REMARK    8  A    between atoms: C_15  and  C_17
REMARK    9  A    between atoms: C_15  and  C_18
REMARK   10  A    between atoms: C_18  and  C_20
REMARK   11  A    between atoms: C_18  and  N_25
REMARK   12  A    between atoms: N_28  and  C_31
REMARK   13  A    between atoms: C_31  and  C_32
REMARK                            x       y       z     vdW  Elec       q    Type
REMARK                         _______ _______ _______ _____ _____    ______ ____
ROOT
ATOM      1  C   UNL     1      -1.071  -7.441  -5.001  0.00  0.00    +0.112 C 
ENDROOT
BRANCH   1   2
ATOM      2  N   UNL     1      -1.263  -7.230  -6.442  0.00  0.00    -0.297 NA
ATOM      3  C   UNL     1      -1.886  -8.404  -7.069  0.00  0.00    +0.066 C 
ATOM      4  C   UNL     1      -2.122  -8.122  -8.554  0.00  0.00    -0.063 C 
ATOM      5  N   UNL     1      -0.840  -7.820  -9.205  0.00  0.00    +0.384 N 
ATOM      6  C   UNL     1      -0.242  -6.630  -8.585  0.00  0.00    -0.063 C 
ATOM      7  C   UNL     1       0.010  -6.901  -7.100  0.00  0.00    +0.066 C 
ATOM      8  H   UNL     1      -0.216  -8.605  -9.097  0.00  0.00    -0.081 HD
BRANCH   5   9
ATOM      9  C   UNL     1      -1.065  -7.567 -10.634  0.00  0.00    -0.043 C 
BRANCH   9  10
ATOM     10  C   UNL     1       0.260  -7.379 -11.326  0.00  0.00    -0.064 A 
ATOM     11  C   UNL     1       0.817  -6.117 -11.421  0.00  0.00    +0.002 A 
ATOM     12  C   UNL     1       2.033  -5.945 -12.055  0.00  0.00    +0.000 A 
ATOM     13  C   UNL     1       2.693  -7.034 -12.594  0.00  0.00    +0.000 A 
ATOM     14  C   UNL     1       2.136  -8.296 -12.498  0.00  0.00    +0.000 A 
ATOM     15  C   UNL     1       0.922  -8.469 -11.860  0.00  0.00    +0.002 A 
ENDBRANCH   9  10
ENDBRANCH   5   9
ENDBRANCH   1   2
BRANCH   1  16
ATOM     16  C   UNL     1      -2.396  -7.767  -4.361  0.00  0.00    +0.008 A 
ATOM     17  C   UNL     1      -2.675  -8.674  -3.393  0.00  0.00    +0.013 A 
ATOM     18  C   UNL     1      -3.979  -8.803  -2.952  0.00  0.00    +0.008 A 
ATOM     19  C   UNL     1      -4.940  -8.021  -3.502  0.00  0.00    +0.045 A 
ATOM     20  S   UNL     1      -4.003  -7.056  -4.675  0.00  0.00    -0.100 S 
ENDBRANCH   1  16
BRANCH   1  21
ATOM     21  C   UNL     1      -0.500  -6.169  -4.371  0.00  0.00    +0.095 C 
ATOM     22  C   UNL     1      -1.415  -4.985  -4.692  0.00  0.00    +0.027 C 
BRANCH  21  23
ATOM     23  N   UNL     1      -0.414  -6.340  -2.918  0.00  0.00    -0.185 NA
ATOM     24  H   UNL     1      -1.089  -6.855  -2.450  0.00  0.00    +0.148 HD
BRANCH  23  25
ATOM     25  S   UNL     1       0.836  -5.654  -2.077  0.00  0.00    +0.059 S 
ATOM     26  O   UNL     1       2.029  -6.002  -2.766  0.00  0.00    -0.153 OA
ATOM     27  O   UNL     1       0.627  -5.973  -0.708  0.00  0.00    -0.153 OA
BRANCH  25  31
ATOM     28  C   UNL     1       0.394  -1.163  -2.444  0.00  0.00    +0.123 A 
ATOM     29  C   UNL     1      -0.215  -1.837  -1.395  0.00  0.00    +0.048 A 
ATOM     30  C   UNL     1      -0.078  -3.208  -1.285  0.00  0.00    +0.032 A 
ATOM     31  C   UNL     1       0.664  -3.907  -2.220  0.00  0.00    +0.106 A 
ATOM     32  C   UNL     1       1.271  -3.236  -3.265  0.00  0.00    +0.035 A 
ATOM     33  C   UNL     1       1.133  -1.867  -3.382  0.00  0.00    -0.007 A 
ATOM     34  C   UNL     1       1.790  -1.138  -4.526  0.00  0.00    +0.047 C 
BRANCH  28  35
ATOM     35  O   UNL     1       0.260   0.185  -2.554  0.00  0.00    -0.492 OA
BRANCH  35  37
ATOM     36  C   UNL     1      -0.552   2.347  -1.840  0.00  0.00    +0.048 C 
ATOM     37  C   UNL     1      -0.515   0.845  -1.551  0.00  0.00    +0.225 C 
ENDBRANCH  35  37
ENDBRANCH  28  35
ENDBRANCH  25  31
ENDBRANCH  23  25
ENDBRANCH  21  23
ENDBRANCH   1  21
TORSDOF 10
