REMARK  Name = ZINC09694454
REMARK  6 active torsions:
REMARK  status: ('A' for Active; 'I' for Inactive)
REMARK    1  A    between atoms: C_1  and  C_2
REMARK    2  A    between atoms: C_2  and  C_3
REMARK    3  A    between atoms: C_3  and  C_4
REMARK    4  A    between atoms: C_5  and  C_11
REMARK    5  A    between atoms: C_6  and  O_10
REMARK    6  A    between atoms: C_11  and  O_20
REMARK                            x       y       z     vdW  Elec       q    Type
REMARK                         _______ _______ _______ _____ _____    ______ ____
ROOT
ATOM      1  C   UNL     1      -1.553  -2.364  -2.324  0.00  0.00    +0.252 C 
ATOM      2  C   UNL     1      -2.650  -3.265  -1.785  0.00  0.00    +0.266 C 
ATOM      3  N   UNL     1      -3.384  -3.949  -2.691  0.00  0.00    -0.235 N 
ATOM      4  C   UNL     1      -3.152  -3.836  -4.005  0.00  0.00    +0.332 C 
ATOM      5  N   UNL     1      -2.206  -3.064  -4.549  0.00  0.00    -0.125 NA
ATOM      6  C   UNL     1      -1.396  -2.328  -3.832  0.00  0.00    +0.286 C 
ATOM      7  O   UNL     1      -0.457  -1.564  -4.412  0.00  0.00    -0.269 OA
ATOM      8  O   UNL     1      -3.854  -4.483  -4.759  0.00  0.00    -0.250 OA
ATOM      9  O   UNL     1      -2.858  -3.366  -0.595  0.00  0.00    -0.271 OA
ATOM     10  H   UNL     1      -4.093  -4.534  -2.382  0.00  0.00    +0.159 HD
ENDROOT
BRANCH   1  12
ATOM     11  C   UNL     1       0.739  -2.004  -1.265  0.00  0.00    +0.047 A 
ATOM     12  C   UNL     1      -0.243  -2.812  -1.727  0.00  0.00    +0.085 A 
ATOM     13  C   UNL     1       0.173  -4.140  -1.551  0.00  0.00    +0.238 A 
ATOM     14  N   UNL     1       1.364  -4.124  -1.003  0.00  0.00    -0.136 NA
ATOM     15  H   UNL     1       2.579  -2.480  -0.435  0.00  0.00    +0.189 HD
ATOM     16  N   UNL     1       1.742  -2.788  -0.818  0.00  0.00    -0.278 N 
BRANCH  13  17
ATOM     17  O   UNL     1      -0.535  -5.250  -1.890  0.00  0.00    -0.491 OA
ATOM     18  H   UNL     1      -0.371  -5.562  -2.791  0.00  0.00    +0.294 HD
ENDBRANCH  13  17
BRANCH  11  19
ATOM     19  C   UNL     1       0.718  -0.497  -1.257  0.00  0.00    +0.055 C 
BRANCH  19  21
ATOM     20  C   UNL     1      -0.019   1.526   0.010  0.00  0.00    +0.004 C 
ATOM     21  C   UNL     1       0.002  -0.004   0.002  0.00  0.00    +0.003 C 
ENDBRANCH  19  21
ENDBRANCH  11  19
ENDBRANCH   1  12
BRANCH   1  22
ATOM     22  O   UNL     1      -1.813  -1.034  -1.871  0.00  0.00    -0.368 OA
ATOM     23  H   UNL     1      -2.639  -0.659  -2.205  0.00  0.00    +0.212 HD
ENDBRANCH   1  22
TORSDOF 5
