REMARK  Name = ZINC13321826
REMARK  4 active torsions:
REMARK  status: ('A' for Active; 'I' for Inactive)
REMARK    1  A    between atoms: C_7  and  C_10
REMARK    2  A    between atoms: N_12  and  N_13
REMARK    3  A    between atoms: C_14  and  C_15
REMARK    4  A    between atoms: C_20  and  C_21
REMARK                            x       y       z     vdW  Elec       q    Type
REMARK                         _______ _______ _______ _____ _____    ______ ____
ROOT
ATOM      1  N   UNL     1       0.708   5.507  -0.084  0.00  0.00    -0.187 NA
ATOM      2  C   UNL     1       1.336   4.374   0.001  0.00  0.00    +0.142 C 
ENDROOT
BRANCH   2   3
ATOM      3  C   UNL     1       0.577   3.110   0.007  0.00  0.00    +0.040 A 
ATOM      4  C   UNL     1       1.084   1.853   0.194  0.00  0.00    +0.115 A 
ATOM      5  N   UNL     1       0.064   0.978   0.129  0.00  0.00    -0.284 N 
ATOM      6  H   UNL     1       0.146  -0.013   0.234  0.00  0.00    +0.188 HD
ATOM      7  N   UNL     1      -1.129   1.668  -0.110  0.00  0.00    -0.173 NA
ATOM      8  C   UNL     1      -0.867   2.955  -0.185  0.00  0.00    +0.101 A 
BRANCH   8   9
ATOM      9  C   UNL     1      -1.846   4.042  -0.424  0.00  0.00    +0.003 A 
ATOM     10  C   UNL     1      -3.065   4.046   0.253  0.00  0.00    +0.011 A 
ATOM     11  C   UNL     1      -3.971   5.063   0.031  0.00  0.00    +0.016 A 
ATOM     12  C   UNL     1      -3.676   6.071  -0.871  0.00  0.00    +0.018 A 
ATOM     13  C   UNL     1      -2.470   6.068  -1.550  0.00  0.00    +0.016 A 
ATOM     14  C   UNL     1      -1.554   5.059  -1.331  0.00  0.00    +0.011 A 
ATOM     15 BR   UNL     1      -4.926   7.457  -1.177  0.00  0.00    -0.050 Br
ENDBRANCH   8   9
ENDBRANCH   2   3
BRANCH   1  18
ATOM     16  C   UNL     1       0.777   7.885  -0.178  0.00  0.00    +0.264 C 
ATOM     17  O   UNL     1      -0.438   7.903  -0.252  0.00  0.00    -0.268 OA
ATOM     18  N   UNL     1       1.429   6.708  -0.090  0.00  0.00    -0.203 N 
ATOM     19  H   UNL     1       2.397   6.693  -0.031  0.00  0.00    +0.178 HD
BRANCH  16  26
ATOM     20  C   UNL     1      -0.992  11.993  -0.453  0.00  0.00    +0.001 A 
ATOM     21  C   UNL     1      -0.114  13.067  -0.444  0.00  0.00    +0.001 A 
ATOM     22  C   UNL     1       1.244  12.836  -0.353  0.00  0.00    +0.015 A 
ATOM     23  C   UNL     1       1.712  11.541  -0.272  0.00  0.00    +0.020 A 
ATOM     24  C   UNL     1       0.844  10.433  -0.279  0.00  0.00    +0.001 A 
ATOM     25  C   UNL     1      -0.537  10.701  -0.373  0.00  0.00    +0.010 A 
ATOM     26  C   UNL     1       1.533   9.143  -0.184  0.00  0.00    +0.053 A 
ATOM     27  C   UNL     1       2.890   9.143  -0.097  0.00  0.00    +0.059 A 
ATOM     28  S   UNL     1       3.325  10.818  -0.144  0.00  0.00    -0.096 S 
ENDBRANCH  16  26
ENDBRANCH   1  18
TORSDOF 4
