REMARK  Name = ZINC15362664
REMARK  10 active torsions:
REMARK  status: ('A' for Active; 'I' for Inactive)
REMARK    1  A    between atoms: C_1  and  O_2
REMARK    2  A    between atoms: O_2  and  C_3
REMARK    3  A    between atoms: C_5  and  C_14
REMARK    4  A    between atoms: C_6  and  N_11
REMARK    5  A    between atoms: C_8  and  O_9
REMARK    6  A    between atoms: O_9  and  C_10
REMARK    7  A    between atoms: C_14  and  C_15
REMARK    8  A    between atoms: C_15  and  N_16
REMARK    9  A    between atoms: N_16  and  S_17
REMARK   10  A    between atoms: S_17  and  C_20
REMARK                            x       y       z     vdW  Elec       q    Type
REMARK                         _______ _______ _______ _____ _____    ______ ____
ROOT
ATOM      1  C   UNL     1      -0.531   2.799   3.860  0.00  0.00    +0.054 C 
ENDROOT
BRANCH   1   4
ATOM      2  C   UNL     1       1.968   3.006   6.685  0.00  0.00    +0.162 A 
ATOM      3  C   UNL     1       1.278   3.289   5.518  0.00  0.00    +0.055 A 
ATOM      4  C   UNL     1       0.219   2.489   5.130  0.00  0.00    -0.012 A 
ATOM      5  C   UNL     1      -0.157   1.410   5.907  0.00  0.00    +0.133 A 
ATOM      6  C   UNL     1       0.531   1.119   7.070  0.00  0.00    +0.082 A 
ATOM      7  C   UNL     1       1.593   1.916   7.465  0.00  0.00    +0.164 A 
BRANCH   5   8
ATOM      8  N   UNL     1      -1.295   0.560   5.490  0.00  0.00    +0.057 N 
ATOM      9  O   UNL     1      -1.694  -0.327   6.223  0.00  0.00    -0.126 OA
ATOM     10  O   UNL     1      -1.834   0.749   4.414  0.00  0.00    -0.126 OA
ENDBRANCH   5   8
BRANCH   2  12
ATOM     11  C   UNL     1       3.340   4.891   6.218  0.00  0.00    +0.277 C 
ATOM     12  O   UNL     1       3.011   3.791   7.068  0.00  0.00    -0.491 OA
ENDBRANCH   2  12
BRANCH   7  13
ATOM     13  O   UNL     1       2.268   1.633   8.611  0.00  0.00    -0.491 OA
ATOM     14  C   UNL     1       1.827   0.500   9.361  0.00  0.00    +0.277 C 
ENDBRANCH   7  13
ENDBRANCH   1   4
BRANCH   1  15
ATOM     15  C   UNL     1      -0.022   1.897   2.734  0.00  0.00    +0.110 C 
BRANCH  15  16
ATOM     16  N   UNL     1      -0.751   2.198   1.499  0.00  0.00    -0.190 NA
ATOM     17  H   UNL     1      -1.571   2.715   1.534  0.00  0.00    +0.148 HD
BRANCH  16  18
ATOM     18  S   UNL     1      -0.175   1.655   0.044  0.00  0.00    +0.061 S 
ATOM     19  O   UNL     1       1.201   2.005  -0.003  0.00  0.00    -0.153 OA
ATOM     20  O   UNL     1      -1.104   2.080  -0.944  0.00  0.00    -0.153 OA
BRANCH  18  21
ATOM     21  C   UNL     1      -0.247  -0.105   0.080  0.00  0.00    +0.142 A 
ATOM     22  C   UNL     1       0.836  -0.833   0.540  0.00  0.00    +0.069 A 
ATOM     23  C   UNL     1       0.777  -2.215   0.571  0.00  0.00    +0.022 A 
ATOM     24  C   UNL     1      -0.359  -2.869   0.134  0.00  0.00    +0.003 A 
ATOM     25  C   UNL     1      -1.439  -2.142  -0.332  0.00  0.00    +0.022 A 
ATOM     26  C   UNL     1      -1.384  -0.760  -0.359  0.00  0.00    +0.069 A 
ATOM     27 CL   UNL     1      -2.740   0.152  -0.944  0.00  0.00    -0.081 Cl
ATOM     28 CL   UNL     1       2.265  -0.011   1.084  0.00  0.00    -0.081 Cl
ENDBRANCH  18  21
ENDBRANCH  16  18
ENDBRANCH  15  16
ENDBRANCH   1  15
TORSDOF 8
