REMARK  Name = ZINC40167299
REMARK  4 active torsions:
REMARK  status: ('A' for Active; 'I' for Inactive)
REMARK    1  A    between atoms: C_3  and  N_25
REMARK    2  A    between atoms: C_6  and  C_7
REMARK    3  A    between atoms: C_10  and  N_13
REMARK    4  A    between atoms: N_16  and  C_17
REMARK                            x       y       z     vdW  Elec       q    Type
REMARK                         _______ _______ _______ _____ _____    ______ ____
ROOT
ATOM      1  C   UNL     1      -1.276  -0.757   0.029  0.00  0.00    -0.018 A 
ATOM      2  C   UNL     1      -2.487  -0.093   0.215  0.00  0.00    +0.010 A 
ATOM      3  C   UNL     1      -3.669  -0.804   0.216  0.00  0.00    +0.024 A 
ATOM      4  C   UNL     1      -3.652  -2.182   0.032  0.00  0.00    +0.035 A 
ATOM      5  C   UNL     1      -2.446  -2.845  -0.154  0.00  0.00    +0.024 A 
ATOM      6  C   UNL     1      -1.262  -2.138  -0.161  0.00  0.00    +0.010 A 
ENDROOT
BRANCH   1  12
ATOM      7  C   UNL     1      -0.017   1.387   0.217  0.00  0.00    +0.010 A 
ATOM      8  C   UNL     1       1.167   2.093   0.215  0.00  0.00    +0.023 A 
ATOM      9  C   UNL     1       2.373   1.430   0.024  0.00  0.00    +0.025 A 
ATOM     10  C   UNL     1       2.389   0.053  -0.166  0.00  0.00    +0.023 A 
ATOM     11  C   UNL     1       1.208  -0.658  -0.165  0.00  0.00    +0.010 A 
ATOM     12  C   UNL     1      -0.004   0.005   0.027  0.00  0.00    -0.018 A 
BRANCH   9  13
ATOM     13  N   UNL     1       3.571   2.148   0.022  0.00  0.00    -0.358 N 
ATOM     14  H   UNL     1       3.560   3.108   0.155  0.00  0.00    +0.142 HD
ATOM     15  H   UNL     1       4.413   1.685  -0.111  0.00  0.00    +0.142 HD
ENDBRANCH   9  13
ENDBRANCH   1  12
BRANCH   4  16
ATOM     16  N   UNL     1      -4.852  -2.901   0.035  0.00  0.00    -0.269 N 
ATOM     17  C   UNL     1      -5.977  -2.337  -0.449  0.00  0.00    +0.304 C 
ATOM     18  O   UNL     1      -5.930  -1.242  -0.976  0.00  0.00    -0.252 OA
ATOM     19  N   UNL     1      -7.153  -2.987  -0.349  0.00  0.00    -0.291 N 
ATOM     20  H   UNL     1      -4.875  -3.805   0.385  0.00  0.00    +0.156 HD
ATOM     21  H   UNL     1      -7.190  -3.861   0.070  0.00  0.00    +0.151 HD
BRANCH  19  22
ATOM     22  C   UNL     1      -8.375  -2.375  -0.875  0.00  0.00    +0.120 C 
ATOM     23  C   UNL     1      -9.600  -2.929  -0.100  0.00  0.00    +0.197 C 
ATOM     24  S   UNL     1     -10.103  -4.251  -1.281  0.00  0.00    -0.008 S 
ATOM     25  O   UNL     1      -9.446  -5.476  -0.987  0.00  0.00    -0.170 OA
ATOM     26  O   UNL     1     -11.500  -4.202  -1.539  0.00  0.00    -0.170 OA
ATOM     27  C   UNL     1      -9.312  -3.612  -2.746  0.00  0.00    +0.132 C 
ATOM     28  C   UNL     1      -8.493  -2.682  -2.333  0.00  0.00    +0.016 C 
ENDBRANCH  19  22
ENDBRANCH   4  16
TORSDOF 4
