REMARK  Name = ZINC05344756
REMARK  6 active torsions:
REMARK  status: ('A' for Active; 'I' for Inactive)
REMARK    1  A    between atoms: C_4  and  S_7
REMARK    2  A    between atoms: S_7  and  N_10
REMARK    3  A    between atoms: N_10  and  C_11
REMARK    4  A    between atoms: C_14  and  C_17
REMARK    5  A    between atoms: N_19  and  N_20
REMARK    6  A    between atoms: C_21  and  C_22
REMARK                            x       y       z     vdW  Elec       q    Type
REMARK                         _______ _______ _______ _____ _____    ______ ____
ROOT
ATOM      1  C   UNL     1       4.040  11.161   0.000  0.00  0.00    +0.048 A 
ATOM      2  C   UNL     1       2.658  11.319  -0.059  0.00  0.00    +0.025 A 
ATOM      3  C   UNL     1       1.838  10.213  -0.080  0.00  0.00    +0.015 A 
ATOM      4  C   UNL     1       2.395   8.931  -0.043  0.00  0.00    +0.038 A 
ATOM      5  C   UNL     1       3.783   8.777   0.023  0.00  0.00    +0.015 A 
ATOM      6  C   UNL     1       4.597   9.886   0.038  0.00  0.00    +0.025 A 
ENDROOT
BRANCH   4   7
ATOM      7  C   UNL     1       1.519   7.745  -0.066  0.00  0.00    +0.263 C 
ATOM      8  O   UNL     1       0.312   7.881  -0.117  0.00  0.00    -0.268 OA
ATOM      9  N   UNL     1       2.057   6.509  -0.029  0.00  0.00    -0.203 N 
ATOM     10  H   UNL     1       3.020   6.401   0.012  0.00  0.00    +0.178 HD
BRANCH   9  11
ATOM     11  N   UNL     1       1.226   5.382  -0.051  0.00  0.00    -0.187 NA
ATOM     12  C   UNL     1       1.744   4.191  -0.016  0.00  0.00    +0.140 C 
BRANCH  12  13
ATOM     13  C   UNL     1       0.871   3.007  -0.039  0.00  0.00    +0.020 A 
ATOM     14  C   UNL     1       1.264   1.706  -0.007  0.00  0.00    +0.093 A 
ATOM     15  N   UNL     1       0.170   0.893  -0.043  0.00  0.00    -0.360 N 
ATOM     16  H   UNL     1       0.199  -0.076  -0.031  0.00  0.00    +0.165 HD
ATOM     17  C   UNL     1      -0.982   1.648  -0.106  0.00  0.00    +0.047 A 
ATOM     18  C   UNL     1      -0.602   3.000  -0.100  0.00  0.00    +0.008 A 
ATOM     19  C   UNL     1      -1.572   3.998  -0.152  0.00  0.00    +0.010 A 
ATOM     20  C   UNL     1      -2.904   3.652  -0.204  0.00  0.00    +0.001 A 
ATOM     21  C   UNL     1      -3.282   2.317  -0.204  0.00  0.00    +0.002 A 
ATOM     22  C   UNL     1      -2.333   1.319  -0.153  0.00  0.00    +0.026 A 
ENDBRANCH  12  13
ENDBRANCH   9  11
ENDBRANCH   4   7
BRANCH   1  23
ATOM     23  N   UNL     1       4.866  12.280   0.021  0.00  0.00    -0.216 N 
ATOM     24  H   UNL     1       4.712  13.008  -0.601  0.00  0.00    +0.174 HD
BRANCH  23  25
ATOM     25  S   UNL     1       6.112  12.369   1.108  0.00  0.00    +0.072 S 
ATOM     26  O   UNL     1       6.863  11.172   0.964  0.00  0.00    -0.150 OA
ATOM     27  O   UNL     1       6.693  13.657   0.955  0.00  0.00    -0.150 OA
BRANCH  25  31
ATOM     28  C   UNL     1       4.286  12.258   5.249  0.00  0.00    +0.000 A 
ATOM     29  C   UNL     1       4.745  11.092   4.664  0.00  0.00    +0.002 A 
ATOM     30  C   UNL     1       5.302  11.126   3.400  0.00  0.00    +0.029 A 
ATOM     31  C   UNL     1       5.401  12.326   2.720  0.00  0.00    +0.108 A 
ATOM     32  C   UNL     1       4.948  13.492   3.307  0.00  0.00    +0.029 A 
ATOM     33  C   UNL     1       4.385  13.457   4.570  0.00  0.00    +0.002 A 
ENDBRANCH  25  31
ENDBRANCH  23  25
ENDBRANCH   1  23
TORSDOF 6
