REMARK  Name = ZINC06321264
REMARK  7 active torsions:
REMARK  status: ('A' for Active; 'I' for Inactive)
REMARK    1  A    between atoms: C_1  and  C_2
REMARK    2  A    between atoms: C_6  and  C_15
REMARK    3  A    between atoms: C_13  and  C_14
REMARK    4  A    between atoms: C_15  and  C_17
REMARK    5  A    between atoms: C_15  and  N_66
REMARK    6  A    between atoms: N_21  and  C_22
REMARK    7  A    between atoms: C_31  and  C_34
REMARK                            x       y       z     vdW  Elec       q    Type
REMARK                         _______ _______ _______ _____ _____    ______ ____
ROOT
ATOM      1  C   UNL     1      -0.731   1.448   3.687  0.00  0.00    +0.039 C 
ENDROOT
BRANCH   1   7
ATOM      2  C   UNL     1       2.608   2.503  10.271  0.00  0.00    +0.044 C 
ATOM      3  C   UNL     1       2.200   1.603   9.134  0.00  0.00    -0.047 A 
ATOM      4  C   UNL     1       1.502   2.118   8.078  0.00  0.00    +0.013 A 
ATOM      5  C   UNL     1       1.123   1.283   7.023  0.00  0.00    -0.001 A 
ATOM      6  C   UNL     1       0.381   1.804   5.873  0.00  0.00    +0.017 A 
ATOM      7  C   UNL     1       0.037   0.946   4.882  0.00  0.00    +0.011 A 
ATOM      8  C   UNL     1       0.401  -0.416   4.962  0.00  0.00    +0.251 A 
ATOM      9  O   UNL     1       0.086  -1.169   4.057  0.00  0.00    -0.268 OA
ATOM     10  N   UNL     1       1.087  -0.902   6.010  0.00  0.00    -0.322 N 
ATOM     11  H   UNL     1       1.322  -1.843   6.034  0.00  0.00    +0.169 HD
ATOM     12  C   UNL     1       1.462  -0.083   7.054  0.00  0.00    +0.049 A 
ATOM     13  C   UNL     1       2.173  -0.586   8.139  0.00  0.00    +0.030 A 
ATOM     14  C   UNL     1       2.536   0.256   9.168  0.00  0.00    -0.046 A 
ATOM     15  C   UNL     1       3.307  -0.290  10.342  0.00  0.00    +0.044 C 
ENDBRANCH   1   7
BRANCH   1  22
ATOM     16  C   UNL     1       1.366   1.645   2.493  0.00  0.00    -0.077 C 
ATOM     17  C   UNL     1       2.140   1.153   1.268  0.00  0.00    -0.018 C 
ATOM     18  C   UNL     1       1.423   1.617  -0.003  0.00  0.00    -0.001 C 
ATOM     19  C   UNL     1      -0.013   1.086   0.008  0.00  0.00    -0.031 C 
ATOM     20  C   UNL     1      -0.725   1.580   1.269  0.00  0.00    -0.074 C 
ATOM     21  C   UNL     1      -0.754   1.593  -1.230  0.00  0.00    +0.005 C 
ATOM     22  N   UNL     1       0.000   1.080   2.457  0.00  0.00    +0.389 N 
ATOM     23  H   UNL     1       0.065   0.057   2.401  0.00  0.00    -0.080 HD
ENDBRANCH   1  22
BRANCH   1  24
ATOM     24  C   UNL     1      -2.092   0.802   3.656  0.00  0.00    +0.143 A 
ATOM     25  N   UNL     1      -2.366  -0.430   3.302  0.00  0.00    -0.115 NA
ATOM     26  N   UNL     1      -3.638  -0.602   3.412  0.00  0.00    -0.023 NA
ATOM     27  N   UNL     1      -4.184   0.490   3.820  0.00  0.00    -0.044 NA
ATOM     28  N   UNL     1      -3.263   1.379   3.982  0.00  0.00    -0.227 N 
BRANCH  28  29
ATOM     29  C   UNL     1      -3.457   2.759   4.435  0.00  0.00    +0.111 C 
ATOM     30  C   UNL     1      -4.086   2.755   5.830  0.00  0.00    +0.027 C 
ATOM     31  C   UNL     1      -4.288   4.196   6.303  0.00  0.00    +0.002 C 
ATOM     32  C   UNL     1      -5.213   4.927   5.328  0.00  0.00    +0.000 C 
ATOM     33  C   UNL     1      -4.584   4.932   3.934  0.00  0.00    +0.002 C 
ATOM     34  C   UNL     1      -4.382   3.491   3.461  0.00  0.00    +0.027 C 
ENDBRANCH  28  29
ENDBRANCH   1  24
TORSDOF 4
