REMARK  Name = ZINC35671675
REMARK  12 active torsions:
REMARK  status: ('A' for Active; 'I' for Inactive)
REMARK    1  A    between atoms: C_1  and  C_2
REMARK    2  A    between atoms: C_5  and  N_8
REMARK    3  A    between atoms: C_10  and  C_30
REMARK    4  A    between atoms: N_13  and  C_14
REMARK    5  A    between atoms: C_14  and  C_16
REMARK    6  A    between atoms: C_16  and  N_17
REMARK    7  A    between atoms: N_17  and  C_18
REMARK    8  A    between atoms: C_18  and  C_19
REMARK    9  A    between atoms: C_19  and  N_20
REMARK   10  A    between atoms: N_20  and  C_21
REMARK   11  A    between atoms: N_20  and  C_22
REMARK   12  A    between atoms: C_23  and  C_25
REMARK                            x       y       z     vdW  Elec       q    Type
REMARK                         _______ _______ _______ _____ _____    ______ ____
ROOT
ATOM      1  N   UNL     1      -0.111  -2.717   0.838  0.00  0.00    -0.287 N 
ATOM      2  C   UNL     1      -0.141  -3.219  -0.447  0.00  0.00    +0.120 A 
ATOM      3  C   UNL     1      -0.124  -4.562  -0.371  0.00  0.00    +0.066 A 
ATOM      4  N   UNL     1      -0.082  -4.912   0.973  0.00  0.00    -0.326 N 
ATOM      5  C   UNL     1      -0.068  -3.767   1.702  0.00  0.00    +0.205 A 
ATOM      6  N   UNL     1      -0.025  -3.685   3.032  0.00  0.00    -0.145 NA
ATOM      7  H   UNL     1      -0.061  -5.815   1.328  0.00  0.00    +0.169 HD
ENDROOT
BRANCH   1  12
ATOM      8  C   UNL     1      -0.135   2.774   2.268  0.00  0.00    +0.044 C 
ATOM      9  C   UNL     1      -0.128   1.316   1.888  0.00  0.00    -0.050 A 
ATOM     10  C   UNL     1      -0.168   0.950   0.555  0.00  0.00    +0.005 A 
ATOM     11  C   UNL     1      -0.162  -0.386   0.204  0.00  0.00    +0.026 A 
ATOM     12  C   UNL     1      -0.116  -1.362   1.191  0.00  0.00    +0.049 A 
ATOM     13  C   UNL     1      -0.076  -0.991   2.529  0.00  0.00    +0.026 A 
ATOM     14  C   UNL     1      -0.077   0.347   2.873  0.00  0.00    +0.005 A 
ENDBRANCH   1  12
BRANCH   3  15
ATOM     15  C   UNL     1      -0.146  -5.499  -1.515  0.00  0.00    -0.000 A 
ATOM     16  C   UNL     1      -0.184  -5.010  -2.821  0.00  0.00    +0.010 A 
ATOM     17  C   UNL     1      -0.205  -5.889  -3.884  0.00  0.00    +0.001 A 
ATOM     18  C   UNL     1      -0.189  -7.254  -3.657  0.00  0.00    +0.000 A 
ATOM     19  C   UNL     1      -0.152  -7.746  -2.364  0.00  0.00    +0.001 A 
ATOM     20  C   UNL     1      -0.124  -6.877  -1.293  0.00  0.00    +0.010 A 
ENDBRANCH   3  15
BRANCH   6  21
ATOM     21  C   UNL     1       0.014  -4.792   3.764  0.00  0.00    +0.256 C 
ATOM     22  O   UNL     1       0.010  -5.880   3.222  0.00  0.00    -0.272 OA
BRANCH  21  23
ATOM     23  C   UNL     1       0.064  -4.699   5.268  0.00  0.00    +0.205 C 
BRANCH  23  24
ATOM     24  N   UNL     1       0.100  -6.048   5.839  0.00  0.00    -0.290 N 
ATOM     25  C   UNL     1      -1.048  -6.717   6.062  0.00  0.00    +0.254 C 
ATOM     26  O   UNL     1      -1.026  -7.793   6.628  0.00  0.00    -0.269 OA
BRANCH  25  27
ATOM     27  C   UNL     1      -2.325  -6.147   5.622  0.00  0.00    +0.074 A 
ATOM     28  C   UNL     1      -3.613  -6.607   5.852  0.00  0.00    +0.021 A 
ATOM     29  C   UNL     1      -4.623  -5.852   5.306  0.00  0.00    +0.008 A 
ATOM     30  C   UNL     1      -4.306  -4.739   4.599  0.00  0.00    +0.046 A 
ATOM     31  S   UNL     1      -2.628  -4.677   4.660  0.00  0.00    -0.092 S 
ENDBRANCH  25  27
BRANCH  24  32
ATOM     32  C   UNL     1       1.385  -6.669   6.168  0.00  0.00    +0.090 C 
BRANCH  32  33
ATOM     33  C   UNL     1       1.766  -6.322   7.609  0.00  0.00    -0.060 C 
BRANCH  33  34
ATOM     34  N   UNL     1       3.055  -6.946   7.939  0.00  0.00    +0.377 N 
ATOM     35  C   UNL     1       3.478  -6.516   9.278  0.00  0.00    -0.097 C 
ATOM     36  C   UNL     1       2.912  -8.407   7.916  0.00  0.00    -0.097 C 
ATOM     37  H   UNL     1       3.747  -6.665   7.261  0.00  0.00    -0.083 HD
ENDBRANCH  33  34
ENDBRANCH  32  33
ENDBRANCH  24  32
ENDBRANCH  23  24
ENDBRANCH  21  23
ENDBRANCH   6  21
TORSDOF 9
