REMARK  Name = ZINC65390732
REMARK  4 active torsions:
REMARK  status: ('A' for Active; 'I' for Inactive)
REMARK    1  A    between atoms: C_1  and  N_2
REMARK    2  A    between atoms: N_2  and  C_3
REMARK    3  A    between atoms: C_3  and  C_4
REMARK    4  A    between atoms: C_12  and  C_14
REMARK                            x       y       z     vdW  Elec       q    Type
REMARK                         _______ _______ _______ _____ _____    ______ ____
ROOT
ATOM      1  C   UNL     1      -0.018   1.461   0.010  0.00  0.00    +0.132 C 
ATOM      2  N   UNL     1       0.002  -0.004   0.002  0.00  0.00    -0.297 N 
ATOM      3  C   UNL     1       0.000  -0.672  -1.169  0.00  0.00    +0.219 C 
ATOM      4  O   UNL     1       0.017  -1.884  -1.175  0.00  0.00    -0.275 OA
ENDROOT
BRANCH   3   5
ATOM      5  C   UNL     1      -0.023   0.089  -2.470  0.00  0.00    +0.079 C 
ATOM      6  C   UNL     1      -0.010  -0.898  -3.644  0.00  0.00    +0.017 C 
ATOM      7  C   UNL     1      -0.213  -0.110  -4.940  0.00  0.00    +0.027 C 
ATOM      8  C   UNL     1       0.729   1.057  -4.989  0.00  0.00    -0.031 C 
ATOM      9  C   UNL     1       1.349   1.532  -3.957  0.00  0.00    -0.030 C 
ATOM     10  C   UNL     1       1.218   0.980  -2.567  0.00  0.00    +0.039 C 
ENDBRANCH   3   5
BRANCH   2  11
ATOM     11  C   UNL     1       0.024  -0.743   1.267  0.00  0.00    +0.183 C 
BRANCH  11  12
ATOM     12  C   UNL     1      -1.389  -1.016   1.714  0.00  0.00    +0.151 A 
ATOM     13  N   UNL     1      -2.124  -0.246   2.469  0.00  0.00    -0.133 NA
ATOM     14  N   UNL     1      -3.275  -0.790   2.650  0.00  0.00    -0.134 NA
ATOM     15  C   UNL     1      -3.325  -1.933   2.019  0.00  0.00    +0.134 A 
ATOM     16  N   UNL     1      -2.135  -2.104   1.401  0.00  0.00    -0.313 N 
ATOM     17  C   UNL     1      -2.105  -3.365   0.650  0.00  0.00    +0.125 C 
ATOM     18  C   UNL     1      -3.277  -4.205   1.204  0.00  0.00    +0.029 C 
ATOM     19  C   UNL     1      -4.229  -3.113   1.735  0.00  0.00    +0.078 C 
ENDBRANCH  11  12
ENDBRANCH   2  11
TORSDOF 3
