REMARK  Name = ZINC44876268
REMARK  8 active torsions:
REMARK  status: ('A' for Active; 'I' for Inactive)
REMARK    1  A    between atoms: C_1  and  C_2
REMARK    2  A    between atoms: N_5  and  C_8
REMARK    3  A    between atoms: C_8  and  C_9
REMARK    4  A    between atoms: C_12  and  C_15
REMARK    5  A    between atoms: C_15  and  N_16
REMARK    6  A    between atoms: C_17  and  C_19
REMARK    7  A    between atoms: C_23  and  S_25
REMARK    8  A    between atoms: S_25  and  N_28
REMARK                            x       y       z     vdW  Elec       q    Type
REMARK                         _______ _______ _______ _____ _____    ______ ____
ROOT
ATOM      1  N   UNL     1       2.010  -4.413   7.195  0.00  0.00    -0.307 N 
ATOM      2  C   UNL     1       2.585  -4.555   8.405  0.00  0.00    +0.244 C 
ATOM      3  O   UNL     1       2.746  -5.664   8.875  0.00  0.00    -0.270 OA
ATOM      4  H   UNL     1       1.881  -3.528   6.820  0.00  0.00    +0.149 HD
ENDROOT
BRANCH   2   5
ATOM      5  C   UNL     1       3.021  -3.362   9.161  0.00  0.00    +0.039 A 
ATOM      6  C   UNL     1       2.832  -2.086   8.626  0.00  0.00    +0.014 A 
ATOM      7  C   UNL     1       3.239  -0.977   9.336  0.00  0.00    +0.023 A 
ATOM      8  C   UNL     1       3.836  -1.126  10.578  0.00  0.00    +0.067 A 
ATOM      9  C   UNL     1       4.026  -2.389  11.113  0.00  0.00    +0.124 A 
ATOM     10  C   UNL     1       3.617  -3.506  10.415  0.00  0.00    +0.043 A 
ATOM     11 CL   UNL     1       4.347   0.276  11.465  0.00  0.00    -0.082 Cl
BRANCH   9  12
ATOM     12  S   UNL     1       4.785  -2.569  12.693  0.00  0.00    +0.062 S 
ATOM     13  O   UNL     1       4.119  -1.669  13.568  0.00  0.00    -0.153 OA
ATOM     14  O   UNL     1       4.862  -3.964  12.950  0.00  0.00    -0.153 OA
BRANCH  12  15
ATOM     15  N   UNL     1       6.343  -2.027  12.552  0.00  0.00    -0.177 NA
ATOM     16  C   UNL     1       7.373  -2.968  12.172  0.00  0.00    +0.109 C 
ATOM     17  C   UNL     1       7.965  -3.630  13.441  0.00  0.00    +0.017 C 
ATOM     18  C   UNL     1       8.781  -2.661  14.189  0.00  0.00    +0.001 C 
ATOM     19  C   UNL     1       8.003  -1.460  14.717  0.00  0.00    +0.001 C 
ATOM     20  C   UNL     1       7.912  -0.409  13.639  0.00  0.00    +0.017 C 
ATOM     21  C   UNL     1       6.623  -0.601  12.813  0.00  0.00    +0.109 C 
ENDBRANCH  12  15
ENDBRANCH   9  12
ENDBRANCH   2   5
BRANCH   1  22
ATOM     22  C   UNL     1       1.578  -5.596   6.446  0.00  0.00    +0.139 C 
BRANCH  22  26
ATOM     23  C   UNL     1      -0.143  -4.380   2.730  0.00  0.00    -0.064 A 
ATOM     24  C   UNL     1       1.212  -4.640   2.812  0.00  0.00    +0.002 A 
ATOM     25  C   UNL     1       1.769  -5.033   4.014  0.00  0.00    +0.005 A 
ATOM     26  C   UNL     1       0.971  -5.166   5.135  0.00  0.00    -0.030 A 
ATOM     27  C   UNL     1      -0.384  -4.906   5.053  0.00  0.00    +0.005 A 
ATOM     28  C   UNL     1      -0.940  -4.508   3.852  0.00  0.00    +0.002 A 
BRANCH  23  29
ATOM     29  C   UNL     1      -0.750  -3.952   1.419  0.00  0.00    -0.043 C 
BRANCH  29  34
ATOM     30  C   UNL     1      -0.019   1.526   0.010  0.00  0.00    +0.007 C 
ATOM     31  C   UNL     1       0.002  -0.004   0.002  0.00  0.00    -0.018 C 
ATOM     32  C   UNL     1      -1.434  -0.536   0.023  0.00  0.00    -0.016 C 
ATOM     33  C   UNL     1      -1.405  -2.064   0.095  0.00  0.00    -0.078 C 
ATOM     34  N   UNL     1      -0.707  -2.487   1.315  0.00  0.00    +0.382 N 
ATOM     35  C   UNL     1       0.691  -2.042   1.269  0.00  0.00    -0.078 C 
ATOM     36  C   UNL     1       0.743  -0.513   1.242  0.00  0.00    -0.016 C 
ATOM     37  H   UNL     1      -1.162  -2.082   2.119  0.00  0.00    -0.081 HD
ENDBRANCH  29  34
ENDBRANCH  23  29
ENDBRANCH  22  26
ENDBRANCH   1  22
TORSDOF 7
