REMARK  Name = ZINC14742603
REMARK  8 active torsions:
REMARK  status: ('A' for Active; 'I' for Inactive)
REMARK    1  A    between atoms: C_1  and  C_2
REMARK    2  A    between atoms: C_2  and  N_3
REMARK    3  A    between atoms: N_6  and  C_29
REMARK    4  A    between atoms: C_14  and  C_16
REMARK    5  A    between atoms: C_14  and  C_17
REMARK    6  A    between atoms: C_14  and  N_72
REMARK    7  A    between atoms: C_17  and  C_18
REMARK    8  A    between atoms: C_18  and  C_19
REMARK                            x       y       z     vdW  Elec       q    Type
REMARK                         _______ _______ _______ _____ _____    ______ ____
ROOT
ATOM      1  N   UNL     1      -1.334   2.756  -1.965  0.00  0.00    -0.271 N 
ATOM      2  C   UNL     1      -0.810   2.640  -3.200  0.00  0.00    +0.312 C 
ATOM      3  O   UNL     1      -0.497   3.588  -3.893  0.00  0.00    -0.252 OA
ATOM      4  N   UNL     1      -0.673   1.363  -3.579  0.00  0.00    -0.220 N 
ATOM      5  C   UNL     1      -1.097   0.512  -2.621  0.00  0.00    +0.247 C 
ATOM      6  O   UNL     1      -1.101  -0.699  -2.665  0.00  0.00    -0.273 OA
ATOM      7  C   UNL     1      -1.565   1.389  -1.483  0.00  0.00    +0.112 C 
ATOM      8  C   UNL     1      -0.743   1.117  -0.227  0.00  0.00    +0.017 C 
ATOM      9  C   UNL     1      -1.256   1.998   0.916  0.00  0.00    -0.076 C 
ATOM     10  C   UNL     1      -3.487   2.040  -0.034  0.00  0.00    -0.076 C 
ATOM     11  C   UNL     1      -3.048   1.161  -1.209  0.00  0.00    +0.017 C 
ATOM     12  N   UNL     1      -2.682   1.686   1.155  0.00  0.00    +0.382 N 
ATOM     13  H   UNL     1      -2.777   0.680   1.334  0.00  0.00    -0.081 HD
ENDROOT
BRANCH   4  14
ATOM     14  C   UNL     1      -0.130   0.942  -4.873  0.00  0.00    +0.094 C 
ATOM     15  C   UNL     1       1.276   1.538  -5.098  0.00  0.00    +0.058 C 
ATOM     16  C   UNL     1       1.344   1.832  -6.585  0.00  0.00    -0.042 A 
ATOM     17  C   UNL     1       2.436   2.072  -7.401  0.00  0.00    +0.004 A 
ATOM     18  C   UNL     1       2.256   2.317  -8.749  0.00  0.00    +0.000 A 
ATOM     19  C   UNL     1       0.982   2.322  -9.285  0.00  0.00    +0.000 A 
ATOM     20  C   UNL     1      -0.108   2.083  -8.472  0.00  0.00    +0.004 A 
ATOM     21  C   UNL     1       0.070   1.837  -7.121  0.00  0.00    -0.042 A 
ATOM     22  C   UNL     1      -0.944   1.551  -6.034  0.00  0.00    +0.058 C 
ENDBRANCH   4  14
BRANCH   1  24
ATOM     23  C   UNL     1      -2.751   4.749  -1.946  0.00  0.00    +0.024 C 
ATOM     24  C   UNL     1      -1.616   4.000  -1.244  0.00  0.00    +0.107 C 
ENDBRANCH   1  24
BRANCH  12  25
ATOM     25  C   UNL     1      -3.170   2.431   2.334  0.00  0.00    -0.071 C 
ATOM     26  C   UNL     1      -2.848   3.921   2.201  0.00  0.00    -0.013 C 
BRANCH  25  27
ATOM     27  C   UNL     1      -2.490   1.872   3.585  0.00  0.00    -0.011 C 
BRANCH  27  28
ATOM     28  C   UNL     1      -2.873   0.401   3.760  0.00  0.00    +0.036 C 
BRANCH  28  29
ATOM     29  C   UNL     1      -2.204  -0.150   4.992  0.00  0.00    -0.022 A 
ATOM     30  C   UNL     1      -1.039  -0.816   5.037  0.00  0.00    +0.087 A 
ATOM     31  N   UNL     1      -0.749  -1.160   6.330  0.00  0.00    -0.360 N 
ATOM     32  H   UNL     1       0.041  -1.647   6.613  0.00  0.00    +0.165 HD
ATOM     33  C   UNL     1      -1.744  -0.711   7.169  0.00  0.00    +0.047 A 
ATOM     34  C   UNL     1      -2.696  -0.054   6.368  0.00  0.00    +0.003 A 
ATOM     35  C   UNL     1      -3.827   0.515   6.957  0.00  0.00    +0.010 A 
ATOM     36  C   UNL     1      -4.003   0.432   8.309  0.00  0.00    +0.001 A 
ATOM     37  C   UNL     1      -3.065  -0.213   9.104  0.00  0.00    +0.002 A 
ATOM     38  C   UNL     1      -1.945  -0.787   8.543  0.00  0.00    +0.026 A 
ENDBRANCH  28  29
ENDBRANCH  27  28
ENDBRANCH  25  27
ENDBRANCH  12  25
TORSDOF 6
