REMARK  Name = ZINC59419860
REMARK  16 active torsions:
REMARK  status: ('A' for Active; 'I' for Inactive)
REMARK    1  A    between atoms: C_1  and  C_2
REMARK    2  A    between atoms: C_2  and  C_3
REMARK    3  A    between atoms: C_3  and  C_4
REMARK    4  A    between atoms: C_4  and  C_5
REMARK    5  A    between atoms: C_6  and  C_35
REMARK    6  A    between atoms: C_10  and  S_15
REMARK    7  A    between atoms: C_13  and  C_14
REMARK    8  A    between atoms: S_15  and  C_16
REMARK    9  A    between atoms: C_16  and  C_18
REMARK   10  A    between atoms: C_16  and  C_19
REMARK   11  A    between atoms: N_21  and  C_22
REMARK   12  A    between atoms: N_21  and  C_23
REMARK   13  A    between atoms: C_23  and  C_24
REMARK   14  A    between atoms: N_26  and  C_27
REMARK   15  A    between atoms: C_32  and  C_33
REMARK   16  A    between atoms: C_33  and  C_34
REMARK                            x       y       z     vdW  Elec       q    Type
REMARK                         _______ _______ _______ _____ _____    ______ ____
ROOT
ATOM      1  C   UNL     1       3.998  -4.959   8.554  0.00  0.00    +0.137 C 
ATOM      2  C   UNL     1       4.533  -6.059   7.636  0.00  0.00    +0.029 C 
ENDROOT
BRANCH   1   3
ATOM      3  C   UNL     1       4.202  -5.362   9.992  0.00  0.00    +0.229 C 
ATOM      4  O   UNL     1       3.306  -5.905  10.602  0.00  0.00    -0.274 OA
ATOM      5  N   UNL     1       5.380  -5.118  10.600  0.00  0.00    -0.295 N 
ATOM      6  C   UNL     1       6.463  -4.461   9.862  0.00  0.00    +0.132 C 
BRANCH   5   7
ATOM      7  C   UNL     1       5.579  -5.509  11.997  0.00  0.00    +0.203 C 
BRANCH   7   8
ATOM      8  C   UNL     1       6.128  -6.912  12.053  0.00  0.00    +0.235 C 
ATOM      9  O   UNL     1       6.333  -7.524  11.026  0.00  0.00    -0.274 OA
ATOM     10  N   UNL     1       6.391  -7.486  13.244  0.00  0.00    -0.284 N 
ATOM     11  H   UNL     1       6.303  -6.970  14.060  0.00  0.00    +0.155 HD
BRANCH  10  12
ATOM     12  C   UNL     1       6.790  -8.825  13.302  0.00  0.00    +0.037 A 
ATOM     13  C   UNL     1       6.440  -9.701  12.281  0.00  0.00    +0.023 A 
ATOM     14  C   UNL     1       6.835 -11.022  12.342  0.00  0.00    +0.002 A 
ATOM     15  C   UNL     1       7.579 -11.475  13.416  0.00  0.00    +0.000 A 
ATOM     16  C   UNL     1       7.929 -10.606  14.434  0.00  0.00    +0.005 A 
ATOM     17  C   UNL     1       7.542  -9.281  14.376  0.00  0.00    -0.026 A 
BRANCH  17  18
ATOM     18  C   UNL     1       7.929  -8.334  15.482  0.00  0.00    +0.033 C 
ATOM     19  C   UNL     1       6.793  -8.248  16.502  0.00  0.00    +0.009 C 
ENDBRANCH  17  18
ENDBRANCH  10  12
ENDBRANCH   7   8
ENDBRANCH   5   7
ENDBRANCH   1   3
BRANCH   1  20
ATOM     20  S   UNL     1       2.228  -4.715   8.240  0.00  0.00    -0.072 S 
BRANCH  20  26
ATOM     21  C   UNL     1       1.464  -2.569   2.453  0.00  0.00    -0.005 A 
ATOM     22  C   UNL     1       2.860  -2.670   2.450  0.00  0.00    +0.047 A 
ATOM     23  N   UNL     1       3.496  -3.102   3.516  0.00  0.00    -0.216 NA
ATOM     24  C   UNL     1       2.826  -3.451   4.620  0.00  0.00    +0.254 A 
ATOM     25  N   UNL     1       3.226  -3.908   5.803  0.00  0.00    -0.183 NA
ATOM     26  C   UNL     1       2.168  -4.112   6.585  0.00  0.00    +0.212 A 
ATOM     27  N   UNL     1       1.070  -3.795   5.930  0.00  0.00    -0.137 NA
ATOM     28  N   UNL     1       1.463  -3.364   4.656  0.00  0.00    -0.200 N 
ATOM     29  C   UNL     1       0.776  -2.917   3.573  0.00  0.00    +0.048 A 
ATOM     30  C   UNL     1      -0.727  -2.813   3.609  0.00  0.00    +0.066 C 
ATOM     31  C   UNL     1       3.637  -2.283   1.218  0.00  0.00    +0.066 C 
BRANCH  21  32
ATOM     32  C   UNL     1       0.733  -2.075   1.232  0.00  0.00    +0.039 C 
BRANCH  32  33
ATOM     33  C   UNL     1       0.700  -0.545   1.242  0.00  0.00    +0.004 C 
BRANCH  33  35
ATOM     34  C   UNL     1      -0.076   1.487   0.012  0.00  0.00    +0.004 C 
ATOM     35  C   UNL     1      -0.043  -0.043   0.002  0.00  0.00    -0.003 C 
ENDBRANCH  33  35
ENDBRANCH  32  33
ENDBRANCH  21  32
ENDBRANCH  20  26
ENDBRANCH   1  20
TORSDOF 10
