REMARK  Name = ZINC03619797
REMARK  8 active torsions:
REMARK  status: ('A' for Active; 'I' for Inactive)
REMARK    1  A    between atoms: C_2  and  C_3
REMARK    2  A    between atoms: C_3  and  N_4
REMARK    3  A    between atoms: C_14  and  S_17
REMARK    4  A    between atoms: S_17  and  C_18
REMARK    5  A    between atoms: C_18  and  C_19
REMARK    6  A    between atoms: N_21  and  C_22
REMARK    7  A    between atoms: C_25  and  S_28
REMARK    8  A    between atoms: S_28  and  N_31
REMARK                            x       y       z     vdW  Elec       q    Type
REMARK                         _______ _______ _______ _____ _____    ______ ____
ROOT
ATOM      1  C   UNL     1      -0.014   1.209   0.007  0.00  0.00    +0.227 C 
ATOM      2  O   UNL     1       0.002  -0.004  -0.008  0.00  0.00    -0.275 OA
ATOM      3  N   UNL     1      -1.191   1.867   0.018  0.00  0.00    -0.285 N 
ATOM      4  H   UNL     1      -1.207   2.963   0.108  0.00  0.00    +0.155 HD
ENDROOT
BRANCH   3   5
ATOM      5  C   UNL     1      -2.391   1.155  -0.086  0.00  0.00    +0.034 A 
ATOM      6  C   UNL     1      -3.468   1.704  -0.769  0.00  0.00    +0.025 A 
ATOM      7  C   UNL     1      -4.650   0.997  -0.875  0.00  0.00    +0.031 A 
ATOM      8  C   UNL     1      -4.764  -0.252  -0.292  0.00  0.00    +0.113 A 
ATOM      9  C   UNL     1      -3.696  -0.798   0.395  0.00  0.00    +0.031 A 
ATOM     10  C   UNL     1      -2.510  -0.099   0.499  0.00  0.00    +0.025 A 
BRANCH   8  11
ATOM     11  S   UNL     1      -6.276  -1.148  -0.422  0.00  0.00    +0.101 S 
ATOM     12  O   UNL     1      -6.941  -0.656  -1.578  0.00  0.00    -0.146 OA
ATOM     13  O   UNL     1      -5.950  -2.521  -0.258  0.00  0.00    -0.146 OA
BRANCH  11  14
ATOM     14  N   UNL     1      -7.210  -0.724   0.877  0.00  0.00    -0.103 NA
ATOM     15  C   UNL     1      -7.667   0.578   1.008  0.00  0.00    +0.191 A 
ATOM     16  N   UNL     1      -7.463   1.612   0.213  0.00  0.00    -0.339 N 
ATOM     17  C   UNL     1      -7.980   2.795   0.486  0.00  0.00    +0.092 A 
ATOM     18  C   UNL     1      -8.722   2.932   1.610  0.00  0.00    +0.066 A 
ATOM     19  S   UNL     1      -8.650   1.270   2.261  0.00  0.00    -0.057 S 
ATOM     20  H   UNL     1      -6.851   1.496  -0.694  0.00  0.00    +0.167 HD
ENDBRANCH  11  14
ENDBRANCH   8  11
ENDBRANCH   3   5
BRANCH   1  21
ATOM     21  C   UNL     1       1.280   1.980   0.007  0.00  0.00    +0.173 C 
BRANCH  21  22
ATOM     22  S   UNL     1       2.672   0.823  -0.017  0.00  0.00    -0.075 S 
BRANCH  22  33
ATOM     23  N   UNL     1       7.638   2.205  -0.035  0.00  0.00    -0.320 N 
ATOM     24  C   UNL     1       8.264   3.441  -0.024  0.00  0.00    +0.053 A 
ATOM     25  C   UNL     1       9.605   3.810  -0.029  0.00  0.00    +0.026 A 
ATOM     26  C   UNL     1       9.955   5.143  -0.015  0.00  0.00    +0.002 A 
ATOM     27  C   UNL     1       8.979   6.127   0.005  0.00  0.00    +0.001 A 
ATOM     28  C   UNL     1       7.645   5.782   0.010  0.00  0.00    +0.012 A 
ATOM     29  C   UNL     1       7.277   4.438  -0.005  0.00  0.00    +0.029 A 
ATOM     30  C   UNL     1       5.981   3.740  -0.004  0.00  0.00    +0.138 A 
ATOM     31  C   UNL     1       6.274   2.360  -0.024  0.00  0.00    +0.165 A 
ATOM     32  N   UNL     1       5.260   1.500  -0.021  0.00  0.00    -0.201 NA
ATOM     33  C   UNL     1       4.017   1.962  -0.012  0.00  0.00    +0.212 A 
ATOM     34  N   UNL     1       3.766   3.267   0.006  0.00  0.00    -0.122 NA
ATOM     35  N   UNL     1       4.717   4.137   0.010  0.00  0.00    -0.143 NA
BRANCH  23  36
ATOM     36  C   UNL     1       8.332   0.916  -0.055  0.00  0.00    +0.150 C 
BRANCH  36  38
ATOM     37  C   UNL     1       8.159  -0.722   1.748  0.00  0.00    +0.005 C 
ATOM     38  C   UNL     1       8.580   0.456   1.358  0.00  0.00    -0.013 C 
ENDBRANCH  36  38
ENDBRANCH  23  36
ENDBRANCH  22  33
ENDBRANCH  21  22
ENDBRANCH   1  21
TORSDOF 8
