REMARK  Name = ZINC11062587
REMARK  12 active torsions:
REMARK  status: ('A' for Active; 'I' for Inactive)
REMARK    1  A    between atoms: C_1  and  C_2
REMARK    2  A    between atoms: C_2  and  C_4
REMARK    3  A    between atoms: C_2  and  N_11
REMARK    4  A    between atoms: C_12  and  C_14
REMARK    5  A    between atoms: C_14  and  N_60
REMARK    6  A    between atoms: C_17  and  C_20
REMARK    7  A    between atoms: C_21  and  O_30
REMARK    8  A    between atoms: C_23  and  O_28
REMARK    9  A    between atoms: C_25  and  O_26
REMARK   10  A    between atoms: O_26  and  C_27
REMARK   11  A    between atoms: O_28  and  C_29
REMARK   12  A    between atoms: O_30  and  C_31
REMARK                            x       y       z     vdW  Elec       q    Type
REMARK                         _______ _______ _______ _____ _____    ______ ____
ROOT
ATOM      1  C   UNL     1      -0.195   0.946  -2.405  0.00  0.00    -0.073 C 
ATOM      2  C   UNL     1      -1.161   1.234  -3.556  0.00  0.00    +0.017 C 
ATOM      3  C   UNL     1      -1.488   2.701  -3.588  0.00  0.00    -0.041 C 
ATOM      4  C   UNL     1      -1.257   3.503  -2.570  0.00  0.00    -0.041 C 
ATOM      5  C   UNL     1      -0.640   3.035  -1.283  0.00  0.00    -0.050 C 
ATOM      6  N   UNL     1      -0.747   1.567  -1.184  0.00  0.00    +0.388 N 
ATOM      7  H   UNL     1      -1.736   1.309  -1.094  0.00  0.00    -0.081 HD
ENDROOT
BRANCH   3   8
ATOM      8  C   UNL     1      -2.092   3.266  -4.811  0.00  0.00    +0.061 A 
ATOM      9  C   UNL     1      -3.484   3.293  -4.959  0.00  0.00    +0.134 A 
ATOM     10  C   UNL     1      -4.045   3.827  -6.106  0.00  0.00    +0.092 A 
ATOM     11  C   UNL     1      -3.230   4.327  -7.112  0.00  0.00    +0.127 A 
ATOM     12  C   UNL     1      -1.849   4.299  -6.974  0.00  0.00    +0.092 A 
ATOM     13  C   UNL     1      -1.276   3.772  -5.830  0.00  0.00    +0.134 A 
BRANCH  13  14
ATOM     14  O   UNL     1       0.076   3.744  -5.696  0.00  0.00    -0.494 OA
ATOM     15  C   UNL     1       0.845   4.277  -6.776  0.00  0.00    +0.277 C 
ENDBRANCH  13  14
BRANCH  11  16
ATOM     16  O   UNL     1      -3.786   4.846  -8.238  0.00  0.00    -0.495 OA
ATOM     17  C   UNL     1      -5.213   4.844  -8.317  0.00  0.00    +0.277 C 
ENDBRANCH  11  16
BRANCH   9  18
ATOM     18  O   UNL     1      -4.283   2.799  -3.978  0.00  0.00    -0.494 OA
ATOM     19  C   UNL     1      -5.694   2.860  -4.198  0.00  0.00    +0.277 C 
ENDBRANCH   9  18
ENDBRANCH   3   8
BRANCH   6  20
ATOM     20  C   UNL     1      -0.013   1.086   0.008  0.00  0.00    +0.019 C 
BRANCH  20  22
ATOM     21  N   UNL     1      -0.242   1.246   2.466  0.00  0.00    -0.310 N 
ATOM     22  C   UNL     1      -0.718   1.572   1.248  0.00  0.00    +0.197 C 
ATOM     23  O   UNL     1      -1.714   2.256   1.150  0.00  0.00    -0.278 OA
ATOM     24  H   UNL     1       0.555   0.699   2.544  0.00  0.00    +0.149 HD
BRANCH  21  26
ATOM     25  C   UNL     1      -2.065   0.757   4.021  0.00  0.00    +0.033 C 
ATOM     26  C   UNL     1      -0.927   1.718   3.671  0.00  0.00    +0.100 C 
BRANCH  26  27
ATOM     27  C   UNL     1       0.051   1.776   4.816  0.00  0.00    -0.027 A 
ATOM     28  C   UNL     1       0.988   0.772   4.975  0.00  0.00    +0.006 A 
ATOM     29  C   UNL     1       1.889   0.827   6.022  0.00  0.00    +0.015 A 
ATOM     30  C   UNL     1       1.846   1.881   6.916  0.00  0.00    +0.018 A 
ATOM     31  C   UNL     1       0.905   2.883   6.759  0.00  0.00    +0.015 A 
ATOM     32  C   UNL     1       0.008   2.830   5.709  0.00  0.00    +0.006 A 
ATOM     33 BR   UNL     1       3.073   1.953   8.353  0.00  0.00    -0.050 Br
ENDBRANCH  26  27
ENDBRANCH  21  26
ENDBRANCH  20  22
ENDBRANCH   6  20
TORSDOF 8
