REMARK  Name = ZINC05494713
REMARK  7 active torsions:
REMARK  status: ('A' for Active; 'I' for Inactive)
REMARK    1  A    between atoms: C_1  and  C_2
REMARK    2  A    between atoms: C_2  and  C_18
REMARK    3  A    between atoms: N_3  and  N_4
REMARK    4  A    between atoms: N_4  and  C_5
REMARK    5  A    between atoms: C_8  and  S_14
REMARK    6  A    between atoms: C_10  and  N_11
REMARK    7  A    between atoms: S_14  and  N_17
REMARK                            x       y       z     vdW  Elec       q    Type
REMARK                         _______ _______ _______ _____ _____    ______ ____
ROOT
ATOM      1  N   UNL     1      -0.010   0.968  -0.020  0.00  0.00    -0.235 N 
ATOM      2  H   UNL     1       0.004  -0.002  -0.018  0.00  0.00    +0.174 HD
ENDROOT
BRANCH   1   3
ATOM      3  C   UNL     1      -1.228   1.648   0.003  0.00  0.00    +0.079 A 
ATOM      4  C   UNL     1      -1.251   3.034   0.110  0.00  0.00    +0.029 A 
ATOM      5  C   UNL     1      -2.458   3.703   0.132  0.00  0.00    +0.030 A 
ATOM      6  C   UNL     1      -3.644   2.997   0.048  0.00  0.00    +0.107 A 
ATOM      7  C   UNL     1      -3.626   1.618  -0.058  0.00  0.00    +0.063 A 
ATOM      8  C   UNL     1      -2.422   0.942  -0.086  0.00  0.00    +0.150 A 
BRANCH   8   9
ATOM      9  N   UNL     1      -2.403  -0.533  -0.206  0.00  0.00    +0.058 N 
ATOM     10  O   UNL     1      -3.442  -1.143  -0.388  0.00  0.00    -0.126 OA
ATOM     11  O   UNL     1      -1.349  -1.138  -0.123  0.00  0.00    -0.126 OA
ENDBRANCH   8   9
BRANCH   6  12
ATOM     12  S   UNL     1      -5.182   3.856   0.076  0.00  0.00    +0.056 S 
ATOM     13  O   UNL     1      -6.157   2.928   0.532  0.00  0.00    -0.153 OA
ATOM     14  O   UNL     1      -4.944   5.094   0.730  0.00  0.00    -0.153 OA
BRANCH  12  15
ATOM     15  N   UNL     1      -5.570   4.216  -1.493  0.00  0.00    -0.204 NA
ATOM     16  H   UNL     1      -4.977   3.950  -2.213  0.00  0.00    +0.144 HD
ATOM     17  H   UNL     1      -6.391   4.694  -1.693  0.00  0.00    +0.144 HD
ENDBRANCH  12  15
ENDBRANCH   6  12
ENDBRANCH   1   3
BRANCH   1  20
ATOM     18  C   UNL     1       2.348  -0.454  -0.075  0.00  0.00    +0.068 C 
ATOM     19  C   UNL     1       2.326   1.053  -0.078  0.00  0.00    +0.063 C 
ATOM     20  N   UNL     1       1.192   1.686  -0.051  0.00  0.00    -0.187 NA
BRANCH  19  21
ATOM     21  C   UNL     1       3.591   1.808  -0.110  0.00  0.00    -0.002 A 
ATOM     22  C   UNL     1       4.817   1.117  -0.139  0.00  0.00    +0.010 A 
ATOM     23  C   UNL     1       5.995   1.791  -0.170  0.00  0.00    +0.009 A 
ATOM     24  C   UNL     1       6.002   3.198  -0.173  0.00  0.00    -0.018 A 
ATOM     25  C   UNL     1       7.208   3.916  -0.206  0.00  0.00    +0.008 A 
ATOM     26  C   UNL     1       7.184   5.277  -0.209  0.00  0.00    +0.001 A 
ATOM     27  C   UNL     1       5.977   5.974  -0.180  0.00  0.00    +0.001 A 
ATOM     28  C   UNL     1       4.788   5.313  -0.148  0.00  0.00    +0.008 A 
ATOM     29  C   UNL     1       4.773   3.906  -0.144  0.00  0.00    -0.017 A 
ATOM     30  C   UNL     1       3.565   3.194  -0.118  0.00  0.00    +0.018 A 
ENDBRANCH  19  21
ENDBRANCH   1  20
TORSDOF 6
