REMARK  Name = ZINC02732442
REMARK  7 active torsions:
REMARK  status: ('A' for Active; 'I' for Inactive)
REMARK    1  A    between atoms: C_1  and  C_2
REMARK    2  A    between atoms: C_2  and  N_3
REMARK    3  A    between atoms: C_6  and  C_8
REMARK    4  A    between atoms: C_9  and  C_21
REMARK    5  A    between atoms: C_11  and  C_13
REMARK    6  A    between atoms: C_18  and  O_19
REMARK    7  A    between atoms: O_19  and  C_20
REMARK                            x       y       z     vdW  Elec       q    Type
REMARK                         _______ _______ _______ _____ _____    ______ ____
ROOT
ATOM      1  N   UNL     1      -0.698   1.558   1.213  0.00  0.00    -0.246 N 
ATOM      2  C   UNL     1      -1.703   0.902   1.875  0.00  0.00    +0.160 A 
ATOM      3  C   UNL     1      -2.059   1.718   2.968  0.00  0.00    +0.053 A 
ATOM      4  C   UNL     1      -1.230   2.864   2.917  0.00  0.00    +0.070 A 
ATOM      5  N   UNL     1      -0.436   2.755   1.891  0.00  0.00    -0.174 NA
ATOM      6  C   UNL     1      -1.257   4.014   3.890  0.00  0.00    +0.068 C 
ATOM      7  C   UNL     1      -3.076   1.296   3.836  0.00  0.00    +0.069 A 
ATOM      8  C   UNL     1      -3.688   0.099   3.586  0.00  0.00    +0.041 A 
ATOM      9  C   UNL     1      -3.288  -0.664   2.483  0.00  0.00    +0.077 A 
ATOM     10  N   UNL     1      -2.325  -0.251   1.674  0.00  0.00    -0.227 NA
ENDROOT
BRANCH   9  11
ATOM     11  C   UNL     1      -3.955  -1.960   2.216  0.00  0.00    +0.042 A 
ATOM     12  C   UNL     1      -4.971  -2.412   3.058  0.00  0.00    +0.013 A 
ATOM     13  C   UNL     1      -5.588  -3.619   2.805  0.00  0.00    +0.001 A 
ATOM     14  C   UNL     1      -5.204  -4.385   1.718  0.00  0.00    +0.004 A 
ATOM     15  C   UNL     1      -4.198  -3.947   0.877  0.00  0.00    +0.046 A 
ATOM     16  C   UNL     1      -3.572  -2.734   1.116  0.00  0.00    +0.129 A 
BRANCH  16  17
ATOM     17  O   UNL     1      -2.587  -2.301   0.287  0.00  0.00    -0.494 OA
ATOM     18  C   UNL     1      -2.250  -3.144  -0.816  0.00  0.00    +0.277 C 
ENDBRANCH  16  17
ENDBRANCH   9  11
BRANCH   7  19
ATOM     19  C   UNL     1      -3.486   2.140   5.015  0.00  0.00    +0.418 C 
ATOM     20  F   UNL     1      -4.513   1.498   5.715  0.00  0.00    -0.166 F 
ATOM     21  F   UNL     1      -2.387   2.322   5.862  0.00  0.00    -0.166 F 
ATOM     22  F   UNL     1      -3.937   3.385   4.563  0.00  0.00    -0.166 F 
ENDBRANCH   7  19
BRANCH   1  24
ATOM     23  C   UNL     1      -0.753   1.593  -1.232  0.00  0.00    +0.029 C 
ATOM     24  C   UNL     1      -0.013   1.086   0.008  0.00  0.00    +0.142 C 
ENDBRANCH   1  24
TORSDOF 4
