REMARK  Name = ZINC08671989
REMARK  9 active torsions:
REMARK  status: ('A' for Active; 'I' for Inactive)
REMARK    1  A    between atoms: C_1  and  C_2
REMARK    2  A    between atoms: C_5  and  C_8
REMARK    3  A    between atoms: C_8  and  N_9
REMARK    4  A    between atoms: C_10  and  C_12
REMARK    5  A    between atoms: C_12  and  S_13
REMARK    6  A    between atoms: S_13  and  C_14
REMARK    7  A    between atoms: C_18  and  C_22
REMARK    8  A    between atoms: N_25  and  C_26
REMARK    9  A    between atoms: C_30  and  C_32
REMARK                            x       y       z     vdW  Elec       q    Type
REMARK                         _______ _______ _______ _____ _____    ______ ____
ROOT
ATOM      1  C   UNL     1       4.721  -8.983  -0.656  0.00  0.00    +0.177 A 
ATOM      2  N   UNL     1       5.354  -7.833  -0.758  0.00  0.00    -0.201 NA
ATOM      3  C   UNL     1       6.634  -7.745  -0.295  0.00  0.00    +0.187 A 
ATOM      4  C   UNL     1       7.347  -8.978   0.118  0.00  0.00    +0.082 A 
ATOM      5  C   UNL     1       8.585  -8.607   0.522  0.00  0.00    +0.046 A 
ATOM      6  N   UNL     1       8.671  -7.267   0.391  0.00  0.00    -0.279 N 
ATOM      7  N   UNL     1       7.462  -6.760  -0.111  0.00  0.00    -0.153 NA
ATOM      8  H   UNL     1       9.451  -6.734   0.610  0.00  0.00    +0.189 HD
ATOM      9  C   UNL     1       9.669  -9.524   1.027  0.00  0.00    +0.066 C 
ATOM     10  C   UNL     1       6.632 -10.269   0.023  0.00  0.00    +0.124 A 
ATOM     11  N   UNL     1       7.229 -11.432   0.022  0.00  0.00    -0.384 N 
ATOM     12  N   UNL     1       5.240 -10.105  -0.059  0.00  0.00    -0.275 N 
ATOM     13  H   UNL     1       8.197 -11.479   0.021  0.00  0.00    +0.157 HD
ATOM     14  H   UNL     1       6.703 -12.247   0.021  0.00  0.00    +0.157 HD
ENDROOT
BRANCH  12  15
ATOM     15  C   UNL     1       4.383 -11.083   0.461  0.00  0.00    +0.051 A 
ATOM     16  C   UNL     1       3.917 -10.977   1.765  0.00  0.00    +0.026 A 
ATOM     17  C   UNL     1       3.072 -11.943   2.275  0.00  0.00    +0.002 A 
ATOM     18  C   UNL     1       2.690 -13.015   1.489  0.00  0.00    +0.003 A 
ATOM     19  C   UNL     1       3.152 -13.123   0.191  0.00  0.00    -0.048 A 
ATOM     20  C   UNL     1       3.993 -12.157  -0.327  0.00  0.00    +0.029 A 
ATOM     21  C   UNL     1       2.735 -14.293  -0.662  0.00  0.00    +0.044 C 
ENDBRANCH  12  15
BRANCH   1  22
ATOM     22  S   UNL     1       3.095  -9.087  -1.327  0.00  0.00    -0.078 S 
BRANCH  22  23
ATOM     23  C   UNL     1       2.794  -7.433  -2.007  0.00  0.00    +0.173 C 
BRANCH  23  25
ATOM     24  N   UNL     1       0.974  -6.247  -3.189  0.00  0.00    -0.311 N 
ATOM     25  C   UNL     1       1.418  -7.384  -2.619  0.00  0.00    +0.224 C 
ATOM     26  O   UNL     1       0.710  -8.369  -2.599  0.00  0.00    -0.275 OA
ATOM     27  H   UNL     1       1.540  -5.459  -3.206  0.00  0.00    +0.149 HD
BRANCH  24  28
ATOM     28  C   UNL     1      -0.364  -6.199  -3.785  0.00  0.00    +0.139 C 
BRANCH  28  33
ATOM     29  C   UNL     1      -1.327  -0.930  -5.953  0.00  0.00    +0.044 C 
ATOM     30  C   UNL     1      -1.076  -2.304  -5.387  0.00  0.00    -0.050 A 
ATOM     31  C   UNL     1      -0.504  -3.283  -6.178  0.00  0.00    +0.003 A 
ATOM     32  C   UNL     1      -0.274  -4.544  -5.660  0.00  0.00    +0.005 A 
ATOM     33  C   UNL     1      -0.614  -4.825  -4.350  0.00  0.00    -0.030 A 
ATOM     34  C   UNL     1      -1.185  -3.846  -3.558  0.00  0.00    +0.005 A 
ATOM     35  C   UNL     1      -1.411  -2.584  -4.076  0.00  0.00    +0.003 A 
ENDBRANCH  28  33
ENDBRANCH  24  28
ENDBRANCH  23  25
ENDBRANCH  22  23
ENDBRANCH   1  22
TORSDOF 6
