REMARK  Name = ZINC04062525
REMARK  3 active torsions:
REMARK  status: ('A' for Active; 'I' for Inactive)
REMARK    1  A    between atoms: C_7  and  S_15
REMARK    2  A    between atoms: C_9  and  N_12
REMARK    3  A    between atoms: C_10  and  N_11
REMARK                            x       y       z     vdW  Elec       q    Type
REMARK                         _______ _______ _______ _____ _____    ______ ____
ROOT
ATOM      1  C   UNL     1       1.251   2.100  -1.131  0.00  0.00    +0.001 A 
ATOM      2  C   UNL     1       0.145   1.277  -0.930  0.00  0.00    +0.001 A 
ATOM      3  C   UNL     1      -1.037   1.788  -0.489  0.00  0.00    +0.010 A 
ATOM      4  C   UNL     1      -1.144   3.161  -0.220  0.00  0.00    +0.007 A 
ATOM      5  C   UNL     1      -0.020   3.999  -0.424  0.00  0.00    +0.011 A 
ATOM      6  C   UNL     1       1.183   3.438  -0.886  0.00  0.00    +0.010 A 
ATOM      7  C   UNL     1      -0.127   5.376  -0.161  0.00  0.00    +0.130 A 
ATOM      8  C   UNL     1      -1.304   5.894   0.285  0.00  0.00    +0.064 A 
ATOM      9  C   UNL     1      -2.415   5.081   0.490  0.00  0.00    +0.149 A 
ATOM     10  C   UNL     1      -2.352   3.725   0.244  0.00  0.00    +0.063 A 
ENDROOT
BRANCH   7  11
ATOM     11  S   UNL     1       1.262   6.431  -0.409  0.00  0.00    +0.140 S 
ATOM     12  O   UNL     1       0.980   7.643   0.277  0.00  0.00    -0.140 OA
ATOM     13  O   UNL     1       2.419   5.652  -0.134  0.00  0.00    -0.140 OA
ATOM     14  O   UNL     1       1.310   6.771  -1.892  0.00  0.00    -0.043 OA
ENDBRANCH   7  11
BRANCH  10  15
ATOM     15  N   UNL     1      -3.469   2.920   0.452  0.00  0.00    -0.356 N 
ATOM     16  H   UNL     1      -4.144   3.184   1.097  0.00  0.00    +0.142 HD
ATOM     17  H   UNL     1      -3.573   2.096  -0.049  0.00  0.00    +0.142 HD
ENDBRANCH  10  15
BRANCH   9  18
ATOM     18  N   UNL     1      -3.679   5.678   0.977  0.00  0.00    +0.058 N 
ATOM     19  O   UNL     1      -3.712   6.850   1.305  0.00  0.00    -0.126 OA
ATOM     20  O   UNL     1      -4.686   4.996   1.049  0.00  0.00    -0.126 OA
ENDBRANCH   9  18
TORSDOF 3
