REMARK  Name = ZINC16047913
REMARK  10 active torsions:
REMARK  status: ('A' for Active; 'I' for Inactive)
REMARK    1  A    between atoms: C_1  and  C_2
REMARK    2  A    between atoms: C_2  and  O_3
REMARK    3  A    between atoms: O_3  and  C_4
REMARK    4  A    between atoms: C_7  and  C_10
REMARK    5  A    between atoms: C_10  and  O_12
REMARK    6  A    between atoms: O_12  and  C_13
REMARK    7  A    between atoms: C_16  and  C_20
REMARK    8  A    between atoms: C_20  and  S_21
REMARK    9  A    between atoms: S_21  and  C_22
REMARK   10  A    between atoms: C_28  and  C_30
REMARK                            x       y       z     vdW  Elec       q    Type
REMARK                         _______ _______ _______ _____ _____    ______ ____
ROOT
ATOM      1  C   UNL     1      -0.002   0.003   0.004  0.00  0.00    +0.213 A 
ATOM      2  C   UNL     1       1.194  -0.626  -0.034  0.00  0.00    +0.245 A 
ATOM      3  O   UNL     1       2.337   0.071  -0.040  0.00  0.00    -0.463 OA
ATOM      4  C   UNL     1       2.354   1.409  -0.009  0.00  0.00    +0.119 A 
ATOM      5  C   UNL     1       1.207   2.117   0.029  0.00  0.00    +0.097 A 
ATOM      6  C   UNL     1      -0.029   1.425   0.036  0.00  0.00    +0.227 A 
ATOM      7  O   UNL     1      -1.089   2.032   0.066  0.00  0.00    -0.284 OA
ENDROOT
BRANCH   1   8
ATOM      8  O   UNL     1      -1.160  -0.712   0.009  0.00  0.00    -0.415 OA
BRANCH   8   9
ATOM      9  C   UNL     1      -1.802  -0.845  -1.168  0.00  0.00    +0.345 C 
ATOM     10  O   UNL     1      -1.294  -0.423  -2.188  0.00  0.00    -0.245 OA
BRANCH   9  14
ATOM     11  C   UNL     1      -5.598  -2.740  -1.313  0.00  0.00    +0.121 A 
ATOM     12  C   UNL     1      -5.019  -2.258  -2.481  0.00  0.00    +0.046 A 
ATOM     13  C   UNL     1      -3.788  -1.643  -2.439  0.00  0.00    +0.018 A 
ATOM     14  C   UNL     1      -3.120  -1.503  -1.218  0.00  0.00    +0.060 A 
ATOM     15  C   UNL     1      -3.704  -1.994  -0.047  0.00  0.00    +0.018 A 
ATOM     16  C   UNL     1      -4.938  -2.603  -0.097  0.00  0.00    +0.046 A 
BRANCH  11  17
ATOM     17  O   UNL     1      -6.811  -3.346  -1.359  0.00  0.00    -0.492 OA
BRANCH  17  19
ATOM     18  C   UNL     1      -8.711  -4.467  -0.372  0.00  0.00    +0.048 C 
ATOM     19  C   UNL     1      -7.348  -3.819  -0.122  0.00  0.00    +0.225 C 
ENDBRANCH  17  19
ENDBRANCH  11  17
ENDBRANCH   9  14
ENDBRANCH   8   9
ENDBRANCH   1   8
BRANCH   4  20
ATOM     20  C   UNL     1       3.675   2.135  -0.018  0.00  0.00    +0.150 C 
BRANCH  20  21
ATOM     21  S   UNL     1       4.236   2.387   1.689  0.00  0.00    -0.089 S 
BRANCH  21  22
ATOM     22  C   UNL     1       5.770   3.235   1.511  0.00  0.00    +0.160 A 
ATOM     23  N   UNL     1       6.394   3.615   0.411  0.00  0.00    -0.133 NA
ATOM     24  N   UNL     1       7.599   4.274   0.501  0.00  0.00    -0.125 NA
ATOM     25  C   UNL     1       8.124   4.523   1.685  0.00  0.00    +0.189 A 
ATOM     26  S   UNL     1       6.894   3.819   2.772  0.00  0.00    -0.024 S 
ATOM     27  N   UNL     1       9.316   5.167   2.002  0.00  0.00    -0.259 N 
ATOM     28  C   UNL     1      10.110   5.637   1.020  0.00  0.00    +0.256 C 
ATOM     29  O   UNL     1       9.785   5.498  -0.145  0.00  0.00    -0.269 OA
ATOM     30  H   UNL     1       9.575   5.277   2.930  0.00  0.00    +0.157 HD
BRANCH  28  31
ATOM     31  C   UNL     1      11.366   6.315   1.354  0.00  0.00    +0.074 A 
ATOM     32  C   UNL     1      12.314   6.865   0.506  0.00  0.00    +0.021 A 
ATOM     33  C   UNL     1      13.411   7.449   1.090  0.00  0.00    +0.008 A 
ATOM     34  C   UNL     1      13.514   7.460   2.445  0.00  0.00    +0.046 A 
ATOM     35  S   UNL     1      12.067   6.655   2.959  0.00  0.00    -0.092 S 
ENDBRANCH  28  31
ENDBRANCH  21  22
ENDBRANCH  20  21
ENDBRANCH   4  20
TORSDOF 9
