REMARK  Name = ZINC34749722
REMARK  6 active torsions:
REMARK  status: ('A' for Active; 'I' for Inactive)
REMARK    1  A    between atoms: C_1  and  C_2
REMARK    2  A    between atoms: C_2  and  C_3
REMARK    3  A    between atoms: C_3  and  N_4
REMARK    4  A    between atoms: C_8  and  C_28
REMARK    5  A    between atoms: N_17  and  C_20
REMARK    6  A    between atoms: C_20  and  C_21
REMARK                            x       y       z     vdW  Elec       q    Type
REMARK                         _______ _______ _______ _____ _____    ______ ____
ROOT
ATOM      1  N   UNL     1       0.785  -1.966  -1.375  0.00  0.00    -0.280 N 
ATOM      2  C   UNL     1       1.860  -2.614  -0.892  0.00  0.00    +0.264 A 
ATOM      3  O   UNL     1       2.851  -1.994  -0.546  0.00  0.00    -0.267 OA
ATOM      4  C   UNL     1       1.827  -4.039  -0.788  0.00  0.00    +0.080 A 
ATOM      5  C   UNL     1       2.856  -4.953  -0.301  0.00  0.00    +0.004 A 
ATOM      6  C   UNL     1       2.597  -6.281  -0.294  0.00  0.00    +0.056 A 
ATOM      7  S   UNL     1       0.942  -6.384  -0.948  0.00  0.00    -0.076 S 
ATOM      8  C   UNL     1       0.637  -4.656  -1.212  0.00  0.00    +0.118 A 
ATOM      9  N   UNL     1      -0.390  -3.957  -1.682  0.00  0.00    -0.208 NA
ATOM     10  C   UNL     1      -0.334  -2.643  -1.760  0.00  0.00    +0.202 A 
ATOM     11  N   UNL     1      -1.414  -1.947  -2.243  0.00  0.00    -0.304 N 
ATOM     12  C   UNL     1      -1.540  -1.644  -3.677  0.00  0.00    +0.089 C 
ATOM     13  C   UNL     1      -2.934  -2.074  -4.144  0.00  0.00    -0.059 C 
ATOM     14  N   UNL     1      -3.951  -1.436  -3.299  0.00  0.00    +0.384 N 
ATOM     15  C   UNL     1      -3.830  -1.922  -1.919  0.00  0.00    -0.059 C 
ATOM     16  C   UNL     1      -2.483  -1.489  -1.342  0.00  0.00    +0.089 C 
ATOM     17  H   UNL     1      -3.821  -0.436  -3.315  0.00  0.00    -0.081 HD
ENDROOT
BRANCH   5  18
ATOM     18  C   UNL     1       4.160  -4.435   0.177  0.00  0.00    -0.017 A 
ATOM     19  C   UNL     1       4.883  -3.533  -0.603  0.00  0.00    +0.008 A 
ATOM     20  C   UNL     1       6.096  -3.054  -0.152  0.00  0.00    +0.001 A 
ATOM     21  C   UNL     1       6.595  -3.467   1.070  0.00  0.00    +0.000 A 
ATOM     22  C   UNL     1       5.882  -4.362   1.848  0.00  0.00    +0.001 A 
ATOM     23  C   UNL     1       4.665  -4.843   1.411  0.00  0.00    +0.008 A 
ENDBRANCH   5  18
BRANCH   1  24
ATOM     24  C   UNL     1       0.814  -0.506  -1.484  0.00  0.00    +0.128 C 
BRANCH  24  26
ATOM     25  C   UNL     1       0.453   1.639  -0.254  0.00  0.00    +0.005 C 
ATOM     26  C   UNL     1       0.422   0.114  -0.141  0.00  0.00    +0.018 C 
ENDBRANCH  24  26
ENDBRANCH   1  24
BRANCH  14  27
ATOM     27  C   UNL     1      -5.288  -1.760  -3.815  0.00  0.00    -0.041 C 
BRANCH  27  28
ATOM     28  C   UNL     1      -6.327  -1.009  -3.024  0.00  0.00    -0.046 A 
ATOM     29  C   UNL     1      -7.024  -1.647  -2.016  0.00  0.00    +0.003 A 
ATOM     30  C   UNL     1      -7.978  -0.958  -1.290  0.00  0.00    +0.000 A 
ATOM     31  C   UNL     1      -8.235   0.371  -1.573  0.00  0.00    +0.001 A 
ATOM     32  C   UNL     1      -7.539   1.010  -2.581  0.00  0.00    +0.020 A 
ATOM     33  C   UNL     1      -6.580   0.322  -3.304  0.00  0.00    +0.042 A 
ATOM     34 CL   UNL     1      -5.701   1.127  -4.566  0.00  0.00    -0.083 Cl
ENDBRANCH  27  28
ENDBRANCH  14  27
TORSDOF 5
