REMARK  Name = ZINC37366527
REMARK  4 active torsions:
REMARK  status: ('A' for Active; 'I' for Inactive)
REMARK    1  A    between atoms: C_1  and  C_2
REMARK    2  A    between atoms: C_5  and  C_8
REMARK    3  A    between atoms: C_5  and  N_11
REMARK    4  A    between atoms: C_12  and  C_14
REMARK                            x       y       z     vdW  Elec       q    Type
REMARK                         _______ _______ _______ _____ _____    ______ ____
ROOT
ATOM      1  N   UNL     1       2.913  -1.940  -0.036  0.00  0.00    -0.298 N 
ATOM      2  C   UNL     1       3.516  -2.611   0.965  0.00  0.00    +0.235 C 
ATOM      3  O   UNL     1       4.041  -2.002   1.873  0.00  0.00    -0.274 OA
ATOM      4  H   UNL     1       2.493  -2.426  -0.762  0.00  0.00    +0.150 HD
ENDROOT
BRANCH   1   9
ATOM      5  C   UNL     1      -0.019   1.526   0.010  0.00  0.00    +0.007 C 
ATOM      6  C   UNL     1       0.002  -0.004   0.002  0.00  0.00    -0.014 C 
ATOM      7  C   UNL     1       0.718  -0.497  -1.257  0.00  0.00    +0.006 C 
ATOM      8  C   UNL     1       2.154   0.032  -1.268  0.00  0.00    +0.037 C 
ATOM      9  C   UNL     1       2.894  -0.475  -0.028  0.00  0.00    +0.136 C 
ATOM     10  C   UNL     1       2.178   0.019   1.231  0.00  0.00    +0.037 C 
ATOM     11  C   UNL     1       0.742  -0.511   1.242  0.00  0.00    +0.006 C 
BRANCH   9  12
ATOM     12  C   UNL     1       4.307   0.047  -0.039  0.00  0.00    +0.379 C 
ATOM     13  O   UNL     1       4.514   1.248  -0.034  0.00  0.00    -0.244 OA
ATOM     14  O   UNL     1       5.245  -0.733  -0.052  0.00  0.00    -0.244 OA
ENDBRANCH   9  12
ENDBRANCH   1   9
BRANCH   2  15
ATOM     15  C   UNL     1       3.536  -4.118   0.957  0.00  0.00    +0.170 C 
ATOM     16  C   UNL     1       2.157  -4.647   1.431  0.00  0.00    +0.110 C 
ATOM     17  S   UNL     1       2.724  -6.155   2.326  0.00  0.00    -0.065 S 
ATOM     18  C   UNL     1       4.418  -5.665   2.602  0.00  0.00    +0.273 C 
ATOM     19  O   UNL     1       5.229  -6.194   3.338  0.00  0.00    -0.263 OA
ATOM     20  N   UNL     1       4.604  -4.583   1.823  0.00  0.00    -0.294 N 
ATOM     21  H   UNL     1       5.454  -4.116   1.839  0.00  0.00    +0.150 HD
ENDBRANCH   2  15
TORSDOF 3
