REMARK  Name = ZINC67389611
REMARK  11 active torsions:
REMARK  status: ('A' for Active; 'I' for Inactive)
REMARK    1  A    between atoms: C_1  and  C_2
REMARK    2  A    between atoms: N_7  and  C_9
REMARK    3  A    between atoms: C_9  and  C_11
REMARK    4  A    between atoms: C_9  and  C_12
REMARK    5  A    between atoms: C_12  and  N_13
REMARK    6  A    between atoms: N_16  and  C_17
REMARK    7  A    between atoms: C_17  and  C_18
REMARK    8  A    between atoms: C_22  and  C_24
REMARK    9  A    between atoms: N_26  and  C_27
REMARK   10  A    between atoms: C_27  and  C_28
REMARK   11  A    between atoms: C_27  and  C_29
REMARK                            x       y       z     vdW  Elec       q    Type
REMARK                         _______ _______ _______ _____ _____    ______ ____
ROOT
ATOM      1  N   UNL     1       1.995  -4.565   1.353  0.00  0.00    -0.301 N 
ATOM      2  C   UNL     1       1.953  -5.895   1.139  0.00  0.00    +0.300 C 
ATOM      3  O   UNL     1       1.355  -6.617   1.913  0.00  0.00    -0.253 OA
ATOM      4  N   UNL     1       2.574  -6.424   0.067  0.00  0.00    -0.295 N 
ATOM      5  H   UNL     1       2.472  -3.989   0.736  0.00  0.00    +0.150 HD
ATOM      6  H   UNL     1       3.051  -5.848  -0.551  0.00  0.00    +0.151 HD
ENDROOT
BRANCH   1   7
ATOM      7  C   UNL     1       1.320  -3.989   2.519  0.00  0.00    +0.090 C 
BRANCH   7   8
ATOM      8  C   UNL     1       1.403  -2.463   2.455  0.00  0.00    -0.054 C 
ATOM      9  C   UNL     1       0.598  -1.859   3.607  0.00  0.00    -0.012 C 
BRANCH   8  15
ATOM     10  C   UNL     1      -2.636  -2.213  -0.299  0.00  0.00    +0.005 C 
ATOM     11  C   UNL     1      -1.141  -1.893  -0.244  0.00  0.00    -0.031 C 
ATOM     12  C   UNL     1      -0.932  -0.389  -0.444  0.00  0.00    -0.001 C 
ATOM     13  C   UNL     1       0.559  -0.068  -0.309  0.00  0.00    -0.018 C 
ATOM     14  C   UNL     1       1.057  -0.547   1.057  0.00  0.00    -0.078 C 
ATOM     15  N   UNL     1       0.854  -1.996   1.175  0.00  0.00    +0.383 N 
ATOM     16  C   UNL     1      -0.580  -2.305   1.118  0.00  0.00    -0.075 C 
ATOM     17  H   UNL     1       1.327  -2.464   0.417  0.00  0.00    -0.081 HD
ENDBRANCH   8  15
ENDBRANCH   7   8
ENDBRANCH   1   7
BRANCH   4  18
ATOM     18  C   UNL     1       2.529  -7.870  -0.166  0.00  0.00    +0.141 C 
BRANCH  18  19
ATOM     19  C   UNL     1       3.295  -8.201  -1.421  0.00  0.00    -0.030 A 
ATOM     20  C   UNL     1       2.646  -8.211  -2.643  0.00  0.00    +0.005 A 
ATOM     21  C   UNL     1       3.342  -8.514  -3.800  0.00  0.00    +0.001 A 
ATOM     22  C   UNL     1       4.689  -8.807  -3.742  0.00  0.00    +0.013 A 
ATOM     23  C   UNL     1       5.349  -8.799  -2.512  0.00  0.00    +0.037 A 
ATOM     24  C   UNL     1       4.642  -8.487  -1.349  0.00  0.00    +0.018 A 
BRANCH  23  25
ATOM     25  C   UNL     1       6.792  -9.113  -2.442  0.00  0.00    +0.244 C 
ATOM     26  O   UNL     1       7.365  -9.105  -1.370  0.00  0.00    -0.270 OA
ATOM     27  N   UNL     1       7.473  -9.409  -3.567  0.00  0.00    -0.309 N 
ATOM     28  H   UNL     1       7.016  -9.415  -4.423  0.00  0.00    +0.149 HD
BRANCH  27  29
ATOM     29  C   UNL     1       8.903  -9.720  -3.498  0.00  0.00    +0.067 C 
ATOM     30  C   UNL     1       9.086 -11.204  -3.172  0.00  0.00    +0.027 C 
ATOM     31  C   UNL     1       9.559  -9.409  -4.845  0.00  0.00    +0.027 C 
ENDBRANCH  27  29
ENDBRANCH  23  25
ENDBRANCH  18  19
ENDBRANCH   4  18
TORSDOF 7
