REMARK  Name = ZINC03137342
REMARK  8 active torsions:
REMARK  status: ('A' for Active; 'I' for Inactive)
REMARK    1  A    between atoms: C_3  and  N_8
REMARK    2  A    between atoms: C_5  and  O_7
REMARK    3  A    between atoms: N_8  and  C_9
REMARK    4  A    between atoms: C_9  and  N_11
REMARK    5  A    between atoms: N_11  and  C_12
REMARK    6  A    between atoms: C_12  and  C_14
REMARK    7  A    between atoms: C_12  and  N_18
REMARK    8  A    between atoms: C_19  and  C_21
REMARK                            x       y       z     vdW  Elec       q    Type
REMARK                         _______ _______ _______ _____ _____    ______ ____
ROOT
ATOM      1  N   UNL     1       1.072   7.274   0.231  0.00  0.00    -0.305 N 
ATOM      2  H   UNL     1       0.225   7.747   0.241  0.00  0.00    +0.150 HD
ENDROOT
BRANCH   1   3
ATOM      3  C   UNL     1       1.092   5.931   0.123  0.00  0.00    +0.136 C 
ATOM      4  S   UNL     1       2.587   5.096   0.105  0.00  0.00    -0.019 S 
BRANCH   3   5
ATOM      5  N   UNL     1      -0.064   5.245   0.029  0.00  0.00    -0.297 N 
ATOM      6  H   UNL     1      -0.906   5.721  -0.042  0.00  0.00    +0.154 HD
BRANCH   5   9
ATOM      7  C   UNL     1       0.796   1.780   0.914  0.00  0.00    +0.005 A 
ATOM      8  C   UNL     1       0.782   3.162   0.910  0.00  0.00    +0.023 A 
ATOM      9  C   UNL     1      -0.050   3.846   0.034  0.00  0.00    +0.036 A 
ATOM     10  C   UNL     1      -0.868   3.140  -0.838  0.00  0.00    +0.068 A 
ATOM     11  C   UNL     1      -0.847   1.754  -0.835  0.00  0.00    +0.119 A 
ATOM     12  C   UNL     1      -0.017   1.076   0.047  0.00  0.00    +0.045 A 
BRANCH  11  13
ATOM     13  O   UNL     1      -1.642   1.060  -1.691  0.00  0.00    -0.507 OA
ATOM     14  H   UNL     1      -2.517   0.854  -1.335  0.00  0.00    +0.292 HD
ENDBRANCH  11  13
ENDBRANCH   5   9
ENDBRANCH   3   5
ENDBRANCH   1   3
BRANCH   1  15
ATOM     15  C   UNL     1       2.329   8.019   0.333  0.00  0.00    +0.211 C 
BRANCH  15  16
ATOM     16  C   UNL     1       2.278   9.235  -0.594  0.00  0.00    +0.225 C 
ATOM     17 CL   UNL     1       0.906  10.301  -0.112  0.00  0.00    -0.080 Cl
ATOM     18 CL   UNL     1       3.825  10.153  -0.469  0.00  0.00    -0.080 Cl
ATOM     19 CL   UNL     1       2.042   8.685  -2.295  0.00  0.00    -0.080 Cl
ENDBRANCH  15  16
BRANCH  15  20
ATOM     20  N   UNL     1       2.521   8.467   1.715  0.00  0.00    -0.291 N 
ATOM     21  C   UNL     1       3.418   7.846   2.506  0.00  0.00    +0.245 C 
ATOM     22  O   UNL     1       4.067   6.917   2.074  0.00  0.00    -0.273 OA
ATOM     23  H   UNL     1       2.002   9.210   2.061  0.00  0.00    +0.151 HD
BRANCH  21  24
ATOM     24  C   UNL     1       3.615   8.306   3.927  0.00  0.00    +0.308 C 
ATOM     25  F   UNL     1       4.591   7.515   4.543  0.00  0.00    -0.239 F 
ENDBRANCH  21  24
ENDBRANCH  15  20
ENDBRANCH   1  15
TORSDOF 8
