REMARK  Name = ZINC06591389
REMARK  5 active torsions:
REMARK  status: ('A' for Active; 'I' for Inactive)
REMARK    1  A    between atoms: N_3  and  C1*_9
REMARK    2  A    between atoms: C2*_11  and  O2*_21
REMARK    3  A    between atoms: C3*_13  and  O3*_20
REMARK    4  A    between atoms: C4*_15  and  C5*_18
REMARK    5  A    between atoms: C5*_18  and  O5*_19
REMARK                            x       y       z     vdW  Elec       q    Type
REMARK                         _______ _______ _______ _____ _____    ______ ____
ROOT
ATOM      1  C1* UNL     1       0.002  -0.004   0.002  0.00  0.00    +0.255 C 
ATOM      2  C2* UNL     1       1.480  -0.451   0.029  0.00  0.00    +0.195 C 
ATOM      3  C3* UNL     1       2.192   0.804   0.604  0.00  0.00    +0.178 C 
ATOM      4  C4* UNL     1       1.326   1.937  -0.000  0.00  0.00    +0.177 C 
ATOM      5  O4* UNL     1      -0.017   1.428   0.010  0.00  0.00    -0.346 OA
ENDROOT
BRANCH   1   8
ATOM      6  C   UNL     1      -0.830  -0.516  -3.558  0.00  0.00    +0.053 A 
ATOM      7  C   UNL     1      -0.234  -0.052  -2.439  0.00  0.00    +0.096 A 
ATOM      8  N   UNL     1      -0.647  -0.503  -1.213  0.00  0.00    -0.270 N 
ATOM      9  C   UNL     1      -1.649  -1.397  -1.114  0.00  0.00    +0.352 A 
ATOM     10  O   UNL     1      -2.004  -1.781  -0.017  0.00  0.00    -0.244 OA
ATOM     11  N   UNL     1      -2.262  -1.871  -2.214  0.00  0.00    -0.186 NA
ATOM     12  C   UNL     1      -1.881  -1.455  -3.439  0.00  0.00    +0.114 A 
ATOM     13  S   UNL     1      -2.662  -2.058  -4.838  0.00  0.00    -0.030 S 
ENDBRANCH   1   8
BRANCH   3  14
ATOM     14  O3* UNL     1       2.137   0.819   2.032  0.00  0.00    -0.386 OA
ATOM     15  H3* UNL     1       2.599   1.645   2.591  0.00  0.00    +0.210 HD
ENDBRANCH   3  14
BRANCH   2  16
ATOM     16  O2* UNL     1       1.655  -1.576   0.893  0.00  0.00    -0.385 OA
ATOM     17  H2* UNL     1       2.654  -2.018   1.024  0.00  0.00    +0.210 HD
ENDBRANCH   2  16
BRANCH   4  18
ATOM     18  C5* UNL     1       1.423   3.197   0.862  0.00  0.00    +0.190 C 
BRANCH  18  19
ATOM     19  O5* UNL     1       0.658   4.245   0.263  0.00  0.00    -0.392 OA
ATOM     20  H5* UNL     1       0.608   5.233   0.743  0.00  0.00    +0.210 HD
ENDBRANCH  18  19
ENDBRANCH   4  18
TORSDOF 5
