REMARK  Name = ZINC14544458
REMARK  7 active torsions:
REMARK  status: ('A' for Active; 'I' for Inactive)
REMARK    1  A    between atoms: C_1  and  C_2
REMARK    2  A    between atoms: C_2  and  C_3
REMARK    3  A    between atoms: C_3  and  C_4
REMARK    4  A    between atoms: N_6  and  C_7
REMARK    5  A    between atoms: C_20  and  C_23
REMARK    6  A    between atoms: C_32  and  O_33
REMARK    7  A    between atoms: O_33  and  C_34
REMARK                            x       y       z     vdW  Elec       q    Type
REMARK                         _______ _______ _______ _____ _____    ______ ____
ROOT
ATOM      1  C   UNL     1      -1.614   2.711  -2.256  0.00  0.00    +0.039 A 
ATOM      2  C   UNL     1      -2.576   1.843  -2.688  0.00  0.00    +0.025 A 
ATOM      3  C   UNL     1      -2.654   0.588  -2.115  0.00  0.00    +0.023 A 
ATOM      4  C   UNL     1      -1.734   0.211  -1.158  0.00  0.00    +0.062 A 
ATOM      5  C   UNL     1      -0.724   1.090  -0.763  0.00  0.00    +0.052 A 
ATOM      6  C   UNL     1      -0.665   2.341  -1.303  0.00  0.00    +0.003 A 
ATOM      7  C   UNL     1       0.400   3.336  -0.946  0.00  0.00    +0.050 C 
ATOM      8  C   UNL     1       1.425   3.490  -2.076  0.00  0.00    -0.023 C 
ATOM      9  C   UNL     1       2.636   3.600  -1.590  0.00  0.00    -0.030 C 
ATOM     10  C   UNL     1       2.609   3.546  -0.075  0.00  0.00    +0.033 C 
ATOM     11  C   UNL     1       1.257   2.847   0.241  0.00  0.00    +0.029 C 
ATOM     12  C   UNL     1       1.468   1.337   0.111  0.00  0.00    +0.109 C 
ATOM     13  N   UNL     1       0.177   0.655   0.210  0.00  0.00    -0.335 N 
ATOM     14 CL   UNL     1      -1.833  -1.366  -0.441  0.00  0.00    -0.082 Cl
ATOM     15  H   UNL     1       0.294  -0.347   0.173  0.00  0.00    +0.147 HD
ENDROOT
BRANCH  12  16
ATOM     16  C   UNL     1       2.098   1.030  -1.223  0.00  0.00    +0.022 A 
ATOM     17  C   UNL     1       1.461   0.159  -2.122  0.00  0.00    -0.009 A 
ATOM     18  C   UNL     1       0.231  -0.444  -1.804  0.00  0.00    +0.009 A 
ATOM     19  C   UNL     1      -0.359  -1.282  -2.699  0.00  0.00    +0.001 A 
ATOM     20  C   UNL     1       0.238  -1.554  -3.929  0.00  0.00    +0.001 A 
ATOM     21  C   UNL     1       1.428  -0.988  -4.271  0.00  0.00    +0.008 A 
ATOM     22  C   UNL     1       2.067  -0.117  -3.373  0.00  0.00    -0.017 A 
ATOM     23  C   UNL     1       3.297   0.485  -3.692  0.00  0.00    +0.012 A 
ATOM     24  C   UNL     1       3.889   1.324  -2.801  0.00  0.00    +0.046 A 
ATOM     25  C   UNL     1       3.289   1.603  -1.568  0.00  0.00    +0.126 A 
BRANCH  25  26
ATOM     26  O   UNL     1       3.903   2.450  -0.700  0.00  0.00    -0.495 OA
ATOM     27  C   UNL     1       5.157   2.999  -1.108  0.00  0.00    +0.277 C 
ENDBRANCH  25  26
ENDBRANCH  12  16
BRANCH   1  30
ATOM     28  C   UNL     1      -1.842   4.135  -4.149  0.00  0.00    +0.217 C 
ATOM     29  O   UNL     1      -2.243   3.191  -4.796  0.00  0.00    -0.275 OA
ATOM     30  N   UNL     1      -1.550   3.980  -2.842  0.00  0.00    -0.285 N 
ATOM     31  H   UNL     1      -1.297   4.749  -2.308  0.00  0.00    +0.155 HD
BRANCH  28  32
ATOM     32  C   UNL     1      -1.669   5.480  -4.806  0.00  0.00    +0.096 C 
BRANCH  32  34
ATOM     33  C   UNL     1      -1.891   6.748  -6.947  0.00  0.00    +0.004 C 
ATOM     34  C   UNL     1      -2.066   5.382  -6.280  0.00  0.00    +0.006 C 
ENDBRANCH  32  34
ENDBRANCH  28  32
ENDBRANCH   1  30
TORSDOF 5
