REMARK  Name = ZINC46025270
REMARK  9 active torsions:
REMARK  status: ('A' for Active; 'I' for Inactive)
REMARK    1  A    between atoms: C_1  and  C_2
REMARK    2  A    between atoms: C_2  and  C_3
REMARK    3  A    between atoms: C_2  and  C_4
REMARK    4  A    between atoms: C_2  and  C_5
REMARK    5  A    between atoms: C_11  and  N_13
REMARK    6  A    between atoms: N_16  and  N_17
REMARK    7  A    between atoms: N_17  and  C_18
REMARK    8  A    between atoms: C_18  and  N_20
REMARK    9  A    between atoms: N_20  and  C_21
REMARK                            x       y       z     vdW  Elec       q    Type
REMARK                         _______ _______ _______ _____ _____    ______ ____
ROOT
ATOM      1  N   UNL     1       2.163   1.387  -1.333  0.00  0.00    -0.295 N 
ATOM      2  C   UNL     1       3.323   1.978  -0.984  0.00  0.00    +0.316 C 
ATOM      3  O   UNL     1       4.295   1.299  -0.718  0.00  0.00    -0.251 OA
ATOM      4  N   UNL     1       3.405   3.322  -0.929  0.00  0.00    -0.219 N 
ATOM      5  H   UNL     1       1.387   1.930  -1.546  0.00  0.00    +0.151 HD
ATOM      6  H   UNL     1       4.239   3.748  -0.678  0.00  0.00    +0.174 HD
ENDROOT
BRANCH   1  12
ATOM      7  C   UNL     1       0.643  -0.511  -1.070  0.00  0.00    +0.015 C 
ATOM      8  C   UNL     1       0.550  -2.037  -1.132  0.00  0.00    +0.006 C 
ATOM      9  C   UNL     1       0.925  -2.514  -2.537  0.00  0.00    +0.000 C 
ATOM     10  C   UNL     1       2.355  -2.076  -2.860  0.00  0.00    +0.002 C 
ATOM     11  C   UNL     1       2.448  -0.550  -2.798  0.00  0.00    +0.022 C 
ATOM     12  C   UNL     1       2.074  -0.074  -1.393  0.00  0.00    +0.078 C 
BRANCH   7  14
ATOM     13  C   UNL     1       0.199   1.494   0.353  0.00  0.00    +0.011 C 
ATOM     14  C   UNL     1       0.269  -0.034   0.335  0.00  0.00    -0.033 C 
ATOM     15  C   UNL     1       1.328  -0.507   1.333  0.00  0.00    +0.011 C 
ATOM     16  C   UNL     1      -1.093  -0.612   0.724  0.00  0.00    +0.011 C 
ENDBRANCH   7  14
ENDBRANCH   1  12
BRANCH   4  17
ATOM     17  N   UNL     1       2.284   4.106  -1.236  0.00  0.00    -0.245 N 
ATOM     18  H   UNL     1       1.449   3.680  -1.487  0.00  0.00    +0.172 HD
BRANCH  17  19
ATOM     19  C   UNL     1       2.366   5.450  -1.181  0.00  0.00    +0.147 C 
ATOM     20  S   UNL     1       0.997   6.407  -1.555  0.00  0.00    -0.017 S 
BRANCH  19  21
ATOM     21  N   UNL     1       3.526   6.040  -0.832  0.00  0.00    -0.323 N 
ATOM     22  H   UNL     1       4.302   5.498  -0.620  0.00  0.00    +0.148 HD
BRANCH  21  23
ATOM     23  C   UNL     1       3.615   7.502  -0.772  0.00  0.00    +0.072 C 
ATOM     24  C   UNL     1       3.997   8.065  -2.157  0.00  0.00    +0.022 C 
ATOM     25  C   UNL     1       4.938   9.253  -1.837  0.00  0.00    +0.002 C 
ATOM     26  C   UNL     1       5.756   8.726  -0.632  0.00  0.00    +0.002 C 
ATOM     27  C   UNL     1       4.733   7.923   0.197  0.00  0.00    +0.022 C 
ENDBRANCH  21  23
ENDBRANCH  19  21
ENDBRANCH  17  19
ENDBRANCH   4  17
TORSDOF 6
