REMARK  Name = ZINC64684072
REMARK  10 active torsions:
REMARK  status: ('A' for Active; 'I' for Inactive)
REMARK    1  A    between atoms: C_1  and  C_2
REMARK    2  A    between atoms: C_5  and  N_8
REMARK    3  A    between atoms: N_8  and  C_9
REMARK    4  A    between atoms: C_13  and  S_15
REMARK    5  A    between atoms: S_15  and  C_16
REMARK    6  A    between atoms: C_16  and  C_17
REMARK    7  A    between atoms: N_19  and  CA_20
REMARK    8  A    between atoms: CA_20  and  CB_22
REMARK    9  A    between atoms: CA_20  and  C_32
REMARK   10  A    between atoms: CB_22  and  CG_23
REMARK                            x       y       z     vdW  Elec       q    Type
REMARK                         _______ _______ _______ _____ _____    ______ ____
ROOT
ATOM      1  C   UNK A   0      -3.704 -10.439   2.522  0.00  0.00    +0.224 C 
ATOM      2  O   UNK A   0      -4.734 -10.013   3.000  0.00  0.00    -0.275 OA
ATOM      3  N   TRP A   1      -3.535 -11.766   2.359  0.00  0.00    -0.301 N 
ATOM      4  H   TRP A   1      -2.712 -12.107   1.976  0.00  0.00    +0.150 HD
ENDROOT
BRANCH   1   5
ATOM      5  C   UNK A   0      -2.613  -9.485   2.109  0.00  0.00    +0.172 C 
BRANCH   5   6
ATOM      6  S   UNK A   0      -3.138  -7.782   2.453  0.00  0.00    -0.088 S 
BRANCH   6  10
ATOM      7  C   UNK A   0       0.074  -4.907   1.244  0.00  0.00    +0.239 C 
ATOM      8  N   UNK A   0       0.354  -6.344   1.024  0.00  0.00    -0.238 N 
ATOM      9  N   UNK A   0      -0.653  -7.202   1.406  0.00  0.00    -0.171 NA
ATOM     10  C   UNK A   0      -1.774  -6.801   1.923  0.00  0.00    +0.152 C 
ATOM     11  S   UNK A   0      -1.611  -5.022   1.974  0.00  0.00    -0.055 S 
ATOM     12  H   UNK A   0       1.186  -6.658   0.639  0.00  0.00    +0.171 HD
BRANCH   7  13
ATOM     13  N   UNK A   0       0.058  -4.167  -0.021  0.00  0.00    -0.316 N 
ATOM     14  H   UNK A   0       0.060  -4.648  -0.864  0.00  0.00    +0.149 HD
BRANCH  13  19
ATOM     15  C   UNK A   0      -0.018   1.503   0.010  0.00  0.00    +0.044 C 
ATOM     16  C   UNK A   0       0.002  -0.004   0.002  0.00  0.00    -0.050 A 
ATOM     17  C   UNK A   0       0.006  -0.687  -1.200  0.00  0.00    +0.005 A 
ATOM     18  C   UNK A   0       0.024  -2.068  -1.212  0.00  0.00    +0.023 A 
ATOM     19  C   UNK A   0       0.040  -2.771  -0.013  0.00  0.00    +0.029 A 
ATOM     20  C   UNK A   0       0.036  -2.081   1.193  0.00  0.00    +0.023 A 
ATOM     21  C   UNK A   0       0.023  -0.700   1.197  0.00  0.00    +0.005 A 
ENDBRANCH  13  19
ENDBRANCH   7  13
ENDBRANCH   6  10
ENDBRANCH   5   6
ENDBRANCH   1   5
BRANCH   3  22
ATOM     22  CA  TRP A   1      -4.596 -12.694   2.760  0.00  0.00    +0.190 C 
BRANCH  22  23
ATOM     23  C   TRP A   1      -5.595 -12.830   1.639  0.00  0.00    +0.376 C 
ATOM     24  O   TRP A   1      -5.234 -12.702   0.482  0.00  0.00    -0.244 OA
ATOM     25  OXT TRP A   1      -6.764 -13.067   1.890  0.00  0.00    -0.244 OA
ENDBRANCH  22  23
BRANCH  22  26
ATOM     26  CB  TRP A   1      -3.986 -14.063   3.068  0.00  0.00    +0.067 C 
BRANCH  26  27
ATOM     27  CG  TRP A   1      -3.080 -13.951   4.267  0.00  0.00    -0.039 C 
ATOM     28  CD2 TRP A   1      -3.400 -14.212   5.555  0.00  0.00    -0.001 A 
ATOM     29  CE3 TRP A   1      -4.640 -14.659   6.201  0.00  0.00    +0.010 A 
ATOM     30  CZ3 TRP A   1      -4.655 -14.836   7.541  0.00  0.00    +0.001 A 
ATOM     31  CH2 TRP A   1      -3.518 -14.603   8.328  0.00  0.00    +0.002 A 
ATOM     32  CZ2 TRP A   1      -2.343 -14.191   7.807  0.00  0.00    +0.026 A 
ATOM     33  CE2 TRP A   1      -2.214 -13.973   6.408  0.00  0.00    +0.043 A 
ATOM     34  NE1 TRP A   1      -1.200 -13.580   5.675  0.00  0.00    -0.380 N 
ATOM     35  CD1 TRP A   1      -1.627 -13.531   4.273  0.00  0.00    +0.144 C 
ATOM     36  HE1 TRP A   1      -0.314 -13.362   6.005  0.00  0.00    +0.160 HD
ENDBRANCH  26  27
ENDBRANCH  22  26
ENDBRANCH   3  22
TORSDOF 9
