REMARK  Name = ZINC56992185
REMARK  11 active torsions:
REMARK  status: ('A' for Active; 'I' for Inactive)
REMARK    1  A    between atoms: C_1  and  C_2
REMARK    2  A    between atoms: C_2  and  N_3
REMARK    3  A    between atoms: N_3  and  C_4
REMARK    4  A    between atoms: N_3  and  C_6
REMARK    5  A    between atoms: C_4  and  C_5
REMARK    6  A    between atoms: C_9  and  C_12
REMARK    7  A    between atoms: C_14  and  C_32
REMARK    8  A    between atoms: C_15  and  C_31
REMARK    9  A    between atoms: C_20  and  S_22
REMARK   10  A    between atoms: S_22  and  C_23
REMARK   11  A    between atoms: C_23  and  C_24
REMARK                            x       y       z     vdW  Elec       q    Type
REMARK                         _______ _______ _______ _____ _____    ______ ____
ROOT
ATOM      1  C   UNL     1      -2.460  -1.464  -5.984  0.00  0.00    +0.158 C 
ATOM      2  C   UNL     1      -2.095  -2.902  -6.370  0.00  0.00    +0.148 C 
ATOM      3  C   UNL     1      -0.695  -2.980  -6.907  0.00  0.00    +0.034 C 
ATOM      4  N   UNL     1      -0.149  -2.020  -7.580  0.00  0.00    -0.220 NA
ATOM      5  C   UNL     1      -0.855  -0.867  -7.775  0.00  0.00    +0.250 A 
ATOM      6  N   UNL     1      -1.961  -0.575  -7.034  0.00  0.00    -0.220 N 
ATOM      7  N   UNL     1      -2.437   0.652  -7.484  0.00  0.00    -0.141 NA
ATOM      8  C   UNL     1      -1.615   1.050  -8.435  0.00  0.00    +0.211 A 
ATOM      9  N   UNL     1      -0.653   0.129  -8.598  0.00  0.00    -0.184 NA
ATOM     10  C   UNL     1       0.108  -4.230  -6.652  0.00  0.00    +0.062 C 
ENDROOT
BRANCH   1  14
ATOM     11  C   UNL     1      -0.634  -0.462  -2.252  0.00  0.00    +0.030 A 
ATOM     12  C   UNL     1      -2.015  -0.410  -2.387  0.00  0.00    +0.023 A 
ATOM     13  C   UNL     1      -2.602  -0.734  -3.595  0.00  0.00    +0.007 A 
ATOM     14  C   UNL     1      -1.816  -1.110  -4.668  0.00  0.00    -0.022 A 
ATOM     15  C   UNL     1      -0.440  -1.163  -4.537  0.00  0.00    +0.007 A 
ATOM     16  C   UNL     1       0.153  -0.835  -3.334  0.00  0.00    +0.023 A 
BRANCH  11  17
ATOM     17  N   UNL     1      -0.037  -0.135  -1.032  0.00  0.00    -0.330 N 
BRANCH  17  19
ATOM     18  C   UNL     1      -1.072   1.775   0.092  0.00  0.00    +0.024 C 
ATOM     19  C   UNL     1      -0.869   0.258   0.108  0.00  0.00    +0.102 C 
ENDBRANCH  17  19
BRANCH  17  20
ATOM     20  C   UNL     1       1.421  -0.185  -0.893  0.00  0.00    +0.102 C 
ATOM     21  C   UNL     1       1.841  -1.582  -0.432  0.00  0.00    +0.024 C 
ENDBRANCH  17  20
ENDBRANCH  11  17
ENDBRANCH   1  14
BRANCH   2  22
ATOM     22  C   UNL     1      -2.208  -3.784  -5.153  0.00  0.00    +0.221 C 
ATOM     23  O   UNL     1      -1.373  -3.716  -4.276  0.00  0.00    -0.275 OA
ATOM     24  N   UNL     1      -3.236  -4.647  -5.039  0.00  0.00    -0.329 N 
ATOM     25  H   UNL     1      -3.904  -4.701  -5.740  0.00  0.00    +0.145 HD
ATOM     26  H   UNL     1      -3.309  -5.215  -4.256  0.00  0.00    +0.145 HD
ENDBRANCH   2  22
BRANCH   8  27
ATOM     27  S   UNL     1      -1.758   2.552  -9.346  0.00  0.00    -0.080 S 
BRANCH  27  28
ATOM     28  C   UNL     1      -0.346   2.511 -10.483  0.00  0.00    +0.114 C 
BRANCH  28  29
ATOM     29  C   UNL     1      -0.349   3.755 -11.334  0.00  0.00    -0.019 A 
ATOM     30  C   UNL     1      -1.029   3.768 -12.537  0.00  0.00    +0.006 A 
ATOM     31  C   UNL     1      -1.032   4.909 -13.317  0.00  0.00    +0.000 A 
ATOM     32  C   UNL     1      -0.356   6.039 -12.894  0.00  0.00    +0.001 A 
ATOM     33  C   UNL     1       0.324   6.027 -11.691  0.00  0.00    +0.020 A 
ATOM     34  C   UNL     1       0.323   4.887 -10.907  0.00  0.00    +0.045 A 
ATOM     35 CL   UNL     1       1.171   4.873  -9.393  0.00  0.00    -0.083 Cl
ENDBRANCH  28  29
ENDBRANCH  27  28
ENDBRANCH   8  27
TORSDOF 8
