REMARK  Name = ZINC02286063
REMARK  9 active torsions:
REMARK  status: ('A' for Active; 'I' for Inactive)
REMARK    1  A    between atoms: C_4  and  C_7
REMARK    2  A    between atoms: C_8  and  C_23
REMARK    3  A    between atoms: N_11  and  C_14
REMARK    4  A    between atoms: C_17  and  N_20
REMARK    5  A    between atoms: N_24  and  C_25
REMARK    6  A    between atoms: C_25  and  C_26
REMARK    7  A    between atoms: C_26  and  C_27
REMARK    8  A    between atoms: C_27  and  C_28
REMARK    9  A    between atoms: C_27  and  C_34
REMARK                            x       y       z     vdW  Elec       q    Type
REMARK                         _______ _______ _______ _____ _____    ______ ____
ROOT
ATOM      1  C   UNL     1       1.733  -0.481   1.308  0.00  0.00    +0.077 A 
ATOM      2  C   UNL     1       2.233  -1.782   1.377  0.00  0.00    +0.082 A 
ATOM      3  C   UNL     1       3.656  -1.663   1.719  0.00  0.00    +0.281 A 
ATOM      4  O   UNL     1       4.443  -2.580   1.871  0.00  0.00    -0.265 OA
ATOM      5  N   UNL     1       3.926  -0.347   1.832  0.00  0.00    -0.219 N 
ATOM      6  N   UNL     1       2.759   0.379   1.577  0.00  0.00    -0.289 N 
ATOM      7  H   UNL     1       2.689   1.346   1.591  0.00  0.00    +0.187 HD
ENDROOT
BRANCH   1  11
ATOM      8  C   UNL     1      -2.266   0.611   0.398  0.00  0.00    +0.000 A 
ATOM      9  C   UNL     1      -1.617   1.202   1.469  0.00  0.00    +0.001 A 
ATOM     10  C   UNL     1      -0.318   0.852   1.770  0.00  0.00    +0.010 A 
ATOM     11  C   UNL     1       0.344  -0.102   0.992  0.00  0.00    +0.000 A 
ATOM     12  C   UNL     1      -0.318  -0.695  -0.087  0.00  0.00    +0.010 A 
ATOM     13  C   UNL     1      -1.617  -0.335  -0.377  0.00  0.00    +0.001 A 
ENDBRANCH   1  11
BRANCH   5  14
ATOM     14  C   UNL     1       5.173   0.202   2.148  0.00  0.00    +0.067 A 
ATOM     15  C   UNL     1       5.322   1.580   2.241  0.00  0.00    +0.030 A 
ATOM     16  C   UNL     1       6.555   2.119   2.554  0.00  0.00    +0.035 A 
ATOM     17  C   UNL     1       7.639   1.289   2.773  0.00  0.00    +0.126 A 
ATOM     18  C   UNL     1       7.493  -0.083   2.680  0.00  0.00    +0.035 A 
ATOM     19  C   UNL     1       6.262  -0.629   2.374  0.00  0.00    +0.030 A 
BRANCH  17  20
ATOM     20  N   UNL     1       8.958   1.871   3.107  0.00  0.00    +0.056 N 
ATOM     21  O   UNL     1       9.087   3.070   3.188  0.00  0.00    -0.126 OA
ATOM     22  O   UNL     1       9.907   1.146   3.300  0.00  0.00    -0.126 OA
ENDBRANCH  17  20
ENDBRANCH   5  14
BRANCH   2  23
ATOM     23  C   UNL     1       1.485  -3.022   1.154  0.00  0.00    +0.093 C 
ATOM     24  N   UNL     1       2.105  -4.163   1.154  0.00  0.00    -0.389 N 
ATOM     25  H   UNL     1       3.063  -4.194   1.302  0.00  0.00    +0.159 HD
BRANCH  24  26
ATOM     26  C   UNL     1       1.358  -5.403   0.931  0.00  0.00    +0.113 C 
BRANCH  26  27
ATOM     27  C   UNL     1       1.815  -6.045  -0.380  0.00  0.00    +0.033 C 
BRANCH  27  28
ATOM     28  C   UNL     1       1.034  -7.340  -0.614  0.00  0.00    +0.051 C 
BRANCH  28  29
ATOM     29  C   UNL     1      -0.424  -7.018  -0.815  0.00  0.00    -0.040 A 
ATOM     30  C   UNL     1      -1.385  -7.658  -0.054  0.00  0.00    +0.004 A 
ATOM     31  C   UNL     1      -2.723  -7.363  -0.239  0.00  0.00    +0.000 A 
ATOM     32  C   UNL     1      -3.100  -6.427  -1.184  0.00  0.00    +0.000 A 
ATOM     33  C   UNL     1      -2.139  -5.786  -1.944  0.00  0.00    +0.000 A 
ATOM     34  C   UNL     1      -0.801  -6.079  -1.756  0.00  0.00    +0.004 A 
ENDBRANCH  28  29
BRANCH  28  35
ATOM     35  C   UNL     1       1.569  -8.036  -1.839  0.00  0.00    -0.040 A 
ATOM     36  C   UNL     1       1.691  -7.342  -3.029  0.00  0.00    +0.004 A 
ATOM     37  C   UNL     1       2.182  -7.980  -4.153  0.00  0.00    +0.000 A 
ATOM     38  C   UNL     1       2.550  -9.311  -4.087  0.00  0.00    +0.000 A 
ATOM     39  C   UNL     1       2.429 -10.004  -2.897  0.00  0.00    +0.000 A 
ATOM     40  C   UNL     1       1.942  -9.365  -1.772  0.00  0.00    +0.004 A 
ENDBRANCH  28  35
ENDBRANCH  27  28
ENDBRANCH  26  27
ENDBRANCH  24  26
ENDBRANCH   2  23
TORSDOF 9
