REMARK  Name = ZINC61823767
REMARK  6 active torsions:
REMARK  status: ('A' for Active; 'I' for Inactive)
REMARK    1  A    between atoms: C_1  and  C_2
REMARK    2  A    between atoms: C_2  and  C_18
REMARK    3  A    between atoms: N_10  and  CA_11
REMARK    4  A    between atoms: CA_11  and  CB_13
REMARK    5  A    between atoms: CA_11  and  C_15
REMARK    6  A    between atoms: CB_13  and  OG_14
REMARK                            x       y       z     vdW  Elec       q    Type
REMARK                         _______ _______ _______ _____ _____    ______ ____
ROOT
ATOM      1  C   UNK A   0      -0.019   1.525   0.012  0.00  0.00    +0.011 C 
ATOM      2  C   UNK A   0       0.002  -0.005  -0.002  0.00  0.00    -0.032 C 
ATOM      3  C   UNK A   0       0.719  -0.494  -1.263  0.00  0.00    +0.025 C 
ATOM      4  C   UNK A   0       2.145   0.067  -1.284  0.00  0.00    +0.110 C 
ATOM      5  N   UNK A   0       2.815  -0.299  -0.028  0.00  0.00    -0.286 N 
ATOM      6  C   UNK A   0       2.166   0.044   1.245  0.00  0.00    +0.110 C 
ATOM      7  C   UNK A   0       0.740  -0.516   1.237  0.00  0.00    +0.025 C 
ATOM      8  C   UNK A   0       4.002  -0.936  -0.044  0.00  0.00    +0.303 C 
ATOM      9  O   UNK A   0       4.484  -1.299  -1.099  0.00  0.00    -0.253 OA
ATOM     10  N   SER A   1       4.656  -1.171   1.111  0.00  0.00    -0.284 N 
ATOM     11  C   UNK A   0      -1.434  -0.535   0.004  0.00  0.00    +0.011 C 
ATOM     12  H   SER A   1       4.240  -0.947   1.958  0.00  0.00    +0.151 HD
ENDROOT
BRANCH  10  13
ATOM     13  CA  SER A   1       5.995  -1.765   1.087  0.00  0.00    +0.213 C 
BRANCH  13  14
ATOM     14  C   SER A   1       5.878  -3.266   1.016  0.00  0.00    +0.378 C 
ATOM     15  O   SER A   1       6.743  -3.920   0.459  0.00  0.00    -0.244 OA
ATOM     16  OXT SER A   1       4.917  -3.827   1.515  0.00  0.00    -0.244 OA
ENDBRANCH  13  14
BRANCH  13  17
ATOM     17  CB  SER A   1       6.750  -1.373   2.359  0.00  0.00    +0.189 C 
BRANCH  17  18
ATOM     18  OG  SER A   1       6.101  -1.948   3.495  0.00  0.00    -0.393 OA
ATOM     19  H   SER A   1       6.527  -1.740   4.338  0.00  0.00    +0.209 HD
ENDBRANCH  17  18
ENDBRANCH  13  17
ENDBRANCH  10  13
TORSDOF 4
