REMARK  Name = ZINC14532046
REMARK  13 active torsions:
REMARK  status: ('A' for Active; 'I' for Inactive)
REMARK    1  A    between atoms: C_1  and  C_2
REMARK    2  A    between atoms: C_2  and  C_3
REMARK    3  A    between atoms: C_2  and  C_4
REMARK    4  A    between atoms: C_4  and  C_5
REMARK    5  A    between atoms: C_5  and  N_6
REMARK    6  A    between atoms: N_9  and  C_27
REMARK    7  A    between atoms: C_17  and  C_18
REMARK    8  A    between atoms: C_17  and  N_65
REMARK    9  A    between atoms: C_20  and  O_25
REMARK   10  A    between atoms: C_23  and  O_24
REMARK   11  A    between atoms: O_25  and  C_26
REMARK   12  A    between atoms: C_27  and  C_28
REMARK   13  A    between atoms: C_27  and  C_29
REMARK                            x       y       z     vdW  Elec       q    Type
REMARK                         _______ _______ _______ _____ _____    ______ ____
ROOT
ATOM      1  N   UNL     1       0.686   3.731  -1.512  0.00  0.00    -0.271 N 
ATOM      2  C   UNL     1       0.623   4.461  -2.642  0.00  0.00    +0.312 C 
ATOM      3  O   UNL     1       1.554   5.106  -3.083  0.00  0.00    -0.252 OA
ATOM      4  N   UNL     1      -0.580   4.396  -3.225  0.00  0.00    -0.222 N 
ATOM      5  C   UNL     1      -1.428   3.611  -2.528  0.00  0.00    +0.247 C 
ATOM      6  O   UNL     1      -2.582   3.355  -2.798  0.00  0.00    -0.273 OA
ATOM      7  C   UNL     1      -0.636   3.117  -1.340  0.00  0.00    +0.112 C 
ATOM      8  C   UNL     1      -0.528   1.596  -1.365  0.00  0.00    +0.017 C 
ATOM      9  C   UNL     1       0.256   1.124  -0.136  0.00  0.00    -0.076 C 
ATOM     10  C   UNL     1      -0.471   3.048   1.147  0.00  0.00    -0.076 C 
ATOM     11  C   UNL     1      -1.278   3.585  -0.038  0.00  0.00    +0.017 C 
ATOM     12  N   UNL     1      -0.452   1.571   1.083  0.00  0.00    +0.383 N 
ATOM     13  H   UNL     1      -1.419   1.227   1.052  0.00  0.00    -0.081 HD
ENDROOT
BRANCH   4  14
ATOM     14  C   UNL     1      -0.933   5.090  -4.466  0.00  0.00    +0.080 C 
ATOM     15  C   UNL     1      -0.764   6.598  -4.272  0.00  0.00    +0.028 C 
ATOM     16  C   UNL     1      -0.015   4.615  -5.594  0.00  0.00    +0.028 C 
ENDBRANCH   4  14
BRANCH   1  17
ATOM     17  C   UNL     1       1.845   3.580  -0.628  0.00  0.00    +0.110 C 
BRANCH  17  18
ATOM     18  C   UNL     1       2.950   2.817  -1.362  0.00  0.00    +0.022 C 
BRANCH  18  20
ATOM     19  C   UNL     1       5.158   1.678  -1.097  0.00  0.00    +0.007 C 
ATOM     20  C   UNL     1       4.109   2.548  -0.400  0.00  0.00    -0.016 C 
ATOM     21  C   UNL     1       4.744   3.875   0.019  0.00  0.00    +0.007 C 
ENDBRANCH  18  20
ENDBRANCH  17  18
ENDBRANCH   1  17
BRANCH  12  22
ATOM     22  C   UNL     1       0.214   1.023   2.282  0.00  0.00    -0.039 C 
BRANCH  22  23
ATOM     23  C   UNL     1      -0.442   1.594   3.513  0.00  0.00    -0.019 A 
ATOM     24  C   UNL     1       0.209   2.557   4.259  0.00  0.00    +0.051 A 
ATOM     25  C   UNL     1      -0.397   3.086   5.388  0.00  0.00    +0.121 A 
ATOM     26  C   UNL     1      -1.653   2.641   5.775  0.00  0.00    +0.049 A 
ATOM     27  C   UNL     1      -2.301   1.674   5.032  0.00  0.00    +0.049 A 
ATOM     28  C   UNL     1      -1.698   1.149   3.899  0.00  0.00    +0.118 A 
BRANCH  28  29
ATOM     29  O   UNL     1      -2.336   0.197   3.167  0.00  0.00    -0.507 OA
ATOM     30  H   UNL     1      -2.207  -0.703   3.495  0.00  0.00    +0.292 HD
ENDBRANCH  28  29
BRANCH  25  31
ATOM     31  O   UNL     1       0.242   4.038   6.120  0.00  0.00    -0.495 OA
ATOM     32  C   UNL     1      -0.439   4.534   7.275  0.00  0.00    +0.277 C 
ENDBRANCH  25  31
ENDBRANCH  22  23
ENDBRANCH  12  22
TORSDOF 8
