REMARK  Name = ZINC64611322
REMARK  4 active torsions:
REMARK  status: ('A' for Active; 'I' for Inactive)
REMARK    1  A    between atoms: C_1  and  N_2
REMARK    2  A    between atoms: C_8  and  C_10
REMARK    3  A    between atoms: C_10  and  C_11
REMARK    4  A    between atoms: C_11  and  C_12
REMARK                            x       y       z     vdW  Elec       q    Type
REMARK                         _______ _______ _______ _____ _____    ______ ____
ROOT
ATOM      1  C   UNL     1      -0.051  -4.226   2.647  0.00  0.00    +0.100 C 
ENDROOT
BRANCH   1   9
ATOM      2  C   UNL     1      -0.018   1.465   0.010  0.00  0.00    +0.105 C 
ATOM      3  N   UNL     1       0.002  -0.004   0.002  0.00  0.00    -0.302 NA
ATOM      4  C   UNL     1      -1.359  -0.548  -0.091  0.00  0.00    +0.103 C 
ATOM      5  C   UNL     1      -1.286  -2.068  -0.279  0.00  0.00    +0.123 C 
ATOM      6  N   UNL     1      -0.463  -2.633   0.801  0.00  0.00    -0.299 N 
ATOM      7  C   UNL     1       0.864  -2.046   1.044  0.00  0.00    +0.123 C 
ATOM      8  C   UNL     1       0.706  -0.527   1.180  0.00  0.00    +0.103 C 
ATOM      9  C   UNL     1      -0.911  -3.662   1.546  0.00  0.00    +0.216 C 
ATOM     10  O   UNL     1      -2.007  -4.135   1.331  0.00  0.00    -0.276 OA
ENDBRANCH   1   9
BRANCH   1  11
ATOM     11  C   UNL     1      -0.789  -5.377   3.333  0.00  0.00    +0.044 C 
BRANCH  11  12
ATOM     12  C   UNL     1       0.071  -5.941   4.434  0.00  0.00    -0.049 C 
ATOM     13  C   UNL     1      -0.116  -5.496   5.682  0.00  0.00    +0.008 C 
ATOM     14  C   UNL     1       0.695  -6.088   6.796  0.00  0.00    +0.158 C 
ATOM     15  C   UNL     1       2.006  -6.571   6.204  0.00  0.00    -0.018 C 
ATOM     16  C   UNL     1       2.966  -6.080   7.008  0.00  0.00    +0.025 C 
ATOM     17  C   UNL     1       2.384  -5.202   7.949  0.00  0.00    +0.106 C 
ATOM     18  N   UNL     1       1.085  -5.150   7.839  0.00  0.00    -0.279 NA
ATOM     19  C   UNL     1       2.071  -7.250   4.972  0.00  0.00    +0.006 C 
ATOM     20  C   UNL     1       1.067  -6.952   4.092  0.00  0.00    +0.004 C 
ENDBRANCH  11  12
ENDBRANCH   1  11
TORSDOF 3
