REMARK  Name = ZINC40801481
REMARK  10 active torsions:
REMARK  status: ('A' for Active; 'I' for Inactive)
REMARK    1  A    between atoms: C_1  and  C_2
REMARK    2  A    between atoms: C_2  and  O_3
REMARK    3  A    between atoms: O_3  and  C_4
REMARK    4  A    between atoms: C_9  and  N_10
REMARK    5  A    between atoms: C_12  and  N_26
REMARK    6  A    between atoms: C_13  and  N_17
REMARK    7  A    between atoms: N_17  and  C_18
REMARK    8  A    between atoms: C_18  and  C_19
REMARK    9  A    between atoms: C_19  and  C_20
REMARK   10  A    between atoms: C_20  and  N_21
REMARK                            x       y       z     vdW  Elec       q    Type
REMARK                         _______ _______ _______ _____ _____    ______ ____
ROOT
ATOM      1  N   UNL     1       2.017  -1.505   3.374  0.00  0.00    -0.295 N 
ATOM      2  C   UNL     1       2.585  -2.035   4.527  0.00  0.00    +0.149 A 
ATOM      3  C   UNL     1       3.041  -1.194   5.544  0.00  0.00    +0.105 A 
ATOM      4  C   UNL     1       3.603  -1.779   6.680  0.00  0.00    +0.145 A 
ATOM      5  N   UNL     1       3.681  -3.106   6.751  0.00  0.00    -0.219 NA
ATOM      6  C   UNL     1       3.238  -3.864   5.768  0.00  0.00    +0.225 A 
ATOM      7  N   UNL     1       2.696  -3.353   4.681  0.00  0.00    -0.219 NA
ATOM      8  H   UNL     1       1.849  -0.552   3.311  0.00  0.00    +0.154 HD
ENDROOT
BRANCH   1  14
ATOM      9  C   UNL     1       0.683  -1.983   1.412  0.00  0.00    +0.142 A 
ATOM     10  C   UNL     1       0.367  -2.817   0.353  0.00  0.00    +0.047 A 
ATOM     11  C   UNL     1       1.045  -4.010   0.185  0.00  0.00    +0.004 A 
ATOM     12  C   UNL     1       2.040  -4.374   1.073  0.00  0.00    +0.002 A 
ATOM     13  C   UNL     1       2.362  -3.548   2.133  0.00  0.00    +0.027 A 
ATOM     14  C   UNL     1       1.689  -2.346   2.304  0.00  0.00    +0.075 A 
BRANCH   9  15
ATOM     15  O   UNL     1       0.016  -0.809   1.579  0.00  0.00    -0.490 OA
BRANCH  15  17
ATOM     16  C   UNL     1      -1.636   0.847   0.974  0.00  0.00    +0.048 C 
ATOM     17  C   UNL     1      -1.003  -0.501   0.626  0.00  0.00    +0.226 C 
ENDBRANCH  15  17
ENDBRANCH   9  15
ENDBRANCH   1  14
BRANCH   3  18
ATOM     18  N   UNL     1       2.939   0.201   5.426  0.00  0.00    -0.353 N 
ATOM     19  H   UNL     1       2.547   0.594   4.631  0.00  0.00    +0.143 HD
ATOM     20  H   UNL     1       3.260   0.773   6.141  0.00  0.00    +0.143 HD
ENDBRANCH   3  18
BRANCH   4  21
ATOM     21  N   UNL     1       4.073  -0.988   7.722  0.00  0.00    -0.327 N 
ATOM     22  H   UNL     1       4.013  -0.022   7.662  0.00  0.00    +0.148 HD
BRANCH  21  23
ATOM     23  C   UNL     1       4.660  -1.614   8.909  0.00  0.00    +0.105 C 
BRANCH  23  24
ATOM     24  C   UNL     1       5.095  -0.528   9.896  0.00  0.00    +0.040 C 
BRANCH  24  25
ATOM     25  C   UNL     1       5.708  -1.181  11.136  0.00  0.00    +0.124 C 
BRANCH  25  26
ATOM     26  N   UNL     1       6.124  -0.141  12.080  0.00  0.00    -0.338 N 
ATOM     27  C   UNL     1       7.347   0.472  12.126  0.00  0.00    +0.104 A 
ATOM     28  C   UNL     1       7.300   1.358  13.139  0.00  0.00    +0.101 A 
ATOM     29  N   UNL     1       6.082   1.287  13.697  0.00  0.00    -0.352 N 
ATOM     30  C   UNL     1       5.371   0.395  13.065  0.00  0.00    +0.173 A 
ATOM     31  H   UNL     1       5.778   1.818  14.449  0.00  0.00    +0.166 HD
ENDBRANCH  25  26
ENDBRANCH  24  25
ENDBRANCH  23  24
ENDBRANCH  21  23
ENDBRANCH   4  21
TORSDOF 9
