REMARK  Name = ZINC13064920
REMARK  16 active torsions:
REMARK  status: ('A' for Active; 'I' for Inactive)
REMARK    1  A    between atoms: C_1  and  C_2
REMARK    2  A    between atoms: C_2  and  C_3
REMARK    3  A    between atoms: C_3  and  C_5
REMARK    4  A    between atoms: C_3  and  N_74
REMARK    5  A    between atoms: N_9  and  C_10
REMARK    6  A    between atoms: C_10  and  C_11
REMARK    7  A    between atoms: C_10  and  C_12
REMARK    8  A    between atoms: C_10  and  C_13
REMARK    9  A    between atoms: C_13  and  C_14
REMARK   10  A    between atoms: C_15  and  C_16
REMARK   11  A    between atoms: C_15  and  N_74
REMARK   12  A    between atoms: C_19  and  C_22
REMARK   13  A    between atoms: C_23  and  C_24
REMARK   14  A    between atoms: C_23  and  N_74
REMARK   15  A    between atoms: C_27  and  C_37
REMARK   16  A    between atoms: C_29  and  C_36
REMARK                            x       y       z     vdW  Elec       q    Type
REMARK                         _______ _______ _______ _____ _____    ______ ____
ROOT
ATOM      1  N   UNL     1       0.734  -1.034   4.086  0.00  0.00    +0.392 N 
ATOM      2  H   UNL     1      -0.001  -1.728   3.905  0.00  0.00    -0.080 HD
ENDROOT
BRANCH   1   3
ATOM      3  C   UNL     1       0.863  -0.153   2.906  0.00  0.00    +0.003 C 
BRANCH   3   4
ATOM      4  C   UNL     1      -0.509   0.078   2.325  0.00  0.00    +0.139 A 
ATOM      5  N   UNL     1      -1.625   0.236   2.994  0.00  0.00    -0.115 NA
ATOM      6  N   UNL     1      -2.578   0.403   2.143  0.00  0.00    -0.023 NA
ATOM      7  N   UNL     1      -2.098   0.359   0.949  0.00  0.00    -0.043 NA
ATOM      8  N   UNL     1      -0.825   0.164   1.020  0.00  0.00    -0.225 N 
BRANCH   8   9
ATOM      9  C   UNL     1       0.102   0.051  -0.109  0.00  0.00    +0.061 C 
ATOM     10  C   UNL     1       0.676  -1.367  -0.157  0.00  0.00    +0.036 C 
ATOM     11  C   UNL     1       1.242   1.056   0.064  0.00  0.00    +0.036 C 
BRANCH   9  12
ATOM     12  C   UNL     1      -0.644   0.344  -1.412  0.00  0.00    +0.026 C 
ATOM     13  C   UNL     1       0.324   0.225  -2.591  0.00  0.00    +0.006 C 
ENDBRANCH   9  12
ENDBRANCH   8   9
ENDBRANCH   3   4
BRANCH   3  15
ATOM     14  C   UNL     1       2.870   0.954   3.900  0.00  0.00    +0.002 C 
ATOM     15  C   UNL     1       1.479   1.189   3.306  0.00  0.00    -0.011 C 
ENDBRANCH   3  15
ENDBRANCH   1   3
BRANCH   1  16
ATOM     16  C   UNL     1       2.009  -1.739   4.331  0.00  0.00    -0.042 C 
BRANCH  16  17
ATOM     17  C   UNL     1       2.175  -2.817   3.291  0.00  0.00    -0.064 A 
ATOM     18  C   UNL     1       1.484  -4.007   3.413  0.00  0.00    +0.002 A 
ATOM     19  C   UNL     1       1.632  -4.994   2.457  0.00  0.00    +0.003 A 
ATOM     20  C   UNL     1       2.479  -4.794   1.383  0.00  0.00    -0.050 A 
ATOM     21  C   UNL     1       3.174  -3.605   1.263  0.00  0.00    +0.003 A 
ATOM     22  C   UNL     1       3.022  -2.616   2.217  0.00  0.00    +0.002 A 
ATOM     23  C   UNL     1       2.645  -5.871   0.342  0.00  0.00    +0.044 C 
ENDBRANCH  16  17
ENDBRANCH   1  16
BRANCH   1  24
ATOM     24  C   UNL     1       0.360  -0.237   5.273  0.00  0.00    -0.036 C 
BRANCH  24  25
ATOM     25  C   UNL     1      -1.127   0.005   5.242  0.00  0.00    +0.001 A 
ATOM     26  C   UNL     1      -1.984  -1.031   5.421  0.00  0.00    +0.017 A 
ATOM     27  C   UNL     1      -3.423  -0.763   5.386  0.00  0.00    +0.002 A 
ATOM     28  C   UNL     1      -4.355  -1.790   5.564  0.00  0.00    -0.041 A 
ATOM     29  C   UNL     1      -5.691  -1.507   5.526  0.00  0.00    +0.007 A 
ATOM     30  C   UNL     1      -6.131  -0.208   5.311  0.00  0.00    -0.048 A 
ATOM     31  C   UNL     1      -5.231   0.820   5.133  0.00  0.00    +0.029 A 
ATOM     32  C   UNL     1      -3.866   0.555   5.168  0.00  0.00    +0.050 A 
ATOM     33  N   UNL     1      -2.943   1.565   4.994  0.00  0.00    -0.322 N 
ATOM     34  H   UNL     1      -3.250   2.473   4.845  0.00  0.00    +0.169 HD
ATOM     35  C   UNL     1      -1.623   1.310   5.034  0.00  0.00    +0.251 A 
ATOM     36  O   UNL     1      -0.836   2.227   4.881  0.00  0.00    -0.268 OA
ATOM     37  C   UNL     1      -7.610   0.081   5.273  0.00  0.00    +0.044 C 
ATOM     38  C   UNL     1      -3.888  -3.204   5.796  0.00  0.00    +0.044 C 
ENDBRANCH  24  25
ENDBRANCH   1  24
TORSDOF 9
