REMARK  Name = ZINC42371239
REMARK  5 active torsions:
REMARK  status: ('A' for Active; 'I' for Inactive)
REMARK    1  A    between atoms: C_6  and  C_7
REMARK    2  A    between atoms: C_7  and  N_8
REMARK    3  A    between atoms: N_8  and  S_9
REMARK    4  A    between atoms: S_9  and  C_12
REMARK    5  A    between atoms: C_15  and  N_19
REMARK                            x       y       z     vdW  Elec       q    Type
REMARK                         _______ _______ _______ _____ _____    ______ ____
ROOT
ATOM      1  S   UNL     1      -2.898  -2.144  -1.682  0.00  0.00    +0.060 S 
ATOM      2  O   UNL     1      -3.112  -2.127  -3.087  0.00  0.00    -0.153 OA
ATOM      3  O   UNL     1      -2.525  -3.324  -0.983  0.00  0.00    -0.153 OA
ENDROOT
BRANCH   1   4
ATOM      4  C   UNL     1      -4.387  -1.567  -0.938  0.00  0.00    +0.124 A 
ATOM      5  C   UNL     1      -5.471  -1.236  -1.730  0.00  0.00    +0.032 A 
ATOM      6  C   UNL     1      -6.640  -0.784  -1.151  0.00  0.00    +0.025 A 
ATOM      7  C   UNL     1      -6.727  -0.661   0.231  0.00  0.00    +0.026 A 
ATOM      8  C   UNL     1      -5.637  -0.994   1.024  0.00  0.00    +0.044 A 
ATOM      9  C   UNL     1      -4.472  -1.451   0.439  0.00  0.00    +0.069 A 
ATOM     10 CL   UNL     1      -3.111  -1.874   1.430  0.00  0.00    -0.081 Cl
BRANCH   7  11
ATOM     11  N   UNL     1      -7.908  -0.203   0.820  0.00  0.00    -0.358 N 
ATOM     12  H   UNL     1      -8.668   0.030   0.264  0.00  0.00    +0.142 HD
ATOM     13  H   UNL     1      -7.968  -0.117   1.784  0.00  0.00    +0.142 HD
ENDBRANCH   7  11
ENDBRANCH   1   4
BRANCH   1  14
ATOM     14  N   UNL     1      -1.726  -1.017  -1.368  0.00  0.00    -0.186 NA
ATOM     15  H   UNL     1      -1.325  -0.518  -2.097  0.00  0.00    +0.148 HD
BRANCH  14  16
ATOM     16  C   UNL     1      -1.293  -0.775   0.010  0.00  0.00    +0.141 C 
BRANCH  16  22
ATOM     17  C   UNL     1      -0.017   1.378   0.010  0.00  0.00    +0.006 A 
ATOM     18  C   UNL     1       1.171   2.086   0.002  0.00  0.00    +0.015 A 
ATOM     19  C   UNL     1       2.378   1.411  -0.013  0.00  0.00    +0.018 A 
ATOM     20  C   UNL     1       2.396   0.027  -0.021  0.00  0.00    +0.015 A 
ATOM     21  C   UNL     1       1.208  -0.679  -0.013  0.00  0.00    +0.006 A 
ATOM     22  C   UNL     1       0.002  -0.004   0.002  0.00  0.00    -0.032 A 
ATOM     23 BR   UNL     1       4.003   2.378  -0.024  0.00  0.00    -0.050 Br
ENDBRANCH  16  22
ENDBRANCH  14  16
ENDBRANCH   1  14
TORSDOF 5
