REMARK  Name = ZINC53113165
REMARK  7 active torsions:
REMARK  status: ('A' for Active; 'I' for Inactive)
REMARK    1  A    between atoms: C_1  and  C_2
REMARK    2  A    between atoms: C_7  and  C_9
REMARK    3  A    between atoms: C_7  and  N_11
REMARK    4  A    between atoms: C_9  and  O_10
REMARK    5  A    between atoms: N_11  and  S_12
REMARK    6  A    between atoms: S_12  and  C_15
REMARK    7  A    between atoms: C_18  and  N_22
REMARK                            x       y       z     vdW  Elec       q    Type
REMARK                         _______ _______ _______ _____ _____    ______ ____
ROOT
ATOM      1  S   UNL     1       3.047   2.672   0.818  0.00  0.00    +0.060 S 
ATOM      2  O   UNL     1       3.399   2.419  -0.535  0.00  0.00    -0.153 OA
ATOM      3  O   UNL     1       2.422   3.881   1.229  0.00  0.00    -0.153 OA
ENDROOT
BRANCH   1   4
ATOM      4  C   UNL     1       4.529   2.526   1.759  0.00  0.00    +0.124 A 
ATOM      5  C   UNL     1       5.730   2.274   1.121  0.00  0.00    +0.032 A 
ATOM      6  C   UNL     1       6.893   2.159   1.856  0.00  0.00    +0.025 A 
ATOM      7  C   UNL     1       6.857   2.298   3.238  0.00  0.00    +0.026 A 
ATOM      8  C   UNL     1       5.651   2.552   3.877  0.00  0.00    +0.044 A 
ATOM      9  C   UNL     1       4.490   2.670   3.135  0.00  0.00    +0.069 A 
ATOM     10 CL   UNL     1       2.982   2.994   3.931  0.00  0.00    -0.081 Cl
BRANCH   7  11
ATOM     11  N   UNL     1       8.033   2.181   3.984  0.00  0.00    -0.358 N 
ATOM     12  H   UNL     1       8.875   2.004   3.537  0.00  0.00    +0.142 HD
ATOM     13  H   UNL     1       8.007   2.278   4.949  0.00  0.00    +0.142 HD
ENDBRANCH   7  11
ENDBRANCH   1   4
BRANCH   1  14
ATOM     14  N   UNL     1       2.046   1.439   1.286  0.00  0.00    -0.182 NA
ATOM     15  H   UNL     1       1.240   1.633   1.789  0.00  0.00    +0.149 HD
BRANCH  14  21
ATOM     16  C   UNL     1      -0.226   1.217   0.269  0.00  0.00    +0.007 C 
ATOM     17  C   UNL     1       0.121  -0.229  -0.093  0.00  0.00    -0.012 C 
ATOM     18  C   UNL     1       0.761  -0.268  -1.482  0.00  0.00    +0.003 C 
ATOM     19  C   UNL     1       2.037   0.577  -1.479  0.00  0.00    +0.002 C 
ATOM     20  C   UNL     1       3.019   0.016  -0.449  0.00  0.00    +0.026 C 
ATOM     21  C   UNL     1       2.378   0.055   0.940  0.00  0.00    +0.063 C 
ATOM     22  C   UNL     1       1.103  -0.791   0.938  0.00  0.00    +0.029 C 
BRANCH  21  23
ATOM     23  C   UNL     1       3.360  -0.507   1.970  0.00  0.00    +0.179 C 
BRANCH  23  24
ATOM     24  O   UNL     1       4.607   0.183   1.865  0.00  0.00    -0.393 OA
ATOM     25  H   UNL     1       5.279  -0.122   2.490  0.00  0.00    +0.209 HD
ENDBRANCH  23  24
ENDBRANCH  21  23
ENDBRANCH  14  21
ENDBRANCH   1  14
TORSDOF 6
