REMARK  Name = ZINC49126270
REMARK  5 active torsions:
REMARK  status: ('A' for Active; 'I' for Inactive)
REMARK    1  A    between atoms: C_1  and  C_2
REMARK    2  A    between atoms: C_2  and  C_4
REMARK    3  A    between atoms: C_2  and  N_10
REMARK    4  A    between atoms: C_11  and  C_13
REMARK    5  A    between atoms: C_16  and  N_20
REMARK                            x       y       z     vdW  Elec       q    Type
REMARK                         _______ _______ _______ _____ _____    ______ ____
ROOT
ATOM      1  N   UNL     1       0.688  -0.476  -1.203  0.00  0.00    -0.304 N 
ATOM      2  C   UNL     1       2.031  -0.587  -1.215  0.00  0.00    +0.246 C 
ATOM      3  O   UNL     1       2.674  -0.294  -0.225  0.00  0.00    -0.270 OA
ATOM      4  H   UNL     1       0.175  -0.710  -1.993  0.00  0.00    +0.150 HD
ENDROOT
BRANCH   2   5
ATOM      5  C   UNL     1       2.721  -1.062  -2.428  0.00  0.00    +0.055 A 
ATOM      6  C   UNL     1       1.984  -1.394  -3.569  0.00  0.00    +0.016 A 
ATOM      7  C   UNL     1       2.624  -1.835  -4.692  0.00  0.00    +0.023 A 
ATOM      8  C   UNL     1       4.011  -1.956  -4.708  0.00  0.00    +0.026 A 
ATOM      9  C   UNL     1       4.754  -1.629  -3.578  0.00  0.00    +0.043 A 
ATOM     10  C   UNL     1       4.116  -1.178  -2.442  0.00  0.00    +0.055 A 
ATOM     11 CL   UNL     1       5.038  -0.762  -1.032  0.00  0.00    -0.083 Cl
BRANCH   8  12
ATOM     12  N   UNL     1       4.655  -2.406  -5.855  0.00  0.00    -0.358 N 
ATOM     13  H   UNL     1       4.138  -2.634  -6.643  0.00  0.00    +0.142 HD
ATOM     14  H   UNL     1       5.621  -2.490  -5.867  0.00  0.00    +0.142 HD
ENDBRANCH   8  12
ENDBRANCH   2   5
BRANCH   1  16
ATOM     15  C   UNL     1      -0.019   1.526   0.010  0.00  0.00    +0.033 C 
ATOM     16  C   UNL     1       0.002  -0.004   0.002  0.00  0.00    +0.107 C 
BRANCH  16  17
ATOM     17  C   UNL     1      -1.412  -0.526   0.013  0.00  0.00    +0.011 A 
ATOM     18  C   UNL     1      -2.141  -0.993   1.055  0.00  0.00    +0.014 A 
ATOM     19  C   UNL     1      -3.435  -1.425   0.828  0.00  0.00    +0.028 A 
ATOM     20  C   UNL     1      -3.935  -1.368  -0.431  0.00  0.00    +0.078 A 
ATOM     21  S   UNL     1      -2.563  -0.681  -1.343  0.00  0.00    -0.080 S 
ATOM     22 CL   UNL     1      -5.505  -1.836  -1.006  0.00  0.00    -0.076 Cl
ENDBRANCH  16  17
ENDBRANCH   1  16
TORSDOF 4
