REMARK  Name = ZINC23157920
REMARK  8 active torsions:
REMARK  status: ('A' for Active; 'I' for Inactive)
REMARK    1  A    between atoms: C_1  and  C_2
REMARK    2  A    between atoms: C_7  and  O_33
REMARK    3  A    between atoms: C_8  and  C_10
REMARK    4  A    between atoms: C_10  and  C_12
REMARK    5  A    between atoms: C_10  and  N_20
REMARK    6  A    between atoms: C_16  and  O_18
REMARK    7  A    between atoms: O_18  and  C_19
REMARK    8  A    between atoms: N_23  and  C_26
REMARK                            x       y       z     vdW  Elec       q    Type
REMARK                         _______ _______ _______ _____ _____    ______ ____
ROOT
ATOM      1  C   UNL     1       2.447   4.220   0.001  0.00  0.00    +0.130 C 
ENDROOT
BRANCH   1   9
ATOM      2  C   UNL     1       4.827   5.656   6.922  0.00  0.00    +0.090 C 
ATOM      3  C   UNL     1       4.241   5.488   5.544  0.00  0.00    +0.150 A 
ATOM      4  N   UNL     1       3.262   6.228   5.027  0.00  0.00    -0.205 NA
ATOM      5  C   UNL     1       3.001   5.814   3.818  0.00  0.00    +0.199 A 
ATOM      6  N   UNL     1       3.818   4.771   3.506  0.00  0.00    -0.173 N 
ATOM      7  N   UNL     1       4.613   4.594   4.668  0.00  0.00    -0.147 NA
ATOM      8  C   UNL     1       3.675   4.210   2.259  0.00  0.00    +0.228 A 
ATOM      9  C   UNL     1       2.765   4.683   1.399  0.00  0.00    +0.076 A 
ATOM     10  S   UNL     1       2.030   6.010   2.343  0.00  0.00    -0.047 S 
BRANCH   8  11
ATOM     11  O   UNL     1       4.467   3.166   1.895  0.00  0.00    -0.492 OA
ATOM     12  H   UNL     1       4.357   2.713   0.899  0.00  0.00    +0.294 HD
ENDBRANCH   8  11
ENDBRANCH   1   9
BRANCH   1  13
ATOM     13  C   UNL     1       1.154   3.447   0.009  0.00  0.00    -0.022 A 
ATOM     14  C   UNL     1      -0.054   4.121   0.024  0.00  0.00    +0.006 A 
ATOM     15  C   UNL     1      -1.242   3.415   0.032  0.00  0.00    +0.004 A 
ATOM     16  C   UNL     1      -1.226   2.033   0.019  0.00  0.00    +0.045 A 
ATOM     17  C   UNL     1      -0.016   1.355   0.009  0.00  0.00    +0.120 A 
ATOM     18  C   UNL     1       1.175   2.066   0.002  0.00  0.00    +0.051 A 
BRANCH  17  19
ATOM     19  O   UNL     1       0.002  -0.004   0.002  0.00  0.00    -0.495 OA
ATOM     20  C   UNL     1      -1.262  -0.670   0.011  0.00  0.00    +0.277 C 
ENDBRANCH  17  19
ENDBRANCH   1  13
BRANCH   1  21
ATOM     21  N   UNL     1       2.315   5.386  -0.882  0.00  0.00    -0.288 NA
ATOM     22  C   UNL     1       1.916   4.979  -2.237  0.00  0.00    +0.104 C 
ATOM     23  C   UNL     1       1.712   6.225  -3.102  0.00  0.00    +0.120 C 
ATOM     24  N   UNL     1       2.958   7.004  -3.135  0.00  0.00    -0.327 N 
ATOM     25  C   UNL     1       3.357   7.412  -1.781  0.00  0.00    +0.120 C 
ATOM     26  C   UNL     1       3.560   6.166  -0.915  0.00  0.00    +0.104 C 
BRANCH  24  27
ATOM     27  C   UNL     1       2.832   8.114  -3.976  0.00  0.00    +0.030 A 
ATOM     28  C   UNL     1       3.072   9.390  -3.483  0.00  0.00    +0.026 A 
ATOM     29  C   UNL     1       2.951  10.485  -4.316  0.00  0.00    +0.040 A 
ATOM     30  C   UNL     1       2.582  10.312  -5.640  0.00  0.00    +0.124 A 
ATOM     31  C   UNL     1       2.337   9.041  -6.132  0.00  0.00    +0.040 A 
ATOM     32  C   UNL     1       2.461   7.943  -5.303  0.00  0.00    +0.026 A 
ATOM     33  F   UNL     1       2.460  11.385  -6.452  0.00  0.00    -0.205 F 
ENDBRANCH  24  27
ENDBRANCH   1  21
TORSDOF 6
