REMARK  Name = ZINC40903789
REMARK  9 active torsions:
REMARK  status: ('A' for Active; 'I' for Inactive)
REMARK    1  A    between atoms: C_1  and  C_2
REMARK    2  A    between atoms: C_2  and  C_3
REMARK    3  A    between atoms: C_3  and  C_4
REMARK    4  A    between atoms: C_6  and  C_9
REMARK    5  A    between atoms: C_12  and  N_16
REMARK    6  A    between atoms: C_19  and  C_22
REMARK    7  A    between atoms: N_24  and  C_25
REMARK    8  A    between atoms: N_28  and  C_31
REMARK    9  A    between atoms: C_31  and  C_32
REMARK                            x       y       z     vdW  Elec       q    Type
REMARK                         _______ _______ _______ _____ _____    ______ ____
ROOT
ATOM      1  N   UNL     1      -1.304  -8.533   4.189  0.00  0.00    -0.328 N 
ATOM      2  C   UNL     1      -0.029  -9.095   4.656  0.00  0.00    +0.106 C 
ATOM      3  C   UNL     1      -0.013 -10.598   4.356  0.00  0.00    +0.031 C 
ATOM      4  C   UNL     1      -1.252 -11.251   4.973  0.00  0.00    +0.078 C 
ATOM      5  C   UNL     1      -2.513 -10.647   4.350  0.00  0.00    +0.031 C 
ATOM      6  C   UNL     1      -2.558  -9.142   4.655  0.00  0.00    +0.106 C 
ENDROOT
BRANCH   1  10
ATOM      7  C   UNL     1      -1.361  -5.264   1.604  0.00  0.00    +0.025 A 
ATOM      8  C   UNL     1      -1.363  -5.065   2.984  0.00  0.00    +0.013 A 
ATOM      9  C   UNL     1      -1.345  -6.147   3.837  0.00  0.00    +0.027 A 
ATOM     10  C   UNL     1      -1.324  -7.439   3.323  0.00  0.00    +0.065 A 
ATOM     11  C   UNL     1      -1.322  -7.641   1.946  0.00  0.00    +0.145 A 
ATOM     12  C   UNL     1      -1.346  -6.560   1.089  0.00  0.00    +0.052 A 
ATOM     13  F   UNL     1      -1.301  -8.897   1.448  0.00  0.00    -0.204 F 
BRANCH   7  16
ATOM     14  C   UNL     1      -1.413  -2.041   0.005  0.00  0.00    +0.228 A 
ATOM     15  N   UNL     1      -1.398  -2.807   1.057  0.00  0.00    -0.191 NA
ATOM     16  C   UNL     1      -1.382  -4.100   0.686  0.00  0.00    +0.202 A 
ATOM     17  N   UNL     1      -1.387  -4.159  -0.624  0.00  0.00    -0.056 NA
ATOM     18  O   UNL     1      -1.413  -2.817  -1.087  0.00  0.00    -0.338 OA
BRANCH  14  19
ATOM     19  C   UNL     1      -1.433  -0.534   0.013  0.00  0.00    +0.098 C 
BRANCH  19  21
ATOM     20  C   UNL     1      -0.019   1.526   0.010  0.00  0.00    +0.004 C 
ATOM     21  C   UNL     1       0.002  -0.004   0.002  0.00  0.00    +0.006 C 
ENDBRANCH  19  21
ENDBRANCH  14  19
ENDBRANCH   7  16
ENDBRANCH   1  10
BRANCH   4  22
ATOM     22  C   UNL     1      -1.222 -12.734   4.709  0.00  0.00    +0.216 C 
ATOM     23  O   UNL     1      -0.301 -13.221   4.088  0.00  0.00    -0.276 OA
ATOM     24  N   UNL     1      -2.219 -13.519   5.162  0.00  0.00    -0.312 N 
ATOM     25  H   UNL     1      -2.956 -13.130   5.659  0.00  0.00    +0.149 HD
BRANCH  24  26
ATOM     26  C   UNL     1      -2.190 -14.961   4.905  0.00  0.00    +0.069 C 
ATOM     27  C   UNL     1      -2.800 -15.249   3.530  0.00  0.00    +0.003 C 
ATOM     28  C   UNL     1      -2.839 -16.761   3.302  0.00  0.00    -0.077 C 
ATOM     29  N   UNL     1      -3.656 -17.396   4.343  0.00  0.00    +0.382 N 
ATOM     30  C   UNL     1      -3.039 -17.185   5.658  0.00  0.00    -0.077 C 
ATOM     31  C   UNL     1      -3.007 -15.689   5.977  0.00  0.00    +0.003 C 
ATOM     32  H   UNL     1      -4.580 -16.991   4.338  0.00  0.00    -0.081 HD
BRANCH  29  33
ATOM     33  C   UNL     1      -3.755 -18.837   4.076  0.00  0.00    -0.043 C 
BRANCH  33  34
ATOM     34  C   UNL     1      -4.692 -19.470   5.072  0.00  0.00    -0.064 A 
ATOM     35  C   UNL     1      -4.202 -19.955   6.270  0.00  0.00    +0.002 A 
ATOM     36  C   UNL     1      -5.062 -20.535   7.184  0.00  0.00    +0.000 A 
ATOM     37  C   UNL     1      -6.412 -20.630   6.900  0.00  0.00    +0.000 A 
ATOM     38  C   UNL     1      -6.902 -20.144   5.702  0.00  0.00    +0.000 A 
ATOM     39  C   UNL     1      -6.043 -19.559   4.790  0.00  0.00    +0.002 A 
ENDBRANCH  33  34
ENDBRANCH  29  33
ENDBRANCH  24  26
ENDBRANCH   4  22
TORSDOF 8
