REMARK  Name = ZINC33767075
REMARK  12 active torsions:
REMARK  status: ('A' for Active; 'I' for Inactive)
REMARK    1  A    between atoms: C_1  and  O_2
REMARK    2  A    between atoms: O_2  and  C_3
REMARK    3  A    between atoms: C_6  and  O_35
REMARK    4  A    between atoms: C_7  and  C_9
REMARK    5  A    between atoms: C_12  and  C_17
REMARK    6  A    between atoms: C_17  and  C_18
REMARK    7  A    between atoms: C_18  and  N_19
REMARK    8  A    between atoms: N_19  and  C_20
REMARK    9  A    between atoms: N_19  and  S_26
REMARK   10  A    between atoms: C_20  and  C_21
REMARK   11  A    between atoms: S_26  and  C_29
REMARK   12  A    between atoms: O_35  and  C_36
REMARK                            x       y       z     vdW  Elec       q    Type
REMARK                         _______ _______ _______ _____ _____    ______ ____
ROOT
ATOM      1  C   UNL     1       7.186   2.564   2.633  0.00  0.00    +0.094 A 
ATOM      2  C   UNL     1       6.064   2.206   1.962  0.00  0.00    +0.122 A 
ATOM      3  N   UNL     1       5.097   1.878   2.906  0.00  0.00    -0.297 N 
ATOM      4  C   UNL     1       3.784   1.457   2.927  0.00  0.00    +0.033 A 
ATOM      5  C   UNL     1       3.154   1.242   4.080  0.00  0.00    +0.070 A 
ATOM      6  S   UNL     1       4.421   1.644   5.273  0.00  0.00    -0.057 S 
ATOM      7  C   UNL     1       5.705   2.071   4.120  0.00  0.00    +0.178 A 
ATOM      8  N   UNL     1       6.932   2.470   3.954  0.00  0.00    -0.221 NA
ENDROOT
BRANCH   1  13
ATOM      9  C   UNL     1       9.798   3.437   0.068  0.00  0.00    +0.121 A 
ATOM     10  C   UNL     1      10.871   3.779   0.879  0.00  0.00    +0.049 A 
ATOM     11  C   UNL     1      10.749   3.727   2.255  0.00  0.00    +0.050 A 
ATOM     12  C   UNL     1       9.553   3.333   2.832  0.00  0.00    +0.130 A 
ATOM     13  C   UNL     1       8.469   2.987   2.020  0.00  0.00    +0.047 A 
ATOM     14  C   UNL     1       8.599   3.036   0.634  0.00  0.00    +0.059 A 
BRANCH   9  16
ATOM     15  C   UNL     1      11.191   3.906  -1.802  0.00  0.00    +0.277 C 
ATOM     16  O   UNL     1       9.925   3.490  -1.285  0.00  0.00    -0.495 OA
ENDBRANCH   9  16
BRANCH  12  17
ATOM     17  O   UNL     1       9.435   3.281   4.185  0.00  0.00    -0.494 OA
ATOM     18  C   UNL     1      10.584   3.648   4.952  0.00  0.00    +0.277 C 
ENDBRANCH  12  17
ENDBRANCH   1  13
BRANCH   4  19
ATOM     19  C   UNL     1       3.055   1.232   1.627  0.00  0.00    +0.071 C 
BRANCH  19  20
ATOM     20  C   UNL     1       2.262   2.488   1.263  0.00  0.00    +0.116 C 
BRANCH  20  21
ATOM     21  N   UNL     1       1.553   2.269  -0.001  0.00  0.00    -0.169 NA
BRANCH  21  22
ATOM     22  S   UNL     1      -0.022   1.758   0.012  0.00  0.00    +0.061 S 
ATOM     23  O   UNL     1      -0.590   2.163  -1.226  0.00  0.00    -0.153 OA
ATOM     24  O   UNL     1      -0.566   2.150   1.264  0.00  0.00    -0.153 OA
BRANCH  22  25
ATOM     25  C   UNL     1       0.002  -0.004   0.002  0.00  0.00    +0.105 A 
ATOM     26  C   UNL     1      -0.006  -0.689  -1.199  0.00  0.00    +0.028 A 
ATOM     27  C   UNL     1       0.018  -2.071  -1.206  0.00  0.00    +0.002 A 
ATOM     28  C   UNL     1       0.039  -2.768  -0.013  0.00  0.00    +0.000 A 
ATOM     29  C   UNL     1       0.041  -2.084   1.188  0.00  0.00    +0.002 A 
ATOM     30  C   UNL     1       0.023  -0.702   1.195  0.00  0.00    +0.028 A 
ENDBRANCH  22  25
ENDBRANCH  21  22
BRANCH  21  31
ATOM     31  C   UNL     1       2.238   2.502  -1.275  0.00  0.00    +0.183 C 
BRANCH  31  32
ATOM     32  C   UNL     1       2.139   3.961  -1.639  0.00  0.00    +0.120 A 
ATOM     33  C   UNL     1       3.017   4.919  -1.294  0.00  0.00    +0.046 A 
ATOM     34  C   UNL     1       2.537   6.131  -1.842  0.00  0.00    +0.041 A 
ATOM     35  C   UNL     1       1.395   5.840  -2.490  0.00  0.00    +0.195 A 
ATOM     36  O   UNL     1       1.161   4.523  -2.369  0.00  0.00    -0.466 OA
ENDBRANCH  31  32
ENDBRANCH  21  31
ENDBRANCH  20  21
ENDBRANCH  19  20
ENDBRANCH   4  19
TORSDOF 10
