REMARK  Name = ZINC00500515
REMARK  3 active torsions:
REMARK  status: ('A' for Active; 'I' for Inactive)
REMARK    1  A    between atoms: C_4  and  C_7
REMARK    2  A    between atoms: C_10  and  C_13
REMARK    3  A    between atoms: N_15  and  N_19
REMARK                            x       y       z     vdW  Elec       q    Type
REMARK                         _______ _______ _______ _____ _____    ______ ____
ROOT
ATOM      1  C   UNL     1       2.481   1.071  -0.015  0.00  0.00    -0.018 A 
ATOM      2  C   UNL     1       2.504  -0.324  -0.017  0.00  0.00    +0.009 A 
ATOM      3  C   UNL     1       3.708  -0.992  -0.037  0.00  0.00    +0.010 A 
ATOM      4  C   UNL     1       4.904  -0.275  -0.045  0.00  0.00    +0.002 A 
ATOM      5  C   UNL     1       4.881   1.120  -0.038  0.00  0.00    +0.010 A 
ATOM      6  C   UNL     1       3.676   1.788  -0.023  0.00  0.00    +0.009 A 
ENDROOT
BRANCH   4   7
ATOM      7  C   UNL     1       6.200  -0.994  -0.060  0.00  0.00    +0.092 A 
ATOM      8  C   UNL     1       6.366  -2.341  -0.063  0.00  0.00    +0.139 A 
ATOM      9  N   UNL     1       7.720  -2.575  -0.082  0.00  0.00    -0.244 N 
ATOM     10  C   UNL     1       8.342  -1.365  -0.081  0.00  0.00    +0.211 A 
ATOM     11  N   UNL     1       7.431  -0.422  -0.068  0.00  0.00    -0.213 NA
ATOM     12  N   UNL     1       9.711  -1.162  -0.091  0.00  0.00    -0.328 N 
ATOM     13  H   UNL     1      10.068  -0.260  -0.089  0.00  0.00    +0.145 HD
ATOM     14  H   UNL     1      10.314  -1.923  -0.101  0.00  0.00    +0.145 HD
BRANCH   9  15
ATOM     15  N   UNL     1       8.328  -3.798  -0.094  0.00  0.00    -0.296 N 
ATOM     16  H   UNL     1       8.498  -4.127   0.844  0.00  0.00    +0.163 HD
ATOM     17  H   UNL     1       7.786  -4.467  -0.620  0.00  0.00    +0.163 HD
ENDBRANCH   9  15
ENDBRANCH   4   7
BRANCH   1  21
ATOM     18  C   UNL     1      -1.236   3.134   0.030  0.00  0.00    +0.000 A 
ATOM     19  C   UNL     1      -1.216   1.751   0.017  0.00  0.00    +0.001 A 
ATOM     20  C   UNL     1      -0.013   1.076   0.008  0.00  0.00    +0.008 A 
ATOM     21  C   UNL     1       1.184   1.790   0.000  0.00  0.00    -0.018 A 
ATOM     22  C   UNL     1       1.158   3.184   0.008  0.00  0.00    +0.008 A 
ATOM     23  C   UNL     1      -0.052   3.848   0.023  0.00  0.00    +0.001 A 
ENDBRANCH   1  21
TORSDOF 3
