REMARK  Name = ZINC22067256
REMARK  10 active torsions:
REMARK  status: ('A' for Active; 'I' for Inactive)
REMARK    1  A    between atoms: C_1  and  C_2
REMARK    2  A    between atoms: C_13  and  C_15
REMARK    3  A    between atoms: C_15  and  O_16
REMARK    4  A    between atoms: O_16  and  C_17
REMARK    5  A    between atoms: C_17  and  C_19
REMARK    6  A    between atoms: C_20  and  C_21
REMARK    7  A    between atoms: C_24  and  S_27
REMARK    8  A    between atoms: S_27  and  N_30
REMARK    9  A    between atoms: N_30  and  C_31
REMARK   10  A    between atoms: C_31  and  C_32
REMARK                            x       y       z     vdW  Elec       q    Type
REMARK                         _______ _______ _______ _____ _____    ______ ____
ROOT
ATOM      1  C   UNL     1      -7.911   5.092  -0.550  0.00  0.00    +0.092 C 
ATOM      2  C   UNL     1      -8.579   5.951  -1.348  0.00  0.00    +0.015 C 
ENDROOT
BRANCH   2   3
ATOM      3  C   UNL     1      -9.868   6.510  -0.911  0.00  0.00    -0.025 A 
ATOM      4  C   UNL     1     -10.407   6.149   0.328  0.00  0.00    +0.010 A 
ATOM      5  C   UNL     1     -11.613   6.682   0.733  0.00  0.00    +0.029 A 
ATOM      6  C   UNL     1     -12.295   7.562  -0.089  0.00  0.00    +0.105 A 
ATOM      7  C   UNL     1     -11.771   7.920  -1.319  0.00  0.00    +0.029 A 
ATOM      8  C   UNL     1     -10.564   7.400  -1.736  0.00  0.00    +0.010 A 
BRANCH   6   9
ATOM      9  S   UNL     1     -13.839   8.232   0.434  0.00  0.00    +0.059 S 
ATOM     10  O   UNL     1     -13.850   8.167   1.853  0.00  0.00    -0.153 OA
ATOM     11  O   UNL     1     -14.014   9.451  -0.275  0.00  0.00    -0.153 OA
BRANCH   9  12
ATOM     12  N   UNL     1     -15.023   7.202  -0.095  0.00  0.00    -0.183 NA
ATOM     13  H   UNL     1     -15.642   7.493  -0.957  0.00  0.00    +0.148 HD
BRANCH  12  14
ATOM     14  C   UNL     1     -15.098   5.838   0.433  0.00  0.00    +0.180 C 
BRANCH  14  15
ATOM     15  C   UNL     1     -16.438   5.239   0.092  0.00  0.00    +0.120 A 
ATOM     16  C   UNL     1     -16.727   4.542  -1.022  0.00  0.00    +0.046 A 
ATOM     17  C   UNL     1     -18.089   4.173  -0.932  0.00  0.00    +0.041 A 
ATOM     18  C   UNL     1     -18.550   4.667   0.231  0.00  0.00    +0.195 A 
ATOM     19  O   UNL     1     -17.545   5.307   0.850  0.00  0.00    -0.466 OA
ENDBRANCH  14  15
ENDBRANCH  12  14
ENDBRANCH   9  12
ENDBRANCH   6   9
ENDBRANCH   2   3
BRANCH   1  20
ATOM     20  C   UNL     1      -6.630   4.536  -0.985  0.00  0.00    +0.332 C 
ATOM     21  O   UNL     1      -6.167   4.848  -2.065  0.00  0.00    -0.246 OA
BRANCH  20  22
ATOM     22  O   UNL     1      -5.962   3.678  -0.187  0.00  0.00    -0.452 OA
BRANCH  22  23
ATOM     23  C   UNL     1      -4.716   3.174  -0.674  0.00  0.00    +0.328 C 
BRANCH  23  35
ATOM     24  C   UNL     1      -3.143   2.388  -2.179  0.00  0.00    +0.028 C 
ATOM     25  C   UNL     1      -2.151   1.984  -1.086  0.00  0.00    +0.079 C 
ATOM     26  C   UNL     1      -1.471   0.662  -1.464  0.00  0.00    +0.027 C 
ATOM     27  C   UNL     1      -0.436   0.314  -0.395  0.00  0.00    +0.039 C 
ATOM     28  C   UNL     1      -1.056   0.371   0.977  0.00  0.00    -0.026 A 
ATOM     29  C   UNL     1      -0.444  -0.308   2.017  0.00  0.00    +0.005 A 
ATOM     30  C   UNL     1      -0.987  -0.273   3.287  0.00  0.00    +0.000 A 
ATOM     31  C   UNL     1      -2.146   0.442   3.527  0.00  0.00    +0.002 A 
ATOM     32  C   UNL     1      -2.762   1.121   2.496  0.00  0.00    +0.024 A 
ATOM     33  C   UNL     1      -2.219   1.085   1.216  0.00  0.00    +0.040 A 
ATOM     34  N   UNL     1      -2.865   1.775   0.181  0.00  0.00    -0.266 N 
ATOM     35  C   UNL     1      -4.120   2.237   0.344  0.00  0.00    +0.258 C 
ATOM     36  O   UNL     1      -4.769   1.900   1.312  0.00  0.00    -0.272 OA
ENDBRANCH  23  35
ENDBRANCH  22  23
ENDBRANCH  20  22
ENDBRANCH   1  20
TORSDOF 9
