REMARK  Name = ZINC32740579
REMARK  5 active torsions:
REMARK  status: ('A' for Active; 'I' for Inactive)
REMARK    1  A    between atoms: C_4  and  C_7
REMARK    2  A    between atoms: C_9  and  C_12
REMARK    3  A    between atoms: C_12  and  C_13
REMARK    4  A    between atoms: C_13  and  C_14
REMARK    5  A    between atoms: N_16  and  C_17
REMARK                            x       y       z     vdW  Elec       q    Type
REMARK                         _______ _______ _______ _____ _____    ______ ____
ROOT
ATOM      1  C   UNL     1      -0.815   1.437   1.261  0.00  0.00    +0.218 C 
ATOM      2  O   UNL     1      -1.892   1.990   1.183  0.00  0.00    -0.275 OA
ATOM      3  N   UNL     1      -0.242   1.246   2.466  0.00  0.00    -0.285 N 
ATOM      4  H   UNL     1       0.692   0.669   2.546  0.00  0.00    +0.155 HD
ENDROOT
BRANCH   3   5
ATOM      5  C   UNL     1      -0.834   1.783   3.616  0.00  0.00    +0.034 A 
ATOM      6  C   UNL     1      -0.736   1.107   4.829  0.00  0.00    +0.027 A 
ATOM      7  C   UNL     1      -1.314   1.625   5.968  0.00  0.00    +0.049 A 
ATOM      8  C   UNL     1      -2.004   2.832   5.915  0.00  0.00    +0.136 A 
ATOM      9  C   UNL     1      -2.103   3.512   4.693  0.00  0.00    +0.030 A 
ATOM     10  C   UNL     1      -1.512   2.988   3.548  0.00  0.00    +0.035 A 
ATOM     11  C   UNL     1      -2.882   4.732   4.978  0.00  0.00    +0.028 A 
ATOM     12  C   UNL     1      -3.318   5.803   4.204  0.00  0.00    +0.012 A 
ATOM     13  C   UNL     1      -4.050   6.816   4.789  0.00  0.00    +0.001 A 
ATOM     14  C   UNL     1      -4.350   6.766   6.141  0.00  0.00    +0.004 A 
ATOM     15  C   UNL     1      -3.923   5.709   6.916  0.00  0.00    +0.047 A 
ATOM     16  C   UNL     1      -3.184   4.680   6.345  0.00  0.00    +0.136 A 
ATOM     17  O   UNL     1      -2.651   3.550   6.860  0.00  0.00    -0.455 OA
ENDBRANCH   3   5
BRANCH   1  18
ATOM     18  C   UNL     1      -0.118   0.963   0.011  0.00  0.00    +0.105 C 
BRANCH  18  19
ATOM     19  C   UNL     1      -0.976   1.300  -1.210  0.00  0.00    +0.108 C 
BRANCH  19  22
ATOM     20  C   UNL     1       0.401  -0.321  -4.107  0.00  0.00    +0.202 A 
ATOM     21  N   UNL     1      -0.404  -0.350  -3.021  0.00  0.00    -0.191 NA
ATOM     22  C   UNL     1      -0.279   0.827  -2.459  0.00  0.00    +0.228 A 
ATOM     23  O   UNL     1       0.578   1.530  -3.205  0.00  0.00    -0.338 OA
ATOM     24  N   UNL     1       0.962   0.860  -4.141  0.00  0.00    -0.056 NA
BRANCH  20  28
ATOM     25  C   UNL     1       0.995  -3.477  -6.894  0.00  0.00    +0.000 A 
ATOM     26  C   UNL     1       1.663  -2.277  -7.060  0.00  0.00    +0.001 A 
ATOM     27  C   UNL     1       1.474  -1.249  -6.158  0.00  0.00    +0.012 A 
ATOM     28  C   UNL     1       0.609  -1.422  -5.080  0.00  0.00    +0.022 A 
ATOM     29  C   UNL     1      -0.057  -2.635  -4.914  0.00  0.00    +0.012 A 
ATOM     30  C   UNL     1       0.135  -3.655  -5.825  0.00  0.00    +0.001 A 
ENDBRANCH  20  28
ENDBRANCH  19  22
ENDBRANCH  18  19
ENDBRANCH   1  18
TORSDOF 5
