REMARK  Name = ZINC13517390
REMARK  5 active torsions:
REMARK  status: ('A' for Active; 'I' for Inactive)
REMARK    1  A    between atoms: C_3  and  O_23
REMARK    2  A    between atoms: C_6  and  C_7
REMARK    3  A    between atoms: C_9  and  O_22
REMARK    4  A    between atoms: C_14  and  O_21
REMARK    5  A    between atoms: C_16  and  O_20
REMARK                            x       y       z     vdW  Elec       q    Type
REMARK                         _______ _______ _______ _____ _____    ______ ____
ROOT
ATOM      1  C   UNL     1      -1.293  -0.774   0.011  0.00  0.00    +0.240 C 
ATOM      2  C   UNL     1      -1.619  -1.246  -1.414  0.00  0.00    +0.230 C 
ATOM      3  C   UNL     1      -2.909  -2.041  -1.340  0.00  0.00    +0.202 C 
ATOM      4  O   UNL     1      -3.769  -1.944  -2.192  0.00  0.00    -0.289 OA
ATOM      5  C   UNL     1      -3.065  -2.934  -0.186  0.00  0.00    +0.103 A 
ATOM      6  C   UNL     1      -4.091  -3.892  -0.155  0.00  0.00    +0.134 A 
ATOM      7  C   UNL     1      -4.223  -4.713   0.951  0.00  0.00    +0.091 A 
ATOM      8  C   UNL     1      -3.343  -4.589   2.019  0.00  0.00    +0.124 A 
ATOM      9  C   UNL     1      -2.322  -3.647   1.991  0.00  0.00    +0.092 A 
ATOM     10  C   UNL     1      -2.171  -2.817   0.894  0.00  0.00    +0.139 A 
ATOM     11  O   UNL     1      -1.167  -1.909   0.867  0.00  0.00    -0.480 OA
ENDROOT
BRANCH   1  17
ATOM     12  C   UNL     1      -0.017   1.378   0.010  0.00  0.00    +0.011 A 
ATOM     13  C   UNL     1       1.169   2.087   0.002  0.00  0.00    +0.046 A 
ATOM     14  C   UNL     1       2.380   1.409  -0.013  0.00  0.00    +0.117 A 
ATOM     15  C   UNL     1       2.396   0.022  -0.021  0.00  0.00    +0.046 A 
ATOM     16  C   UNL     1       1.207  -0.681  -0.013  0.00  0.00    +0.011 A 
ATOM     17  C   UNL     1       0.002  -0.004   0.002  0.00  0.00    -0.004 A 
BRANCH  14  18
ATOM     18  O   UNL     1       3.548   2.104  -0.021  0.00  0.00    -0.507 OA
ATOM     19  H   UNL     1       3.895   2.300   0.860  0.00  0.00    +0.292 HD
ENDBRANCH  14  18
ENDBRANCH   1  17
BRANCH   8  20
ATOM     20  O   UNL     1      -3.482  -5.396   3.101  0.00  0.00    -0.507 OA
ATOM     21  H   UNL     1      -2.985  -6.223   3.041  0.00  0.00    +0.292 HD
ENDBRANCH   8  20
BRANCH   6  22
ATOM     22  O   UNL     1      -4.947  -4.011  -1.200  0.00  0.00    -0.506 OA
ATOM     23  H   UNL     1      -4.655  -4.636  -1.878  0.00  0.00    +0.292 HD
ENDBRANCH   6  22
BRANCH   2  24
ATOM     24  O   UNL     1      -1.790  -0.116  -2.273  0.00  0.00    -0.380 OA
ATOM     25  H   UNL     1      -1.998  -0.347  -3.189  0.00  0.00    +0.211 HD
ENDBRANCH   2  24
TORSDOF 5
