REMARK  Name = ZINC13073311
REMARK  14 active torsions:
REMARK  status: ('A' for Active; 'I' for Inactive)
REMARK    1  A    between atoms: C_1  and  C_2
REMARK    2  A    between atoms: C_2  and  C_3
REMARK    3  A    between atoms: C_2  and  C_4
REMARK    4  A    between atoms: C_4  and  C_6
REMARK    5  A    between atoms: C_4  and  N_25
REMARK    6  A    between atoms: N_8  and  C_9
REMARK    7  A    between atoms: C_9  and  C_10
REMARK    8  A    between atoms: C_10  and  C_12
REMARK    9  A    between atoms: C_10  and  N_71
REMARK   10  A    between atoms: C_15  and  O_18
REMARK   11  A    between atoms: O_18  and  C_19
REMARK   12  A    between atoms: C_26  and  C_28
REMARK   13  A    between atoms: C_31  and  O_34
REMARK   14  A    between atoms: O_34  and  C_35
REMARK                            x       y       z     vdW  Elec       q    Type
REMARK                         _______ _______ _______ _____ _____    ______ ____
ROOT
ATOM      1  C   UNL     1      -1.644  -2.425  -0.092  0.00  0.00    +0.234 C 
ATOM      2  O   UNL     1      -0.968  -3.280  -0.624  0.00  0.00    -0.274 OA
ATOM      3  N   UNL     1      -1.138  -1.191   0.103  0.00  0.00    -0.315 N 
ATOM      4  H   UNL     1      -1.702  -0.487   0.462  0.00  0.00    +0.149 HD
ENDROOT
BRANCH   1   5
ATOM      5  C   UNL     1      -3.048  -2.743   0.352  0.00  0.00    +0.162 C 
BRANCH   5   6
ATOM      6  N   UNL     1      -3.200  -4.193   0.491  0.00  0.00    -0.300 N 
ATOM      7  C   UNL     1      -4.135  -4.697   1.321  0.00  0.00    +0.245 C 
ATOM      8  O   UNL     1      -4.852  -3.947   1.955  0.00  0.00    -0.270 OA
ATOM      9  H   UNL     1      -2.628  -4.791  -0.015  0.00  0.00    +0.150 HD
BRANCH   7  10
ATOM     10  C   UNL     1      -4.288  -6.158   1.461  0.00  0.00    +0.037 A 
ATOM     11  C   UNL     1      -3.469  -7.021   0.729  0.00  0.00    +0.016 A 
ATOM     12  C   UNL     1      -3.611  -8.384   0.865  0.00  0.00    +0.046 A 
ATOM     13  C   UNL     1      -4.576  -8.901   1.722  0.00  0.00    +0.120 A 
ATOM     14  C   UNL     1      -5.396  -8.046   2.448  0.00  0.00    +0.046 A 
ATOM     15  C   UNL     1      -5.256  -6.682   2.321  0.00  0.00    +0.016 A 
BRANCH  13  16
ATOM     16  O   UNL     1      -4.717 -10.245   1.850  0.00  0.00    -0.495 OA
ATOM     17  C   UNL     1      -3.842 -11.066   1.074  0.00  0.00    +0.277 C 
ENDBRANCH  13  16
ENDBRANCH   7  10
ENDBRANCH   5   6
BRANCH   5  19
ATOM     18  C   UNL     1      -3.809  -2.941  -2.019  0.00  0.00    +0.009 C 
ATOM     19  C   UNL     1      -4.042  -2.223  -0.689  0.00  0.00    +0.012 C 
ATOM     20  C   UNL     1      -5.470  -2.489  -0.208  0.00  0.00    +0.009 C 
ENDBRANCH   5  19
ENDBRANCH   1   5
BRANCH   3  21
ATOM     21  C   UNL     1       0.261  -0.911  -0.228  0.00  0.00    +0.093 C 
BRANCH  21  22
ATOM     22  C   UNL     1       0.605   0.523   0.177  0.00  0.00    -0.020 C 
BRANCH  22  28
ATOM     23  C   UNL     1       2.873  -0.171   0.661  0.00  0.00    -0.078 C 
ATOM     24  C   UNL     1       4.336   0.027   0.260  0.00  0.00    -0.019 C 
ATOM     25  C   UNL     1       4.756   1.465   0.575  0.00  0.00    -0.004 C 
ATOM     26  C   UNL     1       3.832   2.433  -0.169  0.00  0.00    -0.019 C 
ATOM     27  C   UNL     1       2.383   2.165   0.244  0.00  0.00    -0.078 C 
ATOM     28  N   UNL     1       2.033   0.772  -0.108  0.00  0.00    +0.385 N 
ATOM     29  H   UNL     1       2.203   0.629  -1.110  0.00  0.00    -0.081 HD
ENDBRANCH  22  28
BRANCH  22  30
ATOM     30  C   UNL     1      -0.229   1.486  -0.629  0.00  0.00    -0.059 A 
ATOM     31  C   UNL     1       0.141   1.804  -1.923  0.00  0.00    +0.005 A 
ATOM     32  C   UNL     1      -0.624   2.682  -2.666  0.00  0.00    +0.046 A 
ATOM     33  C   UNL     1      -1.759   3.253  -2.109  0.00  0.00    +0.120 A 
ATOM     34  C   UNL     1      -2.125   2.937  -0.809  0.00  0.00    +0.046 A 
ATOM     35  C   UNL     1      -1.360   2.054  -0.072  0.00  0.00    +0.005 A 
BRANCH  33  36
ATOM     36  O   UNL     1      -2.510   4.122  -2.835  0.00  0.00    -0.495 OA
ATOM     37  C   UNL     1      -2.073   4.401  -4.167  0.00  0.00    +0.277 C 
ENDBRANCH  33  36
ENDBRANCH  22  30
ENDBRANCH  21  22
ENDBRANCH   3  21
TORSDOF 10
