REMARK  Name = ZINC66580862
REMARK  7 active torsions:
REMARK  status: ('A' for Active; 'I' for Inactive)
REMARK    1  A    between atoms: C_5  and  C_7
REMARK    2  A    between atoms: C_8  and  S_9
REMARK    3  A    between atoms: S_9  and  N_12
REMARK    4  A    between atoms: N_12  and  C_13
REMARK    5  A    between atoms: C_17  and  N_19
REMARK    6  A    between atoms: N_19  and  S_20
REMARK    7  A    between atoms: S_20  and  N_23
REMARK                            x       y       z     vdW  Elec       q    Type
REMARK                         _______ _______ _______ _____ _____    ______ ____
ROOT
ATOM      1  C   UNL     1      -0.603  -6.482   1.684  0.00  0.00    +0.076 A 
ATOM      2  C   UNL     1      -0.159  -7.413   0.752  0.00  0.00    +0.027 A 
ATOM      3  C   UNL     1      -0.260  -8.764   1.022  0.00  0.00    +0.004 A 
ATOM      4  C   UNL     1      -0.803  -9.195   2.217  0.00  0.00    +0.024 A 
ATOM      5  C   UNL     1      -1.249  -8.269   3.153  0.00  0.00    +0.051 A 
ATOM      6  C   UNL     1      -1.143  -6.911   2.888  0.00  0.00    +0.051 A 
ENDROOT
BRANCH   5   7
ATOM      7  N   UNL     1      -1.799  -8.705   4.361  0.00  0.00    -0.207 N 
ATOM      8  H   UNL     1      -2.614  -8.301   4.696  0.00  0.00    +0.175 HD
BRANCH   7   9
ATOM      9  S   UNL     1      -1.058  -9.912   5.219  0.00  0.00    +0.107 S 
ATOM     10  O   UNL     1      -1.832 -10.107   6.395  0.00  0.00    -0.138 OA
ATOM     11  O   UNL     1      -0.793 -10.961   4.299  0.00  0.00    -0.138 OA
BRANCH   9  12
ATOM     12  N   UNL     1       0.412  -9.331   5.711  0.00  0.00    -0.191 NA
ATOM     13  H   UNL     1       0.809  -9.651   6.537  0.00  0.00    +0.146 HD
ATOM     14  H   UNL     1       0.878  -8.671   5.174  0.00  0.00    +0.146 HD
ENDBRANCH   9  12
ENDBRANCH   7   9
ENDBRANCH   5   7
BRANCH   1  15
ATOM     15  N   UNL     1      -0.500  -5.116   1.410  0.00  0.00    -0.098 NA
BRANCH  15  16
ATOM     16  S   UNL     1       0.145  -4.606  -0.027  0.00  0.00    +0.085 S 
ATOM     17  O   UNL     1      -0.753  -5.022  -1.046  0.00  0.00    -0.149 OA
ATOM     18  O   UNL     1       1.514  -4.987  -0.016  0.00  0.00    -0.149 OA
BRANCH  16  20
ATOM     19  C   UNL     1       1.249  -2.160  -0.023  0.00  0.00    +0.030 C 
ATOM     20  C   UNL     1       0.113  -2.844  -0.016  0.00  0.00    +0.159 C 
BRANCH  19  25
ATOM     21  C   UNL     1      -0.017   1.375   0.010  0.00  0.00    +0.001 A 
ATOM     22  C   UNL     1       1.170   2.087   0.002  0.00  0.00    +0.001 A 
ATOM     23  C   UNL     1       2.382   1.422  -0.013  0.00  0.00    +0.020 A 
ATOM     24  C   UNL     1       2.416   0.041  -0.021  0.00  0.00    +0.048 A 
ATOM     25  C   UNL     1       1.221  -0.682  -0.014  0.00  0.00    -0.005 A 
ATOM     26  C   UNL     1       0.002  -0.004   0.002  0.00  0.00    +0.009 A 
ATOM     27 CL   UNL     1       3.938  -0.793  -0.042  0.00  0.00    -0.083 Cl
ENDBRANCH  19  25
ENDBRANCH  16  20
ENDBRANCH  15  16
ENDBRANCH   1  15
TORSDOF 7
