REMARK  Name = ZINC39184576
REMARK  3 active torsions:
REMARK  status: ('A' for Active; 'I' for Inactive)
REMARK    1  A    between atoms: C_1  and  C_2
REMARK    2  A    between atoms: C_5  and  C_8
REMARK    3  A    between atoms: C_8  and  C_9
REMARK                            x       y       z     vdW  Elec       q    Type
REMARK                         _______ _______ _______ _____ _____    ______ ____
ROOT
ATOM      1  C   UNL     1      -0.019   1.526   0.010  0.00  0.00    +0.007 C 
ATOM      2  C   UNL     1       0.002  -0.004   0.002  0.00  0.00    -0.014 C 
ATOM      3  C   UNL     1      -1.433  -0.534   0.013  0.00  0.00    +0.003 C 
ATOM      4  C   UNL     1      -2.149  -0.040   1.272  0.00  0.00    +0.005 C 
ATOM      5  C   UNL     1      -1.409  -0.547   2.511  0.00  0.00    +0.003 C 
ATOM      6  C   UNL     1       0.026  -0.018   2.500  0.00  0.00    +0.005 C 
ATOM      7  C   UNL     1       0.742  -0.511   1.242  0.00  0.00    +0.003 C 
ENDROOT
BRANCH   5   8
ATOM      8  C   UNL     1      -2.126  -0.054   3.770  0.00  0.00    +0.122 C 
BRANCH   8   9
ATOM      9  C   UNL     1      -1.486  -0.638   4.960  0.00  0.00    +0.063 C 
ATOM     10  N   UNL     1      -0.992  -1.090   5.878  0.00  0.00    -0.197 NA
ENDBRANCH   8   9
ENDBRANCH   5   8
TORSDOF 2
