REMARK  Name = ZINC39482068
REMARK  6 active torsions:
REMARK  status: ('A' for Active; 'I' for Inactive)
REMARK    1  A    between atoms: C_4  and  C_7
REMARK    2  A    between atoms: C_10  and  N_21
REMARK    3  A    between atoms: C_11  and  N_13
REMARK    4  A    between atoms: N_21  and  S_22
REMARK    5  A    between atoms: S_22  and  C_25
REMARK    6  A    between atoms: C_30  and  O_31
REMARK                            x       y       z     vdW  Elec       q    Type
REMARK                         _______ _______ _______ _____ _____    ______ ____
ROOT
ATOM      1  C   UNL     1       3.890  -1.089   1.185  0.00  0.00    -0.016 A 
ATOM      2  C   UNL     1       4.985  -0.267   0.925  0.00  0.00    +0.010 A 
ATOM      3  C   UNL     1       6.202  -0.822   0.586  0.00  0.00    +0.027 A 
ATOM      4  C   UNL     1       6.340  -2.200   0.502  0.00  0.00    +0.069 A 
ATOM      5  C   UNL     1       5.247  -3.029   0.761  0.00  0.00    +0.053 A 
ATOM      6  C   UNL     1       4.027  -2.474   1.107  0.00  0.00    +0.033 A 
ENDROOT
BRANCH   5   7
ATOM      7  N   UNL     1       5.385  -4.419   0.675  0.00  0.00    -0.323 N 
ATOM      8  C   UNL     1       5.775  -5.213   1.851  0.00  0.00    +0.120 C 
ATOM      9  C   UNL     1       6.956  -6.109   1.463  0.00  0.00    +0.102 C 
ATOM     10  N   UNL     1       6.600  -6.895   0.274  0.00  0.00    -0.285 NA
ATOM     11  C   UNL     1       6.351  -6.026  -0.884  0.00  0.00    +0.252 C 
ATOM     12  C   UNL     1       5.139  -5.126  -0.591  0.00  0.00    +0.158 C 
ATOM     13  F   UNL     1       6.085  -6.813  -2.010  0.00  0.00    -0.227 F 
ATOM     14  H   UNL     1       7.312  -7.579   0.066  0.00  0.00    +0.125 HD
ENDBRANCH   5   7
BRANCH   1  18
ATOM     15  C   UNL     1       0.142   0.625   2.228  0.00  0.00    +0.000 A 
ATOM     16  C   UNL     1       1.225   1.444   1.966  0.00  0.00    +0.001 A 
ATOM     17  C   UNL     1       2.444   0.894   1.627  0.00  0.00    +0.008 A 
ATOM     18  C   UNL     1       2.583  -0.491   1.549  0.00  0.00    -0.018 A 
ATOM     19  C   UNL     1       1.488  -1.312   1.814  0.00  0.00    +0.008 A 
ATOM     20  C   UNL     1       0.273  -0.750   2.152  0.00  0.00    +0.001 A 
ENDBRANCH   1  18
BRANCH   4  21
ATOM     21  N   UNL     1       7.575  -2.760   0.158  0.00  0.00    -0.214 N 
ATOM     22  H   UNL     1       7.609  -3.566  -0.380  0.00  0.00    +0.174 HD
BRANCH  21  23
ATOM     23  S   UNL     1       8.979  -2.046   0.670  0.00  0.00    +0.076 S 
ATOM     24  O   UNL     1       8.803  -1.747   2.049  0.00  0.00    -0.150 OA
ATOM     25  O   UNL     1      10.044  -2.859   0.197  0.00  0.00    -0.150 OA
BRANCH  23  26
ATOM     26  C   UNL     1       9.114  -0.502  -0.167  0.00  0.00    +0.150 A 
ATOM     27  C   UNL     1       9.096   0.678   0.551  0.00  0.00    +0.032 A 
ATOM     28  C   UNL     1       9.201   1.890  -0.105  0.00  0.00    +0.002 A 
ATOM     29  C   UNL     1       9.325   1.925  -1.482  0.00  0.00    +0.004 A 
ATOM     30  C   UNL     1       9.344   0.748  -2.205  0.00  0.00    +0.047 A 
ATOM     31  C   UNL     1       9.243  -0.470  -1.548  0.00  0.00    +0.143 A 
BRANCH  31  32
ATOM     32  O   UNL     1       9.267  -1.629  -2.256  0.00  0.00    -0.505 OA
ATOM     33  H   UNL     1       8.397  -1.922  -2.560  0.00  0.00    +0.292 HD
ENDBRANCH  31  32
ENDBRANCH  23  26
ENDBRANCH  21  23
ENDBRANCH   4  21
TORSDOF 6
