REMARK  Name = ZINC20699526
REMARK  4 active torsions:
REMARK  status: ('A' for Active; 'I' for Inactive)
REMARK    1  A    between atoms: C_1  and  N_2
REMARK    2  A    between atoms: N_5  and  S_8
REMARK    3  A    between atoms: S_8  and  C_11
REMARK    4  A    between atoms: C_24  and  C_27
REMARK                            x       y       z     vdW  Elec       q    Type
REMARK                         _______ _______ _______ _____ _____    ______ ____
ROOT
ATOM      1  C   UNL     1      -5.199   3.279   1.989  0.00  0.00    +0.106 A 
ATOM      2  C   UNL     1      -4.922   3.242   3.344  0.00  0.00    +0.030 A 
ATOM      3  C   UNL     1      -3.810   2.602   3.794  0.00  0.00    +0.025 A 
ATOM      4  C   UNL     1      -2.915   2.022   2.903  0.00  0.00    +0.031 A 
ATOM      5  C   UNL     1      -3.188   2.059   1.538  0.00  0.00    -0.018 A 
ATOM      6  C   UNL     1      -4.331   2.686   1.090  0.00  0.00    +0.034 A 
ATOM      7  C   UNL     1      -2.235   1.399   0.620  0.00  0.00    +0.049 C 
ATOM      8  C   UNL     1      -2.087   1.821  -0.796  0.00  0.00    -0.023 C 
ATOM      9  C   UNL     1      -0.827   1.629  -1.167  0.00  0.00    -0.030 C 
ATOM     10  C   UNL     1      -0.013   1.086   0.008  0.00  0.00    +0.033 C 
ATOM     11  C   UNL     1      -0.807   1.618   1.208  0.00  0.00    +0.029 C 
ATOM     12  C   UNL     1      -0.765   0.799   2.486  0.00  0.00    +0.105 C 
ATOM     13  N   UNL     1      -1.745   1.431   3.396  0.00  0.00    -0.336 N 
ATOM     14  H   UNL     1      -1.560   1.442   4.480  0.00  0.00    +0.147 HD
ENDROOT
BRANCH  12  15
ATOM     15  C   UNL     1       0.615   0.848   3.090  0.00  0.00    -0.027 A 
ATOM     16  C   UNL     1       1.006   1.949   3.829  0.00  0.00    +0.007 A 
ATOM     17  C   UNL     1       2.269   1.993   4.389  0.00  0.00    +0.020 A 
ATOM     18  C   UNL     1       3.146   0.939   4.200  0.00  0.00    +0.041 A 
ATOM     19  C   UNL     1       2.755  -0.160   3.456  0.00  0.00    +0.020 A 
ATOM     20  C   UNL     1       1.490  -0.205   2.902  0.00  0.00    +0.007 A 
ATOM     21 CL   UNL     1       4.735   0.996   4.896  0.00  0.00    -0.084 Cl
ENDBRANCH  12  15
BRANCH   1  22
ATOM     22  S   UNL     1      -6.657   4.080   1.409  0.00  0.00    +0.061 S 
ATOM     23  O   UNL     1      -7.023   5.027   2.403  0.00  0.00    -0.153 OA
ATOM     24  O   UNL     1      -6.408   4.449   0.059  0.00  0.00    -0.153 OA
BRANCH  22  29
ATOM     25  C   UNL     1      -9.304  -0.955   1.956  0.00  0.00    -0.096 C 
ATOM     26  N   UNL     1      -9.114   0.470   1.654  0.00  0.00    +0.380 N 
ATOM     27  C   UNL     1      -8.731   1.217   2.860  0.00  0.00    -0.062 C 
ATOM     28  C   UNL     1      -8.720   2.716   2.545  0.00  0.00    +0.091 C 
ATOM     29  N   UNL     1      -7.860   2.942   1.374  0.00  0.00    -0.180 NA
ATOM     30  C   UNL     1      -8.101   2.135   0.168  0.00  0.00    +0.091 C 
ATOM     31  C   UNL     1      -8.132   0.654   0.578  0.00  0.00    -0.062 C 
ATOM     32  H   UNL     1     -10.075   0.873   1.302  0.00  0.00    -0.082 HD
ENDBRANCH  22  29
ENDBRANCH   1  22
TORSDOF 3
