REMARK  Name = ZINC14456289
REMARK  7 active torsions:
REMARK  status: ('A' for Active; 'I' for Inactive)
REMARK    1  A    between atoms: C_1  and  C_2
REMARK    2  A    between atoms: C_5  and  N_9
REMARK    3  A    between atoms: C_7  and  C_8
REMARK    4  A    between atoms: N_9  and  S_10
REMARK    5  A    between atoms: S_10  and  C_13
REMARK    6  A    between atoms: C_26  and  C_29
REMARK    7  A    between atoms: C_32  and  C_34
REMARK                            x       y       z     vdW  Elec       q    Type
REMARK                         _______ _______ _______ _____ _____    ______ ____
ROOT
ATOM      1  C   UNL     1       3.770   4.098   0.636  0.00  0.00    +0.109 A 
ATOM      2  C   UNL     1       4.468   2.983   1.063  0.00  0.00    +0.030 A 
ATOM      3  C   UNL     1       5.788   2.810   0.699  0.00  0.00    +0.025 A 
ATOM      4  C   UNL     1       6.429   3.760  -0.087  0.00  0.00    +0.031 A 
ATOM      5  C   UNL     1       5.715   4.884  -0.518  0.00  0.00    -0.018 A 
ATOM      6  C   UNL     1       4.397   5.045  -0.153  0.00  0.00    +0.034 A 
ATOM      7  C   UNL     1       6.427   5.857  -1.375  0.00  0.00    +0.049 C 
ATOM      8  C   UNL     1       6.050   7.293  -1.411  0.00  0.00    -0.023 C 
ATOM      9  C   UNL     1       7.120   8.017  -1.664  0.00  0.00    -0.030 C 
ATOM     10  C   UNL     1       8.349   7.111  -1.755  0.00  0.00    +0.033 C 
ATOM     11  C   UNL     1       7.911   5.911  -0.903  0.00  0.00    +0.029 C 
ATOM     12  C   UNL     1       8.493   4.550  -1.239  0.00  0.00    +0.111 C 
ATOM     13  N   UNL     1       7.766   3.585  -0.385  0.00  0.00    -0.336 N 
ATOM     14  H   UNL     1       8.231   2.805  -0.045  0.00  0.00    +0.147 HD
ENDROOT
BRANCH  12  15
ATOM     15  C   UNL     1       8.265   4.231  -2.694  0.00  0.00    +0.010 A 
ATOM     16  C   UNL     1       9.126   4.335  -3.736  0.00  0.00    +0.013 A 
ATOM     17  C   UNL     1       8.694   3.981  -5.000  0.00  0.00    +0.011 A 
ATOM     18  C   UNL     1       7.422   3.540  -5.161  0.00  0.00    -0.013 A 
ATOM     19  S   UNL     1       6.793   3.610  -3.492  0.00  0.00    -0.097 S 
ATOM     20  C   UNL     1       6.723   3.099  -6.421  0.00  0.00    +0.051 C 
ENDBRANCH  12  15
BRANCH   1  21
ATOM     21  S   UNL     1       2.085   4.315   1.103  0.00  0.00    +0.072 S 
ATOM     22  O   UNL     1       1.803   5.702   0.974  0.00  0.00    -0.150 OA
ATOM     23  O   UNL     1       1.909   3.613   2.326  0.00  0.00    -0.150 OA
BRANCH  21  24
ATOM     24  N   UNL     1       1.159   3.537  -0.027  0.00  0.00    -0.216 N 
ATOM     25  H   UNL     1       0.548   4.042  -0.585  0.00  0.00    +0.174 HD
BRANCH  24  30
ATOM     26  C   UNL     1       1.558  -2.087  -0.636  0.00  0.00    +0.044 C 
ATOM     27  C   UNL     1       1.453  -0.593  -0.474  0.00  0.00    -0.047 A 
ATOM     28  C   UNL     1       2.021   0.245  -1.416  0.00  0.00    +0.005 A 
ATOM     29  C   UNL     1       1.926   1.615  -1.271  0.00  0.00    +0.025 A 
ATOM     30  C   UNL     1       1.258   2.151  -0.177  0.00  0.00    +0.048 A 
ATOM     31  C   UNL     1       0.688   1.307   0.767  0.00  0.00    +0.028 A 
ATOM     32  C   UNL     1       0.787  -0.062   0.615  0.00  0.00    -0.046 A 
ATOM     33  C   UNL     1       0.169  -0.980   1.639  0.00  0.00    +0.044 C 
ENDBRANCH  24  30
ENDBRANCH  21  24
ENDBRANCH   1  21
TORSDOF 4
