REMARK  Name = ZINC35200962
REMARK  9 active torsions:
REMARK  status: ('A' for Active; 'I' for Inactive)
REMARK    1  A    between atoms: C_1  and  C_2
REMARK    2  A    between atoms: C_2  and  C_4
REMARK    3  A    between atoms: C_2  and  N_26
REMARK    4  A    between atoms: C_7  and  S_18
REMARK    5  A    between atoms: N_8  and  C_9
REMARK    6  A    between atoms: C_12  and  N_15
REMARK    7  A    between atoms: S_18  and  C_19
REMARK    8  A    between atoms: C_19  and  C_20
REMARK    9  A    between atoms: N_29  and  C_30
REMARK                            x       y       z     vdW  Elec       q    Type
REMARK                         _______ _______ _______ _____ _____    ______ ____
ROOT
ATOM      1  C   UNL     1       0.695  -0.525  -1.242  0.00  0.00    +0.159 A 
ATOM      2  N   UNL     1       1.980  -0.518  -1.458  0.00  0.00    -0.131 NA
ATOM      3  N   UNL     1       2.237  -1.014  -2.615  0.00  0.00    -0.122 NA
ATOM      4  C   UNL     1       1.121  -1.370  -3.208  0.00  0.00    +0.196 A 
ATOM      5  N   UNL     1       0.100  -1.074  -2.347  0.00  0.00    -0.273 N 
ENDROOT
BRANCH   5   6
ATOM      6  C   UNL     1      -1.271  -1.286  -2.554  0.00  0.00    +0.050 A 
ATOM      7  C   UNL     1      -1.966  -2.179  -1.750  0.00  0.00    +0.028 A 
ATOM      8  C   UNL     1      -3.316  -2.385  -1.956  0.00  0.00    +0.035 A 
ATOM      9  C   UNL     1      -3.975  -1.703  -2.962  0.00  0.00    +0.126 A 
ATOM     10  C   UNL     1      -3.286  -0.813  -3.765  0.00  0.00    +0.035 A 
ATOM     11  C   UNL     1      -1.937  -0.598  -3.559  0.00  0.00    +0.028 A 
BRANCH   9  12
ATOM     12  N   UNL     1      -5.422  -1.927  -3.181  0.00  0.00    +0.056 N 
ATOM     13  O   UNL     1      -6.026  -2.706  -2.481  0.00  0.00    -0.126 OA
ATOM     14  O   UNL     1      -6.000  -1.331  -4.060  0.00  0.00    -0.126 OA
ENDBRANCH   9  12
ENDBRANCH   5   6
BRANCH   1  16
ATOM     15  C   UNL     1      -0.023   1.502  -0.007  0.00  0.00    +0.036 C 
ATOM     16  C   UNL     1      -0.006  -0.028  -0.004  0.00  0.00    +0.140 C 
BRANCH  16  17
ATOM     17  N   UNL     1       0.705  -0.506   1.185  0.00  0.00    -0.290 N 
ATOM     18  C   UNL     1       0.049  -0.640   2.354  0.00  0.00    +0.304 C 
ATOM     19  O   UNL     1      -1.133  -0.364   2.423  0.00  0.00    -0.252 OA
ATOM     20  N   UNL     1       0.703  -1.080   3.447  0.00  0.00    -0.267 N 
ATOM     21  H   UNL     1       1.649  -0.727   1.130  0.00  0.00    +0.151 HD
ATOM     22  H   UNL     1       1.629  -1.361   3.378  0.00  0.00    +0.156 HD
BRANCH  20  23
ATOM     23  C   UNL     1       0.046  -1.131   4.683  0.00  0.00    +0.070 A 
ATOM     24  C   UNL     1      -1.306  -1.442   4.741  0.00  0.00    +0.026 A 
ATOM     25  C   UNL     1      -1.951  -1.491   5.961  0.00  0.00    +0.002 A 
ATOM     26  C   UNL     1      -1.253  -1.230   7.126  0.00  0.00    +0.003 A 
ATOM     27  C   UNL     1       0.093  -0.920   7.074  0.00  0.00    +0.040 A 
ATOM     28  C   UNL     1       0.747  -0.875   5.856  0.00  0.00    +0.145 A 
ATOM     29  F   UNL     1       2.064  -0.577   5.806  0.00  0.00    -0.204 F 
ENDBRANCH  20  23
ENDBRANCH  16  17
ENDBRANCH   1  16
BRANCH   4  30
ATOM     30  S   UNL     1       0.968  -2.096  -4.806  0.00  0.00    -0.081 S 
BRANCH  30  31
ATOM     31  C   UNL     1       2.679  -2.223  -5.396  0.00  0.00    +0.112 C 
BRANCH  31  32
ATOM     32  C   UNL     1       2.691  -2.837  -6.772  0.00  0.00    -0.037 A 
ATOM     33  C   UNL     1       2.779  -4.209  -6.916  0.00  0.00    +0.004 A 
ATOM     34  C   UNL     1       2.790  -4.773  -8.178  0.00  0.00    +0.000 A 
ATOM     35  C   UNL     1       2.713  -3.964  -9.296  0.00  0.00    +0.000 A 
ATOM     36  C   UNL     1       2.625  -2.592  -9.153  0.00  0.00    +0.000 A 
ATOM     37  C   UNL     1       2.609  -2.029  -7.891  0.00  0.00    +0.004 A 
ENDBRANCH  31  32
ENDBRANCH  30  31
ENDBRANCH   4  30
TORSDOF 8
