REMARK  Name = ZINC35870390
REMARK  7 active torsions:
REMARK  status: ('A' for Active; 'I' for Inactive)
REMARK    1  A    between atoms: C_1  and  C_2
REMARK    2  A    between atoms: C_2  and  C_4
REMARK    3  A    between atoms: C_2  and  N_10
REMARK    4  A    between atoms: C_11  and  C_13
REMARK    5  A    between atoms: C_18  and  N_37
REMARK    6  A    between atoms: N_26  and  C_29
REMARK    7  A    between atoms: C_29  and  C_30
REMARK                            x       y       z     vdW  Elec       q    Type
REMARK                         _______ _______ _______ _____ _____    ______ ____
ROOT
ATOM      1  C   UNL     1       2.783  -1.099   2.395  0.00  0.00    +0.098 C 
ATOM      2  C   UNL     1       2.245  -2.470   2.747  0.00  0.00    +0.051 C 
ATOM      3  C   UNL     1       2.784  -3.538   1.840  0.00  0.00    -0.023 A 
ATOM      4  C   UNL     1       2.026  -4.664   1.578  0.00  0.00    +0.038 A 
ATOM      5  C   UNL     1       2.516  -5.654   0.746  0.00  0.00    +0.127 A 
ATOM      6  C   UNL     1       3.767  -5.521   0.173  0.00  0.00    +0.034 A 
ATOM      7  C   UNL     1       4.529  -4.399   0.430  0.00  0.00    +0.025 A 
ATOM      8  C   UNL     1       4.038  -3.401   1.264  0.00  0.00    +0.033 A 
ATOM      9  N   UNL     1       4.803  -2.268   1.512  0.00  0.00    -0.329 N 
ATOM     10  C   UNL     1       4.260  -1.062   2.115  0.00  0.00    +0.069 C 
ATOM     11  C   UNL     1       5.078  -0.724   3.363  0.00  0.00    -0.055 C 
ATOM     12  N   UNL     1       6.497  -0.622   2.991  0.00  0.00    +0.385 N 
ATOM     13  C   UNL     1       6.989  -1.909   2.486  0.00  0.00    -0.059 C 
ATOM     14  C   UNL     1       6.246  -2.274   1.200  0.00  0.00    +0.087 C 
ATOM     15  H   UNL     1       6.603   0.079   2.274  0.00  0.00    -0.081 HD
ENDROOT
BRANCH   1  17
ATOM     16  N   UNL     1       0.711  -0.489   1.189  0.00  0.00    -0.308 N 
ATOM     17  C   UNL     1       2.054  -0.600   1.174  0.00  0.00    +0.219 C 
ATOM     18  O   UNL     1       2.676  -0.297   0.177  0.00  0.00    -0.275 OA
ATOM     19  H   UNL     1       0.213  -0.731   1.986  0.00  0.00    +0.149 HD
BRANCH  16  21
ATOM     20  C   UNL     1      -0.019   1.526   0.010  0.00  0.00    +0.033 C 
ATOM     21  C   UNL     1       0.002  -0.004   0.002  0.00  0.00    +0.100 C 
BRANCH  21  22
ATOM     22  C   UNL     1      -1.412  -0.526   0.013  0.00  0.00    -0.027 A 
ATOM     23  C   UNL     1      -2.123  -0.571   1.197  0.00  0.00    +0.005 A 
ATOM     24  C   UNL     1      -3.420  -1.049   1.207  0.00  0.00    +0.000 A 
ATOM     25  C   UNL     1      -4.006  -1.482   0.032  0.00  0.00    +0.000 A 
ATOM     26  C   UNL     1      -3.295  -1.436  -1.153  0.00  0.00    +0.000 A 
ATOM     27  C   UNL     1      -2.000  -0.954  -1.163  0.00  0.00    +0.005 A 
ENDBRANCH  21  22
ENDBRANCH  16  21
ENDBRANCH   1  17
BRANCH   5  28
ATOM     28  N   UNL     1       1.699  -6.856   0.469  0.00  0.00    +0.056 N 
ATOM     29  O   UNL     1       0.605  -6.973   0.969  0.00  0.00    -0.126 OA
ATOM     30  O   UNL     1       2.127  -7.723  -0.258  0.00  0.00    -0.126 OA
ENDBRANCH   5  28
BRANCH  12  31
ATOM     31  C   UNL     1       7.280  -0.232   4.170  0.00  0.00    -0.043 C 
BRANCH  31  32
ATOM     32  C   UNL     1       8.715  -0.007   3.768  0.00  0.00    -0.064 A 
ATOM     33  C   UNL     1       9.614  -1.057   3.799  0.00  0.00    +0.004 A 
ATOM     34  C   UNL     1      10.930  -0.852   3.430  0.00  0.00    +0.038 A 
ATOM     35  C   UNL     1      11.348   0.406   3.029  0.00  0.00    +0.123 A 
ATOM     36  C   UNL     1      10.447   1.456   2.999  0.00  0.00    +0.038 A 
ATOM     37  C   UNL     1       9.130   1.248   3.363  0.00  0.00    +0.004 A 
ATOM     38  F   UNL     1      12.634   0.607   2.669  0.00  0.00    -0.205 F 
ENDBRANCH  31  32
ENDBRANCH  12  31
TORSDOF 6
