REMARK  Name = ZINC65292376
REMARK  8 active torsions:
REMARK  status: ('A' for Active; 'I' for Inactive)
REMARK    1  A    between atoms: C_1  and  C_2
REMARK    2  A    between atoms: C_2  and  C_4
REMARK    3  A    between atoms: C_2  and  N_10
REMARK    4  A    between atoms: C_11  and  C_13
REMARK    5  A    between atoms: N_18  and  C_27
REMARK    6  A    between atoms: C_27  and  C_28
REMARK    7  A    between atoms: C_28  and  C_29
REMARK    8  A    between atoms: C_28  and  C_30
REMARK                            x       y       z     vdW  Elec       q    Type
REMARK                         _______ _______ _______ _____ _____    ______ ____
ROOT
ATOM      1  C   UNL     1      -3.415  -1.167   1.191  0.00  0.00    +0.148 A 
ATOM      2  C   UNL     1      -4.221  -1.362   2.329  0.00  0.00    +0.068 A 
ATOM      3  C   UNL     1      -5.416  -1.847   1.846  0.00  0.00    +0.133 A 
ATOM      4  C   UNL     1      -6.669  -2.251   2.494  0.00  0.00    +0.277 A 
ATOM      5  O   UNL     1      -6.782  -2.185   3.704  0.00  0.00    -0.265 OA
ATOM      6  N   UNL     1      -7.693  -2.697   1.738  0.00  0.00    -0.305 N 
ATOM      7  C   UNL     1      -7.562  -2.772   0.353  0.00  0.00    +0.070 A 
ATOM      8  C   UNL     1      -8.627  -3.233  -0.413  0.00  0.00    +0.028 A 
ATOM      9  C   UNL     1      -8.507  -3.312  -1.786  0.00  0.00    +0.002 A 
ATOM     10  C   UNL     1      -7.328  -2.933  -2.406  0.00  0.00    +0.002 A 
ATOM     11  C   UNL     1      -6.265  -2.473  -1.655  0.00  0.00    +0.030 A 
ATOM     12  C   UNL     1      -6.376  -2.390  -0.272  0.00  0.00    +0.090 A 
ATOM     13  N   UNL     1      -5.295  -1.924   0.482  0.00  0.00    -0.225 N 
ATOM     14  N   UNL     1      -4.125  -1.518   0.134  0.00  0.00    -0.161 NA
ENDROOT
BRANCH   1  16
ATOM     15  N   UNL     1      -1.372  -0.511   0.012  0.00  0.00    -0.303 N 
ATOM     16  C   UNL     1      -2.029  -0.655   1.181  0.00  0.00    +0.265 C 
ATOM     17  O   UNL     1      -1.480  -0.364   2.226  0.00  0.00    -0.268 OA
ATOM     18  H   UNL     1      -1.810  -0.743  -0.822  0.00  0.00    +0.150 HD
BRANCH  15  20
ATOM     19  C   UNL     1      -0.019   1.526   0.010  0.00  0.00    +0.033 C 
ATOM     20  C   UNL     1       0.002  -0.004   0.002  0.00  0.00    +0.100 C 
BRANCH  20  21
ATOM     21  C   UNL     1       0.707  -0.490  -1.238  0.00  0.00    -0.027 A 
ATOM     22  C   UNL     1       0.038  -0.522  -2.447  0.00  0.00    +0.005 A 
ATOM     23  C   UNL     1       0.685  -0.967  -3.584  0.00  0.00    +0.000 A 
ATOM     24  C   UNL     1       2.002  -1.381  -3.513  0.00  0.00    +0.000 A 
ATOM     25  C   UNL     1       2.672  -1.349  -2.304  0.00  0.00    +0.000 A 
ATOM     26  C   UNL     1       2.026  -0.899  -1.167  0.00  0.00    +0.005 A 
ENDBRANCH  20  21
ENDBRANCH  15  20
ENDBRANCH   1  16
BRANCH   6  27
ATOM     27  C   UNL     1      -8.948  -3.103   2.376  0.00  0.00    +0.128 C 
BRANCH  27  28
ATOM     28  C   UNL     1      -9.882  -1.896   2.478  0.00  0.00    +0.003 C 
ATOM     29  C   UNL     1     -11.237  -2.345   3.029  0.00  0.00    +0.009 C 
ATOM     30  C   UNL     1      -9.270  -0.854   3.417  0.00  0.00    +0.009 C 
ENDBRANCH  27  28
ENDBRANCH   6  27
TORSDOF 5
