REMARK  Name = ZINC01339199
REMARK  11 active torsions:
REMARK  status: ('A' for Active; 'I' for Inactive)
REMARK    1  A    between atoms: C_1  and  C_2
REMARK    2  A    between atoms: C_5  and  C_7
REMARK    3  A    between atoms: C_7  and  C_9
REMARK    4  A    between atoms: C_7  and  N_18
REMARK    5  A    between atoms: N_11  and  C_12
REMARK    6  A    between atoms: C_12  and  C_13
REMARK    7  A    between atoms: N_18  and  C_19
REMARK    8  A    between atoms: C_21  and  C_26
REMARK    9  A    between atoms: C_23  and  C_25
REMARK   10  A    between atoms: C_27  and  C_29
REMARK   11  A    between atoms: C_29  and  N_30
REMARK                            x       y       z     vdW  Elec       q    Type
REMARK                         _______ _______ _______ _____ _____    ______ ____
ROOT
ATOM      1  N   UNL     1      -5.468   3.399  -1.598  0.00  0.00    -0.251 N 
ATOM      2  C   UNL     1      -4.174   3.691  -1.359  0.00  0.00    +0.242 C 
ATOM      3  O   UNL     1      -3.482   4.147  -2.244  0.00  0.00    -0.273 OA
ENDROOT
BRANCH   1   4
ATOM      4  C   UNL     1      -6.356   3.233  -0.530  0.00  0.00    +0.038 A 
ATOM      5  C   UNL     1      -7.654   2.797  -0.765  0.00  0.00    +0.027 A 
ATOM      6  C   UNL     1      -8.527   2.629   0.292  0.00  0.00    -0.048 A 
ATOM      7  C   UNL     1      -8.113   2.904   1.582  0.00  0.00    +0.006 A 
ATOM      8  C   UNL     1      -6.824   3.344   1.819  0.00  0.00    -0.048 A 
ATOM      9  C   UNL     1      -5.944   3.509   0.767  0.00  0.00    +0.027 A 
ATOM     10  C   UNL     1      -6.378   3.643   3.227  0.00  0.00    +0.044 C 
ATOM     11  C   UNL     1      -9.933   2.150   0.038  0.00  0.00    +0.044 C 
ENDBRANCH   1   4
BRANCH   1  12
ATOM     12  C   UNL     1      -5.944   3.256  -2.976  0.00  0.00    +0.233 C 
BRANCH  12  17
ATOM     13  C   UNL     1      -8.378  -1.078  -2.118  0.00  0.00    +0.086 C 
ATOM     14  C   UNL     1      -7.555  -0.017  -2.802  0.00  0.00    +0.102 A 
ATOM     15  C   UNL     1      -7.012  -0.111  -4.029  0.00  0.00    +0.045 A 
ATOM     16  C   UNL     1      -6.334   1.106  -4.271  0.00  0.00    +0.047 A 
ATOM     17  C   UNL     1      -6.497   1.868  -3.175  0.00  0.00    +0.135 A 
ATOM     18  O   UNL     1      -7.239   1.184  -2.289  0.00  0.00    -0.462 OA
ENDBRANCH  12  17
BRANCH  12  19
ATOM     19  C   UNL     1      -7.026   4.270  -3.242  0.00  0.00    +0.242 C 
ATOM     20  O   UNL     1      -7.367   5.037  -2.366  0.00  0.00    -0.273 OA
ATOM     21  N   UNL     1      -7.616   4.325  -4.452  0.00  0.00    -0.306 N 
ATOM     22  H   UNL     1      -7.344   3.711  -5.152  0.00  0.00    +0.149 HD
BRANCH  21  23
ATOM     23  C   UNL     1      -8.668   5.311  -4.710  0.00  0.00    +0.178 C 
BRANCH  23  24
ATOM     24  C   UNL     1      -9.158   5.163  -6.128  0.00  0.00    +0.122 A 
ATOM     25  C   UNL     1     -10.167   4.371  -6.533  0.00  0.00    +0.046 A 
ATOM     26  C   UNL     1     -10.285   4.541  -7.932  0.00  0.00    +0.041 A 
ATOM     27  C   UNL     1      -9.341   5.427  -8.298  0.00  0.00    +0.195 A 
ATOM     28  O   UNL     1      -8.666   5.805  -7.200  0.00  0.00    -0.466 OA
ENDBRANCH  23  24
ENDBRANCH  21  23
ENDBRANCH  12  19
ENDBRANCH   1  12
BRANCH   2  29
ATOM     29  C   UNL     1      -3.587   3.451   0.008  0.00  0.00    +0.242 C 
BRANCH  29  30
ATOM     30  N   UNL     1      -2.161   3.143  -0.120  0.00  0.00    -0.235 N 
ATOM     31  C   UNL     1      -1.599   1.898  -0.277  0.00  0.00    +0.090 A 
ATOM     32  C   UNL     1      -2.115   0.610  -0.368  0.00  0.00    +0.029 A 
ATOM     33  C   UNL     1      -1.268  -0.452  -0.522  0.00  0.00    +0.002 A 
ATOM     34  C   UNL     1       0.105  -0.255  -0.599  0.00  0.00    +0.002 A 
ATOM     35  C   UNL     1       0.636   0.999  -0.516  0.00  0.00    +0.032 A 
ATOM     36  C   UNL     1      -0.211   2.104  -0.353  0.00  0.00    +0.113 A 
ATOM     37  N   UNL     1       0.013   3.429  -0.243  0.00  0.00    -0.129 NA
ATOM     38  N   UNL     1      -1.099   4.060  -0.106  0.00  0.00    -0.064 NA
ENDBRANCH  29  30
ENDBRANCH   2  29
TORSDOF 8
