REMARK  Name = ZINC43304888
REMARK  4 active torsions:
REMARK  status: ('A' for Active; 'I' for Inactive)
REMARK    1  A    between atoms: C_1  and  C_2
REMARK    2  A    between atoms: C_6  and  C_9
REMARK    3  A    between atoms: C_7  and  C_8
REMARK    4  A    between atoms: C_12  and  C_17
REMARK                            x       y       z     vdW  Elec       q    Type
REMARK                         _______ _______ _______ _____ _____    ______ ____
ROOT
ATOM      1  C   UNK     1       0.179  -2.826   2.288  0.00  0.00    +0.020 C 
ATOM      2  N   UNK     1       0.759  -4.177   2.287  0.00  0.00    +0.399 N 
ATOM      3  C   UNK     1       0.969  -4.639   3.660  0.00  0.00    +0.046 C 
ATOM      4  C   UNK     1       2.172  -3.943   4.293  0.00  0.00    +0.006 C 
ATOM      5  C   UNK     1       1.825  -2.477   4.580  0.00  0.00    +0.067 C 
ATOM      6  S   UNK     1       1.385  -1.672   3.008  0.00  0.00    -0.172 S 
ATOM      7  H   UNK     1       0.132  -4.810   1.814  0.00  0.00    -0.083 HD
ATOM      8  H   UNK     1       1.643  -4.161   1.801  0.00  0.00    -0.083 HD
ENDROOT
BRANCH   1  14
ATOM      9  C   UNK     1      -2.204   0.196  -0.912  0.00  0.00    +0.044 C 
ATOM     10  C   UNK     1      -1.278  -0.965  -0.657  0.00  0.00    -0.047 A 
ATOM     11  C   UNK     1      -0.717  -1.649  -1.720  0.00  0.00    +0.003 A 
ATOM     12  C   UNK     1       0.132  -2.714  -1.486  0.00  0.00    +0.001 A 
ATOM     13  C   UNK     1       0.422  -3.095  -0.189  0.00  0.00    +0.003 A 
ATOM     14  C   UNK     1      -0.137  -2.411   0.874  0.00  0.00    -0.049 A 
ATOM     15  C   UNK     1      -0.984  -1.343   0.640  0.00  0.00    -0.045 A 
ATOM     16  C   UNK     1      -1.589  -0.594   1.799  0.00  0.00    +0.044 C 
ENDBRANCH   1  14
BRANCH   3  17
ATOM     17  C   UNK     1      -0.261  -4.337   4.477  0.00  0.00    +0.343 C 
ATOM     18  O   UNK     1      -1.345  -4.225   3.929  0.00  0.00    -0.248 OA
ATOM     19  O   UNK     1      -0.173  -4.206   5.686  0.00  0.00    -0.248 OA
ENDBRANCH   3  17
TORSDOF 2
