REMARK  Name = ZINC08870688
REMARK  7 active torsions:
REMARK  status: ('A' for Active; 'I' for Inactive)
REMARK    1  A    between atoms: C_1  and  C_2
REMARK    2  A    between atoms: C_5  and  S_8
REMARK    3  A    between atoms: S_8  and  N_11
REMARK    4  A    between atoms: N_11  and  C_12
REMARK    5  A    between atoms: C_14  and  S_23
REMARK    6  A    between atoms: C_15  and  O_22
REMARK    7  A    between atoms: S_23  and  C_24
REMARK                            x       y       z     vdW  Elec       q    Type
REMARK                         _______ _______ _______ _____ _____    ______ ____
ROOT
ATOM      1  C   UNL     1      -4.242  -0.979  -0.117  0.00  0.00    +0.057 A 
ATOM      2  C   UNL     1      -2.995  -1.560  -0.172  0.00  0.00    +0.044 A 
ATOM      3  C   UNL     1      -2.848  -2.946  -0.073  0.00  0.00    +0.061 A 
ATOM      4  C   UNL     1      -3.950  -3.763   0.095  0.00  0.00    +0.138 A 
ATOM      5  C   UNL     1      -5.235  -3.195   0.161  0.00  0.00    +0.026 A 
ATOM      6  C   UNL     1      -5.385  -1.790   0.053  0.00  0.00    +0.008 A 
ATOM      7  C   UNL     1      -6.669  -1.227   0.120  0.00  0.00    +0.010 A 
ATOM      8  C   UNL     1      -7.752  -2.035   0.286  0.00  0.00    +0.001 A 
ATOM      9  C   UNL     1      -7.606  -3.417   0.391  0.00  0.00    +0.001 A 
ATOM     10  C   UNL     1      -6.377  -3.998   0.331  0.00  0.00    +0.012 A 
ENDROOT
BRANCH   1  11
ATOM     11  N   UNL     1      -4.375   0.407  -0.224  0.00  0.00    -0.216 N 
ATOM     12  H   UNL     1      -5.059   0.869   0.286  0.00  0.00    +0.174 HD
BRANCH  11  13
ATOM     13  S   UNL     1      -3.366   1.261  -1.221  0.00  0.00    +0.072 S 
ATOM     14  O   UNL     1      -3.825   2.606  -1.208  0.00  0.00    -0.150 OA
ATOM     15  O   UNL     1      -2.039   0.906  -0.857  0.00  0.00    -0.150 OA
BRANCH  13  20
ATOM     16  C   UNL     1      -4.228  -0.802  -6.825  0.00  0.00    +0.044 C 
ATOM     17  C   UNL     1      -4.012  -0.287  -5.426  0.00  0.00    -0.050 A 
ATOM     18  C   UNL     1      -4.773   0.766  -4.952  0.00  0.00    +0.005 A 
ATOM     19  C   UNL     1      -4.575   1.239  -3.668  0.00  0.00    +0.029 A 
ATOM     20  C   UNL     1      -3.618   0.658  -2.858  0.00  0.00    +0.109 A 
ATOM     21  C   UNL     1      -2.854  -0.391  -3.333  0.00  0.00    +0.029 A 
ATOM     22  C   UNL     1      -3.055  -0.867  -4.615  0.00  0.00    +0.005 A 
ENDBRANCH  13  20
ENDBRANCH  11  13
ENDBRANCH   1  11
BRANCH   4  23
ATOM     23  O   UNL     1      -3.793  -5.111   0.196  0.00  0.00    -0.505 OA
ATOM     24  H   UNL     1      -3.669  -5.426   1.102  0.00  0.00    +0.292 HD
ENDBRANCH   4  23
BRANCH   3  25
ATOM     25  S   UNL     1      -1.239  -3.659  -0.154  0.00  0.00    -0.027 S 
BRANCH  25  26
ATOM     26  C   UNL     1      -1.271  -4.300  -1.796  0.00  0.00    +0.263 A 
ATOM     27  N   UNL     1      -2.314  -4.284  -2.587  0.00  0.00    -0.203 NA
ATOM     28  C   UNL     1      -1.972  -4.862  -3.771  0.00  0.00    +0.110 A 
ATOM     29  C   UNL     1      -2.665  -5.112  -4.956  0.00  0.00    +0.031 A 
ATOM     30  C   UNL     1      -2.022  -5.731  -6.006  0.00  0.00    +0.002 A 
ATOM     31  C   UNL     1      -0.692  -6.106  -5.891  0.00  0.00    +0.004 A 
ATOM     32  C   UNL     1       0.005  -5.864  -4.724  0.00  0.00    +0.048 A 
ATOM     33  C   UNL     1      -0.626  -5.242  -3.659  0.00  0.00    +0.156 A 
ATOM     34  O   UNL     1      -0.228  -4.877  -2.419  0.00  0.00    -0.430 OA
ENDBRANCH  25  26
ENDBRANCH   3  25
TORSDOF 6
