REMARK  Name = ZINC35025006
REMARK  21 active torsions:
REMARK  status: ('A' for Active; 'I' for Inactive)
REMARK    1  A    between atoms: C_1  and  C_2
REMARK    2  A    between atoms: C_4  and  C_12
REMARK    3  A    between atoms: C_7  and  O_8
REMARK    4  A    between atoms: O_8  and  C_9
REMARK    5  A    between atoms: C_9  and  C_10
REMARK    6  A    between atoms: C_9  and  C_11
REMARK    7  A    between atoms: C_12  and  C_13
REMARK    8  A    between atoms: C_14  and  C_26
REMARK    9  A    between atoms: N_16  and  C_21
REMARK   10  A    between atoms: C_21  and  C_22
REMARK   11  A    between atoms: C_22  and  N_23
REMARK   12  A    between atoms: N_23  and  C_24
REMARK   13  A    between atoms: N_23  and  C_25
REMARK   14  A    between atoms: C_29  and  O_34
REMARK   15  A    between atoms: C_30  and  O_32
REMARK   16  A    between atoms: O_32  and  C_33
REMARK   17  A    between atoms: O_34  and  C_35
REMARK   18  A    between atoms: C_35  and  C_36
REMARK   19  A    between atoms: C_36  and  C_37
REMARK   20  A    between atoms: C_37  and  C_38
REMARK   21  A    between atoms: C_37  and  C_39
REMARK                            x       y       z     vdW  Elec       q    Type
REMARK                         _______ _______ _______ _____ _____    ______ ____
ROOT
ATOM      1  C   UNL     1      -0.438  -4.276  -2.815  0.00  0.00    +0.076 C 
ATOM      2  C   UNL     1      -0.413  -4.988  -1.483  0.00  0.00    +0.145 C 
ATOM      3  N   UNL     1      -0.466  -6.423  -1.784  0.00  0.00    -0.285 N 
ATOM      4  C   UNL     1      -0.516  -6.563  -3.121  0.00  0.00    +0.288 C 
ATOM      5  O   UNL     1      -0.568  -7.625  -3.710  0.00  0.00    -0.266 OA
ATOM      6  C   UNL     1      -0.505  -5.234  -3.768  0.00  0.00    +0.249 C 
ATOM      7  O   UNL     1      -0.553  -5.011  -5.102  0.00  0.00    -0.282 OA
ENDROOT
BRANCH   2   8
ATOM      8  C   UNL     1       0.859  -4.660  -0.744  0.00  0.00    -0.019 A 
ATOM      9  C   UNL     1       2.057  -5.213  -1.155  0.00  0.00    +0.009 A 
ATOM     10  C   UNL     1       3.227  -4.915  -0.481  0.00  0.00    +0.050 A 
ATOM     11  C   UNL     1       3.200  -4.060   0.609  0.00  0.00    +0.162 A 
ATOM     12  C   UNL     1       1.994  -3.503   1.022  0.00  0.00    +0.162 A 
ATOM     13  C   UNL     1       0.826  -3.802   0.339  0.00  0.00    +0.055 A 
BRANCH  12  14
ATOM     14  O   UNL     1       1.962  -2.663   2.092  0.00  0.00    -0.491 OA
ATOM     15  C   UNL     1       0.677  -2.213   2.525  0.00  0.00    +0.277 C 
ENDBRANCH  12  14
BRANCH  11  16
ATOM     16  O   UNL     1       4.349  -3.767   1.274  0.00  0.00    -0.488 OA
BRANCH  16  17
ATOM     17  C   UNL     1       5.550  -4.375   0.793  0.00  0.00    +0.229 C 
BRANCH  17  18
ATOM     18  C   UNL     1       6.729  -3.930   1.660  0.00  0.00    +0.044 C 
BRANCH  18  19
ATOM     19  C   UNL     1       8.015  -4.582   1.146  0.00  0.00    -0.014 C 
ATOM     20  C   UNL     1       8.325  -4.060  -0.259  0.00  0.00    +0.007 C 
ATOM     21  C   UNL     1       9.172  -4.237   2.085  0.00  0.00    +0.007 C 
ENDBRANCH  18  19
ENDBRANCH  17  18
ENDBRANCH  16  17
ENDBRANCH  11  16
ENDBRANCH   2   8
BRANCH   1  22
ATOM     22  C   UNL     1      -0.403  -2.826  -3.034  0.00  0.00    +0.195 C 
ATOM     23  O   UNL     1       0.551  -2.318  -3.593  0.00  0.00    -0.287 OA
BRANCH  22  27
ATOM     24  C   UNL     1      -2.405   1.691  -2.359  0.00  0.00    +0.047 C 
ATOM     25  C   UNL     1      -2.492   0.191  -2.249  0.00  0.00    -0.008 A 
ATOM     26  C   UNL     1      -1.444  -0.592  -2.678  0.00  0.00    +0.018 A 
ATOM     27  C   UNL     1      -1.525  -1.984  -2.575  0.00  0.00    +0.023 A 
ATOM     28  C   UNL     1      -2.672  -2.575  -2.036  0.00  0.00    +0.015 A 
ATOM     29  C   UNL     1      -3.715  -1.786  -1.609  0.00  0.00    +0.046 A 
ATOM     30  C   UNL     1      -3.628  -0.401  -1.709  0.00  0.00    +0.124 A 
BRANCH  30  31
ATOM     31  O   UNL     1      -4.657   0.374  -1.283  0.00  0.00    -0.489 OA
BRANCH  31  32
ATOM     32  C   UNL     1      -5.742  -0.289  -0.631  0.00  0.00    +0.167 C 
ATOM     33  C   UNL     1      -6.460   0.695   0.294  0.00  0.00    +0.051 C 
ATOM     34  C   UNL     1      -6.726  -0.811  -1.681  0.00  0.00    +0.051 C 
ENDBRANCH  31  32
ENDBRANCH  30  31
ENDBRANCH  22  27
ENDBRANCH   1  22
BRANCH   3  35
ATOM     35  C   UNL     1      -0.464  -7.511  -0.803  0.00  0.00    +0.090 C 
BRANCH  35  36
ATOM     36  C   UNL     1      -1.904  -7.847  -0.411  0.00  0.00    -0.060 C 
BRANCH  36  37
ATOM     37  N   UNL     1      -1.902  -8.938   0.573  0.00  0.00    +0.377 N 
ATOM     38  C   UNL     1      -3.275  -9.180   1.038  0.00  0.00    -0.097 C 
ATOM     39  C   UNL     1      -1.374 -10.158  -0.051  0.00  0.00    -0.097 C 
ATOM     40  H   UNL     1      -1.321  -8.682   1.357  0.00  0.00    -0.083 HD
ENDBRANCH  36  37
ENDBRANCH  35  36
ENDBRANCH   3  35
TORSDOF 13
