REMARK  Name = ZINC38064940
REMARK  10 active torsions:
REMARK  status: ('A' for Active; 'I' for Inactive)
REMARK    1  A    between atoms: C_1  and  C_2
REMARK    2  A    between atoms: C_2  and  C_3
REMARK    3  A    between atoms: C_3  and  C_5
REMARK    4  A    between atoms: C_3  and  N_6
REMARK    5  A    between atoms: N_6  and  C_7
REMARK    6  A    between atoms: C_7  and  C_19
REMARK    7  A    between atoms: C_9  and  C_18
REMARK    8  A    between atoms: C_13  and  C_15
REMARK    9  A    between atoms: C_15  and  C_16
REMARK   10  A    between atoms: C_15  and  C_17
REMARK                            x       y       z     vdW  Elec       q    Type
REMARK                         _______ _______ _______ _____ _____    ______ ____
ROOT
ATOM      1  C   UNL     1       3.066   0.042   2.537  0.00  0.00    +0.013 C 
ATOM      2  C   UNL     1       2.785   1.135   3.571  0.00  0.00    +0.000 C 
ATOM      3  C   UNL     1       3.495   2.425   3.155  0.00  0.00    -0.015 C 
ATOM      4  C   UNL     1       5.002   2.174   3.075  0.00  0.00    +0.003 C 
ATOM      5  C   UNL     1       5.283   1.081   2.042  0.00  0.00    +0.003 C 
ATOM      6  C   UNL     1       4.573  -0.209   2.457  0.00  0.00    -0.011 C 
ATOM      7  C   UNL     1       2.980   2.873   1.786  0.00  0.00    +0.007 C 
ENDROOT
BRANCH   1   8
ATOM      8  C   UNL     1       2.366  -1.228   2.946  0.00  0.00    +0.200 C 
ATOM      9  O   UNL     1       1.848  -1.933   2.106  0.00  0.00    -0.278 OA
ATOM     10  N   UNL     1       2.314  -1.581   4.246  0.00  0.00    -0.330 N 
ATOM     11  H   UNL     1       2.664  -0.983   4.925  0.00  0.00    +0.145 HD
ATOM     12  H   UNL     1       1.928  -2.433   4.503  0.00  0.00    +0.145 HD
ENDBRANCH   1   8
BRANCH   1  13
ATOM     13  N   UNL     1       2.571   0.473   1.223  0.00  0.00    +0.390 N 
ATOM     14  H   UNL     1       2.672  -0.283   0.561  0.00  0.00    -0.084 HD
ATOM     15  H   UNL     1       3.103   1.270   0.907  0.00  0.00    -0.084 HD
BRANCH  13  16
ATOM     16  C   UNL     1       1.153   0.842   1.330  0.00  0.00    -0.074 C 
ATOM     17  C   UNL     1       0.323  -0.405   1.641  0.00  0.00    -0.014 C 
BRANCH  16  19
ATOM     18  C   UNL     1       1.506   2.705  -0.297  0.00  0.00    +0.002 C 
ATOM     19  C   UNL     1       0.683   1.452   0.008  0.00  0.00    -0.019 C 
ENDBRANCH  16  19
ENDBRANCH  13  16
ENDBRANCH   1  13
BRANCH   6  20
ATOM     20  C   UNL     1       4.854  -1.301   1.424  0.00  0.00    -0.015 C 
ATOM     21  C   UNL     1       6.343  -1.303   1.076  0.00  0.00    +0.007 C 
ATOM     22  C   UNL     1       4.463  -2.663   2.002  0.00  0.00    +0.007 C 
ENDBRANCH   6  20
TORSDOF 5
