REMARK  Name = ZINC43216854
REMARK  8 active torsions:
REMARK  status: ('A' for Active; 'I' for Inactive)
REMARK    1  A    between atoms: C_1  and  O_2
REMARK    2  A    between atoms: O_2  and  C_3
REMARK    3  A    between atoms: C_8  and  N_9
REMARK    4  A    between atoms: C_10  and  C_12
REMARK    5  A    between atoms: C_15  and  C_17
REMARK    6  A    between atoms: C_17  and  C_19
REMARK    7  A    between atoms: C_17  and  N_30
REMARK    8  A    between atoms: C_19  and  C_20
REMARK                            x       y       z     vdW  Elec       q    Type
REMARK                         _______ _______ _______ _____ _____    ______ ____
ROOT
ATOM      1  C   UNL     1      -0.631  -4.932   0.783  0.00  0.00    +0.164 A 
ATOM      2  C   UNL     1      -0.742  -6.289   0.795  0.00  0.00    +0.230 A 
ATOM      3  O   UNL     1      -1.446  -6.614   1.891  0.00  0.00    -0.449 OA
ATOM      4  C   UNL     1      -1.762  -5.484   2.538  0.00  0.00    +0.182 A 
ATOM      5  N   UNL     1      -1.275  -4.469   1.889  0.00  0.00    -0.210 NA
ENDROOT
BRANCH   1   7
ATOM      6  N   UNL     1       0.096  -2.777  -0.112  0.00  0.00    -0.277 N 
ATOM      7  C   UNL     1       0.061  -4.119  -0.233  0.00  0.00    +0.270 C 
ATOM      8  O   UNL     1       0.601  -4.659  -1.179  0.00  0.00    -0.268 OA
ATOM      9  H   UNL     1      -0.263  -2.352   0.682  0.00  0.00    +0.155 HD
BRANCH   6  15
ATOM     10  C   UNL     1       1.159  -0.731  -0.849  0.00  0.00    +0.141 A 
ATOM     11  C   UNL     1       1.713   0.034  -1.863  0.00  0.00    +0.047 A 
ATOM     12  C   UNL     1       1.756  -0.457  -3.155  0.00  0.00    +0.004 A 
ATOM     13  C   UNL     1       1.247  -1.710  -3.439  0.00  0.00    +0.002 A 
ATOM     14  C   UNL     1       0.693  -2.480  -2.434  0.00  0.00    +0.027 A 
ATOM     15  C   UNL     1       0.652  -1.997  -1.134  0.00  0.00    +0.076 A 
BRANCH  10  17
ATOM     16  C   UNL     1       1.656   1.055   0.640  0.00  0.00    +0.277 C 
ATOM     17  O   UNL     1       1.117  -0.250   0.422  0.00  0.00    -0.493 OA
ENDBRANCH  10  17
ENDBRANCH   6  15
ENDBRANCH   1   7
BRANCH   4  18
ATOM     18  C   UNL     1      -2.551  -5.402   3.819  0.00  0.00    +0.017 C 
BRANCH  18  19
ATOM     19  N   UNL     1      -3.719  -6.289   3.732  0.00  0.00    +0.386 N 
ATOM     20  H   UNL     1      -4.247  -6.235   4.590  0.00  0.00    -0.089 HD
ATOM     21  H   UNL     1      -4.301  -6.003   2.960  0.00  0.00    -0.089 HD
ATOM     22  H   UNL     1      -3.410  -7.239   3.587  0.00  0.00    -0.089 HD
ENDBRANCH  18  19
BRANCH  18  23
ATOM     23  C   UNL     1      -1.667  -5.836   4.990  0.00  0.00    +0.030 C 
BRANCH  23  24
ATOM     24  C   UNL     1      -2.415  -5.639   6.284  0.00  0.00    -0.023 A 
ATOM     25  C   UNL     1      -2.350  -4.566   7.088  0.00  0.00    +0.087 A 
ATOM     26  N   UNL     1      -3.167  -4.744   8.171  0.00  0.00    -0.360 N 
ATOM     27  H   UNL     1      -3.287  -4.104   8.890  0.00  0.00    +0.165 HD
ATOM     28  C   UNL     1      -3.795  -5.967   8.088  0.00  0.00    +0.047 A 
ATOM     29  C   UNL     1      -3.356  -6.579   6.899  0.00  0.00    +0.003 A 
ATOM     30  C   UNL     1      -3.836  -7.841   6.546  0.00  0.00    +0.010 A 
ATOM     31  C   UNL     1      -4.734  -8.476   7.357  0.00  0.00    +0.001 A 
ATOM     32  C   UNL     1      -5.174  -7.875   8.529  0.00  0.00    +0.002 A 
ATOM     33  C   UNL     1      -4.705  -6.634   8.900  0.00  0.00    +0.026 A 
ENDBRANCH  23  24
ENDBRANCH  18  23
ENDBRANCH   4  18
TORSDOF 7
