REMARK  Name = ZINC44813358
REMARK  9 active torsions:
REMARK  status: ('A' for Active; 'I' for Inactive)
REMARK    1  A    between atoms: C_1  and  C_2
REMARK    2  A    between atoms: C_2  and  C_4
REMARK    3  A    between atoms: C_2  and  N_10
REMARK    4  A    between atoms: C_11  and  C_13
REMARK    5  A    between atoms: C_18  and  N_19
REMARK    6  A    between atoms: C_20  and  C_22
REMARK    7  A    between atoms: N_27  and  C_29
REMARK    8  A    between atoms: C_29  and  C_30
REMARK    9  A    between atoms: C_32  and  C_35
REMARK                            x       y       z     vdW  Elec       q    Type
REMARK                         _______ _______ _______ _____ _____    ______ ____
ROOT
ATOM      1  N   UNL     1      -3.520  -0.754  -3.468  0.00  0.00    -0.285 N 
ATOM      2  C   UNL     1      -4.227  -0.687  -4.614  0.00  0.00    +0.219 C 
ATOM      3  O   UNL     1      -5.416  -0.923  -4.607  0.00  0.00    -0.275 OA
ATOM      4  H   UNL     1      -2.582  -0.507  -3.462  0.00  0.00    +0.155 HD
ENDROOT
BRANCH   2   5
ATOM      5  C   UNL     1      -3.539  -0.319  -5.903  0.00  0.00    +0.059 C 
ATOM      6  C   UNL     1      -2.919   1.075  -5.772  0.00  0.00    +0.009 C 
ATOM      7  C   UNL     1      -2.291   1.472  -7.111  0.00  0.00    -0.018 C 
ATOM      8  C   UNL     1      -3.358   1.413  -8.206  0.00  0.00    -0.078 C 
ATOM      9  N   UNL     1      -3.893   0.050  -8.300  0.00  0.00    +0.386 N 
ATOM     10  C   UNL     1      -4.560  -0.312  -7.043  0.00  0.00    -0.065 C 
ATOM     11  H   UNL     1      -3.138  -0.596  -8.476  0.00  0.00    -0.081 HD
BRANCH   9  12
ATOM     12  C   UNL     1      -4.861  -0.020  -9.403  0.00  0.00    +0.022 C 
BRANCH  12  13
ATOM     13  C   UNL     1      -4.150   0.221 -10.710  0.00  0.00    +0.211 A 
ATOM     14  N   UNL     1      -3.615  -0.696 -11.465  0.00  0.00    -0.193 NA
ATOM     15  C   UNL     1      -3.066  -0.131 -12.555  0.00  0.00    +0.202 A 
ATOM     16  N   UNL     1      -3.253   1.165 -12.495  0.00  0.00    -0.056 NA
ATOM     17  O   UNL     1      -3.968   1.412 -11.293  0.00  0.00    -0.340 OA
BRANCH  15  18
ATOM     18  C   UNL     1      -2.364  -0.854 -13.645  0.00  0.00    +0.023 A 
ATOM     19  C   UNL     1      -2.236  -2.241 -13.594  0.00  0.00    +0.014 A 
ATOM     20  C   UNL     1      -1.584  -2.909 -14.609  0.00  0.00    +0.039 A 
ATOM     21  C   UNL     1      -1.057  -2.204 -15.678  0.00  0.00    +0.123 A 
ATOM     22  C   UNL     1      -1.181  -0.825 -15.733  0.00  0.00    +0.039 A 
ATOM     23  C   UNL     1      -1.837  -0.149 -14.725  0.00  0.00    +0.014 A 
ATOM     24  F   UNL     1      -0.418  -2.862 -16.671  0.00  0.00    -0.205 F 
ENDBRANCH  15  18
ENDBRANCH  12  13
ENDBRANCH   9  12
ENDBRANCH   2   5
BRANCH   1  30
ATOM     25  C   UNL     1      -3.475  -2.064  -1.431  0.00  0.00    +0.058 A 
ATOM     26  C   UNL     1      -4.102  -2.477  -0.253  0.00  0.00    +0.015 A 
ATOM     27  C   UNL     1      -5.364  -2.017   0.052  0.00  0.00    +0.001 A 
ATOM     28  C   UNL     1      -6.017  -1.145  -0.805  0.00  0.00    +0.002 A 
ATOM     29  C   UNL     1      -5.410  -0.728  -1.972  0.00  0.00    +0.024 A 
ATOM     30  C   UNL     1      -4.136  -1.177  -2.293  0.00  0.00    +0.046 A 
BRANCH  25  32
ATOM     31  N   UNL     1      -1.444  -3.309  -0.877  0.00  0.00    -0.305 N 
ATOM     32  C   UNL     1      -2.123  -2.553  -1.763  0.00  0.00    +0.246 C 
ATOM     33  O   UNL     1      -1.622  -2.275  -2.835  0.00  0.00    -0.270 OA
ATOM     34  H   UNL     1      -1.843  -3.531  -0.022  0.00  0.00    +0.150 HD
BRANCH  31  36
ATOM     35  C   UNL     1       0.930  -2.719  -0.858  0.00  0.00    +0.033 C 
ATOM     36  C   UNL     1      -0.102  -3.795  -1.207  0.00  0.00    +0.100 C 
BRANCH  36  37
ATOM     37  C   UNL     1       0.189  -5.044  -0.416  0.00  0.00    -0.027 A 
ATOM     38  C   UNL     1      -0.217  -5.138   0.901  0.00  0.00    +0.005 A 
ATOM     39  C   UNL     1       0.049  -6.285   1.627  0.00  0.00    +0.000 A 
ATOM     40  C   UNL     1       0.721  -7.337   1.034  0.00  0.00    +0.000 A 
ATOM     41  C   UNL     1       1.127  -7.243  -0.284  0.00  0.00    +0.000 A 
ATOM     42  C   UNL     1       0.857  -6.099  -1.011  0.00  0.00    +0.005 A 
ENDBRANCH  36  37
ENDBRANCH  31  36
ENDBRANCH  25  32
ENDBRANCH   1  30
TORSDOF 8
