REMARK  Name = ZINC28463039
REMARK  12 active torsions:
REMARK  status: ('A' for Active; 'I' for Inactive)
REMARK    1  A    between atoms: C_1  and  C_2
REMARK    2  A    between atoms: C_2  and  C_3
REMARK    3  A    between atoms: C_3  and  O_4
REMARK    4  A    between atoms: O_4  and  C_5
REMARK    5  A    between atoms: C_5  and  C_7
REMARK    6  A    between atoms: C_8  and  C_29
REMARK    7  A    between atoms: C_13  and  N_16
REMARK    8  A    between atoms: N_16  and  S_17
REMARK    9  A    between atoms: S_17  and  C_20
REMARK   10  A    between atoms: C_23  and  C_26
REMARK   11  A    between atoms: C_26  and  C_27
REMARK   12  A    between atoms: C_26  and  C_28
REMARK                            x       y       z     vdW  Elec       q    Type
REMARK                         _______ _______ _______ _____ _____    ______ ____
ROOT
ATOM      1  C   UNL     1      -2.520   1.929   0.101  0.00  0.00    +0.107 A 
ATOM      2  C   UNL     1      -3.104   3.159   0.084  0.00  0.00    +0.117 A 
ATOM      3  O   UNL     1      -2.163   4.109   0.053  0.00  0.00    -0.459 OA
ATOM      4  C   UNL     1      -0.924   3.573   0.034  0.00  0.00    +0.136 A 
ATOM      5  C   UNL     1      -1.064   2.178   0.065  0.00  0.00    +0.036 A 
ATOM      6  C   UNL     1       0.059   1.358   0.060  0.00  0.00    +0.037 A 
ATOM      7  C   UNL     1       1.321   1.928   0.014  0.00  0.00    +0.049 A 
ATOM      8  C   UNL     1       1.459   3.313  -0.021  0.00  0.00    +0.028 A 
ATOM      9  C   UNL     1       0.349   4.129  -0.012  0.00  0.00    +0.049 A 
ATOM     10  C   UNL     1      -4.589   3.413   0.110  0.00  0.00    +0.087 C 
ENDROOT
BRANCH   1  11
ATOM     11  C   UNL     1      -3.196   0.626   0.147  0.00  0.00    +0.343 C 
ATOM     12  O   UNL     1      -3.454   0.113   1.218  0.00  0.00    -0.245 OA
BRANCH  11  13
ATOM     13  O   UNL     1      -3.531   0.000  -0.999  0.00  0.00    -0.461 OA
BRANCH  13  14
ATOM     14  C   UNL     1      -4.198  -1.284  -0.878  0.00  0.00    +0.232 C 
BRANCH  14  16
ATOM     15  C   UNL     1      -5.199  -3.190  -2.146  0.00  0.00    +0.007 C 
ATOM     16  C   UNL     1      -4.497  -1.837  -2.273  0.00  0.00    +0.038 C 
ENDBRANCH  14  16
ENDBRANCH  13  14
ENDBRANCH  11  13
ENDBRANCH   1  11
BRANCH   7  17
ATOM     17  N   UNL     1       2.456   1.111   0.004  0.00  0.00    -0.216 N 
ATOM     18  H   UNL     1       3.074   1.017   0.910  0.00  0.00    +0.174 HD
BRANCH  17  19
ATOM     19  S   UNL     1       2.871   0.287  -1.371  0.00  0.00    +0.072 S 
ATOM     20  O   UNL     1       4.083  -0.397  -1.084  0.00  0.00    -0.150 OA
ATOM     21  O   UNL     1       1.700  -0.389  -1.808  0.00  0.00    -0.150 OA
BRANCH  19  22
ATOM     22  C   UNL     1       3.250   1.487  -2.604  0.00  0.00    +0.109 A 
ATOM     23  C   UNL     1       2.244   2.000  -3.401  0.00  0.00    +0.029 A 
ATOM     24  C   UNL     1       2.541   2.945  -4.365  0.00  0.00    +0.006 A 
ATOM     25  C   UNL     1       3.844   3.370  -4.539  0.00  0.00    -0.045 A 
ATOM     26  C   UNL     1       4.851   2.853  -3.745  0.00  0.00    +0.006 A 
ATOM     27  C   UNL     1       4.554   1.911  -2.778  0.00  0.00    +0.029 A 
BRANCH  25  28
ATOM     28  C   UNL     1       4.168   4.398  -5.592  0.00  0.00    +0.013 C 
ATOM     29  C   UNL     1       3.769   3.860  -6.968  0.00  0.00    +0.012 C 
ATOM     30  C   UNL     1       3.394   5.686  -5.304  0.00  0.00    +0.012 C 
ENDBRANCH  25  28
ENDBRANCH  19  22
ENDBRANCH  17  19
ENDBRANCH   7  17
TORSDOF 8
