REMARK  Name = ZINC63731401
REMARK  11 active torsions:
REMARK  status: ('A' for Active; 'I' for Inactive)
REMARK    1  A    between atoms: C_1  and  C_2
REMARK    2  A    between atoms: C_2  and  C_3
REMARK    3  A    between atoms: C_2  and  C_4
REMARK    4  A    between atoms: C_2  and  C_5
REMARK    5  A    between atoms: C_8  and  N_18
REMARK    6  A    between atoms: N_10  and  C_12
REMARK    7  A    between atoms: C_19  and  C_21
REMARK    8  A    between atoms: C_21  and  O_22
REMARK    9  A    between atoms: O_22  and  C_23
REMARK   10  A    between atoms: C_23  and  C_25
REMARK   11  A    between atoms: C_25  and  C_26
REMARK                            x       y       z     vdW  Elec       q    Type
REMARK                         _______ _______ _______ _____ _____    ______ ____
ROOT
ATOM      1  N   UNL     1       1.183   1.785  -3.966  0.00  0.00    -0.293 N 
ATOM      2  C   UNL     1       1.441   2.057  -5.260  0.00  0.00    +0.252 C 
ATOM      3  O   UNL     1       1.582   1.151  -6.054  0.00  0.00    -0.272 OA
ATOM      4  H   UNL     1       0.993   2.507  -3.347  0.00  0.00    +0.151 HD
ENDROOT
BRANCH   1   7
ATOM      5  C   UNL     1       0.549  -0.735  -1.482  0.00  0.00    +0.082 C 
ATOM      6  C   UNL     1      -0.061   0.121  -2.626  0.00  0.00    +0.064 C 
ATOM      7  C   UNL     1       1.191   0.399  -3.493  0.00  0.00    +0.178 C 
ATOM      8  N   UNL     1       2.341   0.168  -2.604  0.00  0.00    -0.246 N 
ATOM      9  N   UNL     1       1.901  -0.134  -1.341  0.00  0.00    -0.235 NA
ATOM     10  H   UNL     1       1.871   0.692  -0.761  0.00  0.00    +0.145 HD
BRANCH   8  11
ATOM     11  C   UNL     1       3.682   0.244  -2.989  0.00  0.00    +0.046 A 
ATOM     12  C   UNL     1       4.014   0.365  -4.332  0.00  0.00    +0.024 A 
ATOM     13  C   UNL     1       5.340   0.440  -4.710  0.00  0.00    +0.002 A 
ATOM     14  C   UNL     1       6.337   0.395  -3.753  0.00  0.00    +0.000 A 
ATOM     15  C   UNL     1       6.010   0.275  -2.414  0.00  0.00    +0.002 A 
ATOM     16  C   UNL     1       4.685   0.205  -2.030  0.00  0.00    +0.024 A 
ENDBRANCH   8  11
BRANCH   5  18
ATOM     17  C   UNL     1      -0.318   0.901   0.196  0.00  0.00    +0.012 C 
ATOM     18  C   UNL     1      -0.257  -0.578  -0.192  0.00  0.00    -0.021 C 
ATOM     19  C   UNL     1       0.415  -1.372   0.930  0.00  0.00    +0.012 C 
ATOM     20  C   UNL     1      -1.677  -1.106  -0.410  0.00  0.00    +0.012 C 
ENDBRANCH   5  18
ENDBRANCH   1   7
BRANCH   2  21
ATOM     21  C   UNL     1       1.554   3.487  -5.722  0.00  0.00    +0.327 C 
BRANCH  21  22
ATOM     22  O   UNL     1       1.829   3.514  -7.124  0.00  0.00    -0.455 OA
BRANCH  22  23
ATOM     23  C   UNL     1       1.960   4.722  -7.695  0.00  0.00    +0.312 C 
ATOM     24  O   UNL     1       1.845   5.722  -7.028  0.00  0.00    -0.250 OA
BRANCH  23  25
ATOM     25  C   UNL     1       2.250   4.830  -9.170  0.00  0.00    +0.153 C 
BRANCH  25  26
ATOM     26  C   UNL     1       2.349   6.283  -9.558  0.00  0.00    -0.031 C 
ATOM     27  C   UNL     1       3.477   7.024  -9.654  0.00  0.00    -0.001 A 
ATOM     28  C   UNL     1       4.894   6.711  -9.435  0.00  0.00    +0.010 A 
ATOM     29  C   UNL     1       5.816   7.684  -9.614  0.00  0.00    +0.001 A 
ATOM     30  C   UNL     1       5.452   8.981 -10.002  0.00  0.00    +0.002 A 
ATOM     31  C   UNL     1       4.171   9.345 -10.223  0.00  0.00    +0.026 A 
ATOM     32  C   UNL     1       3.119   8.401 -10.064  0.00  0.00    +0.043 A 
ATOM     33  N   UNL     1       1.821   8.507 -10.215  0.00  0.00    -0.380 N 
ATOM     34  C   UNL     1       1.208   7.206  -9.924  0.00  0.00    +0.145 C 
ATOM     35  H   UNL     1       1.346   9.310 -10.480  0.00  0.00    +0.160 HD
ENDBRANCH  25  26
ENDBRANCH  23  25
ENDBRANCH  22  23
ENDBRANCH  21  22
ENDBRANCH   2  21
TORSDOF 8
