REMARK  Name = ZINC34773989
REMARK  5 active torsions:
REMARK  status: ('A' for Active; 'I' for Inactive)
REMARK    1  A    between atoms: C_4  and  C_7
REMARK    2  A    between atoms: C_12  and  N_22
REMARK    3  A    between atoms: C_14  and  C_16
REMARK    4  A    between atoms: N_25  and  C_28
REMARK    5  A    between atoms: C_28  and  C_29
REMARK                            x       y       z     vdW  Elec       q    Type
REMARK                         _______ _______ _______ _____ _____    ______ ____
ROOT
ATOM      1  C   UNL     1       3.888  -0.370   0.274  0.00  0.00    +0.002 A 
ATOM      2  C   UNL     1       4.883   0.012  -0.562  0.00  0.00    +0.056 A 
ATOM      3  S   UNL     1       6.168  -1.184  -0.253  0.00  0.00    -0.076 S 
ATOM      4  C   UNL     1       5.352  -2.163   0.980  0.00  0.00    +0.114 A 
ATOM      5  C   UNL     1       4.097  -1.534   1.129  0.00  0.00    +0.055 A 
ATOM      6  C   UNL     1       3.224  -2.125   2.082  0.00  0.00    +0.134 A 
ATOM      7  N   UNL     1       3.624  -3.191   2.754  0.00  0.00    -0.212 NA
ATOM      8  C   UNL     1       4.824  -3.731   2.568  0.00  0.00    +0.163 A 
ATOM      9  N   UNL     1       5.676  -3.227   1.685  0.00  0.00    -0.220 NA
ENDROOT
BRANCH   6  10
ATOM     10  N   UNL     1       1.967  -1.591   2.305  0.00  0.00    -0.318 N 
ATOM     11  C   UNL     1       0.760  -2.261   1.799  0.00  0.00    +0.088 C 
ATOM     12  C   UNL     1      -0.242  -2.393   2.951  0.00  0.00    -0.059 C 
ATOM     13  N   UNL     1      -0.485  -1.071   3.541  0.00  0.00    +0.384 N 
ATOM     14  C   UNL     1       0.750  -0.558   4.147  0.00  0.00    -0.059 C 
ATOM     15  C   UNL     1       1.800  -0.339   3.059  0.00  0.00    +0.088 C 
ATOM     16  H   UNL     1      -0.793  -0.434   2.821  0.00  0.00    -0.081 HD
BRANCH  13  17
ATOM     17  C   UNL     1      -1.526  -1.180   4.572  0.00  0.00    -0.041 C 
BRANCH  17  18
ATOM     18  C   UNL     1      -1.864   0.194   5.091  0.00  0.00    -0.046 A 
ATOM     19  C   UNL     1      -1.323   0.634   6.285  0.00  0.00    +0.003 A 
ATOM     20  C   UNL     1      -1.633   1.894   6.761  0.00  0.00    +0.000 A 
ATOM     21  C   UNL     1      -2.485   2.714   6.045  0.00  0.00    +0.001 A 
ATOM     22  C   UNL     1      -3.027   2.275   4.852  0.00  0.00    +0.020 A 
ATOM     23  C   UNL     1      -2.712   1.016   4.371  0.00  0.00    +0.042 A 
ATOM     24 CL   UNL     1      -3.387   0.466   2.869  0.00  0.00    -0.083 Cl
ENDBRANCH  17  18
ENDBRANCH  13  17
ENDBRANCH   6  10
BRANCH   1  28
ATOM     25  C   UNL     1       0.230   1.791   0.415  0.00  0.00    +0.000 A 
ATOM     26  C   UNL     1       1.420   2.429   0.720  0.00  0.00    +0.001 A 
ATOM     27  C   UNL     1       2.610   1.732   0.676  0.00  0.00    +0.008 A 
ATOM     28  C   UNL     1       2.613   0.383   0.324  0.00  0.00    -0.017 A 
ATOM     29  C   UNL     1       1.411  -0.254   0.018  0.00  0.00    +0.008 A 
ATOM     30  C   UNL     1       0.227   0.453   0.065  0.00  0.00    +0.001 A 
ENDBRANCH   1  28
BRANCH   8  31
ATOM     31  C   UNL     1       5.213  -4.927   3.354  0.00  0.00    +0.019 A 
ATOM     32  C   UNL     1       4.324  -5.479   4.275  0.00  0.00    +0.011 A 
ATOM     33  C   UNL     1       4.691  -6.591   5.004  0.00  0.00    +0.001 A 
ATOM     34  C   UNL     1       5.940  -7.159   4.822  0.00  0.00    +0.000 A 
ATOM     35  C   UNL     1       6.827  -6.615   3.910  0.00  0.00    +0.001 A 
ATOM     36  C   UNL     1       6.468  -5.507   3.171  0.00  0.00    +0.011 A 
ENDBRANCH   8  31
TORSDOF 5
