REMARK  Name = ZINC36005258
REMARK  12 active torsions:
REMARK  status: ('A' for Active; 'I' for Inactive)
REMARK    1  A    between atoms: C_1  and  C_2
REMARK    2  A    between atoms: C_2  and  O_3
REMARK    3  A    between atoms: O_3  and  C_4
REMARK    4  A    between atoms: C_4  and  C_6
REMARK    5  A    between atoms: C_7  and  C_24
REMARK    6  A    between atoms: N_8  and  C_23
REMARK    7  A    between atoms: C_12  and  C_14
REMARK    8  A    between atoms: C_17  and  C_20
REMARK    9  A    between atoms: C_20  and  C_21
REMARK   10  A    between atoms: C_20  and  C_22
REMARK   11  A    between atoms: C_24  and  N_25
REMARK   12  A    between atoms: C_32  and  C_34
REMARK                            x       y       z     vdW  Elec       q    Type
REMARK                         _______ _______ _______ _____ _____    ______ ____
ROOT
ATOM      1  C   UNL     1       0.134  -3.114  -2.508  0.00  0.00    +0.076 C 
ATOM      2  C   UNL     1       1.083  -4.049  -2.732  0.00  0.00    +0.010 C 
ATOM      3  N   UNL     1       1.968  -3.922  -3.764  0.00  0.00    -0.264 N 
ATOM      4  C   UNL     1       1.970  -2.890  -4.618  0.00  0.00    +0.307 C 
ATOM      5  O   UNL     1       2.797  -2.864  -5.507  0.00  0.00    -0.252 OA
ATOM      6  N   UNL     1       1.084  -1.879  -4.523  0.00  0.00    -0.288 N 
ATOM      7  C   UNL     1       0.082  -1.924  -3.445  0.00  0.00    +0.143 C 
ATOM      8  C   UNL     1       2.971  -4.973  -3.949  0.00  0.00    +0.139 C 
ATOM      9  H   UNL     1       1.103  -1.141  -5.152  0.00  0.00    +0.151 HD
ENDROOT
BRANCH   7  10
ATOM     10  C   UNL     1      -1.287  -1.889  -4.074  0.00  0.00    -0.022 A 
ATOM     11  C   UNL     1      -1.582  -2.724  -5.135  0.00  0.00    +0.006 A 
ATOM     12  C   UNL     1      -2.837  -2.692  -5.713  0.00  0.00    +0.004 A 
ATOM     13  C   UNL     1      -3.798  -1.824  -5.229  0.00  0.00    -0.045 A 
ATOM     14  C   UNL     1      -3.504  -0.989  -4.167  0.00  0.00    +0.004 A 
ATOM     15  C   UNL     1      -2.250  -1.025  -3.587  0.00  0.00    +0.006 A 
BRANCH  13  16
ATOM     16  C   UNL     1      -5.167  -1.788  -5.859  0.00  0.00    +0.013 C 
ATOM     17  C   UNL     1      -6.222  -2.141  -4.808  0.00  0.00    +0.012 C 
ATOM     18  C   UNL     1      -5.440  -0.385  -6.405  0.00  0.00    +0.012 C 
ENDBRANCH  13  16
ENDBRANCH   7  10
BRANCH   1  19
ATOM     19  C   UNL     1      -0.783  -3.245  -1.439  0.00  0.00    +0.339 C 
ATOM     20  O   UNL     1      -0.805  -4.266  -0.777  0.00  0.00    -0.245 OA
BRANCH  19  21
ATOM     21  O   UNL     1      -1.633  -2.237  -1.153  0.00  0.00    -0.462 OA
BRANCH  21  23
ATOM     22  C   UNL     1      -3.411  -1.196   0.112  0.00  0.00    +0.048 C 
ATOM     23  C   UNL     1      -2.532  -2.437  -0.060  0.00  0.00    +0.229 C 
ENDBRANCH  21  23
ENDBRANCH  19  21
ENDBRANCH   1  19
BRANCH   2  24
ATOM     24  C   UNL     1       1.167  -5.251  -1.827  0.00  0.00    -0.026 C 
BRANCH  24  25
ATOM     25  N   UNL     1       0.218  -6.275  -2.284  0.00  0.00    +0.384 N 
ATOM     26  C   UNL     1       0.128  -7.311  -1.257  0.00  0.00    -0.077 C 
ATOM     27  C   UNL     1      -1.249  -7.937  -1.300  0.00  0.00    +0.000 C 
ATOM     28  C   UNL     1      -1.215  -9.187  -2.198  0.00  0.00    +0.106 C 
ATOM     29  N   UNL     1      -0.379  -8.959  -3.394  0.00  0.00    -0.297 N 
ATOM     30  C   UNL     1      -0.410  -7.715  -4.136  0.00  0.00    +0.089 C 
ATOM     31  C   UNL     1       0.632  -6.731  -3.555  0.00  0.00    -0.059 C 
ATOM     32  C   UNL     1       0.442  -9.943  -3.810  0.00  0.00    +0.282 C 
ATOM     33  O   UNL     1       0.405 -11.034  -3.273  0.00  0.00    -0.267 OA
ATOM     34  H   UNL     1      -0.690  -5.845  -2.380  0.00  0.00    -0.081 HD
BRANCH  32  35
ATOM     35  C   UNL     1       1.382  -9.699  -4.910  0.00  0.00    +0.189 A 
ATOM     36  C   UNL     1       2.181 -10.632  -5.505  0.00  0.00    +0.054 A 
ATOM     37  C   UNL     1       2.909  -9.964  -6.501  0.00  0.00    +0.042 A 
ATOM     38  C   UNL     1       2.528  -8.668  -6.471  0.00  0.00    +0.196 A 
ATOM     39  O   UNL     1       1.603  -8.513  -5.514  0.00  0.00    -0.458 OA
ENDBRANCH  32  35
ENDBRANCH  24  25
ENDBRANCH   2  24
TORSDOF 8
