REMARK  Name = ZINC12136653
REMARK  9 active torsions:
REMARK  status: ('A' for Active; 'I' for Inactive)
REMARK    1  A    between atoms: C_1  and  C_2
REMARK    2  A    between atoms: C_2  and  C_4
REMARK    3  A    between atoms: C_2  and  S_13
REMARK    4  A    between atoms: N_6  and  C_7
REMARK    5  A    between atoms: S_13  and  C_14
REMARK    6  A    between atoms: C_17  and  C_29
REMARK    7  A    between atoms: N_18  and  C_19
REMARK    8  A    between atoms: C_24  and  C_25
REMARK    9  A    between atoms: C_29  and  N_30
REMARK                            x       y       z     vdW  Elec       q    Type
REMARK                         _______ _______ _______ _____ _____    ______ ____
ROOT
ATOM      1  C   UNL     1      -1.734   2.748  -2.691  0.00  0.00    +0.197 A 
ATOM      2  N   UNL     1      -2.249   1.541  -2.709  0.00  0.00    -0.122 NA
ATOM      3  N   UNL     1      -1.603   0.777  -1.902  0.00  0.00    -0.135 NA
ATOM      4  C   UNL     1      -0.650   1.446  -1.317  0.00  0.00    +0.122 A 
ATOM      5  N   UNL     1      -0.695   2.726  -1.801  0.00  0.00    -0.275 N 
ENDROOT
BRANCH   5   6
ATOM      6  C   UNL     1       0.147   3.793  -1.455  0.00  0.00    +0.062 A 
ATOM      7  C   UNL     1      -0.245   4.703  -0.483  0.00  0.00    +0.027 A 
ATOM      8  C   UNL     1       0.586   5.752  -0.144  0.00  0.00    +0.002 A 
ATOM      9  C   UNL     1       1.810   5.896  -0.772  0.00  0.00    +0.001 A 
ATOM     10  C   UNL     1       2.204   4.992  -1.741  0.00  0.00    +0.014 A 
ATOM     11  C   UNL     1       1.378   3.938  -2.080  0.00  0.00    +0.079 A 
BRANCH  11  12
ATOM     12  C   UNL     1       1.811   2.950  -3.132  0.00  0.00    +0.419 C 
ATOM     13  F   UNL     1       3.022   3.367  -3.694  0.00  0.00    -0.166 F 
ATOM     14  F   UNL     1       1.977   1.689  -2.548  0.00  0.00    -0.166 F 
ATOM     15  F   UNL     1       0.835   2.875  -4.132  0.00  0.00    -0.166 F 
ENDBRANCH  11  12
ENDBRANCH   5   6
BRANCH   1  16
ATOM     16  S   UNL     1      -2.277   4.134  -3.633  0.00  0.00    -0.073 S 
BRANCH  16  18
ATOM     17  C   UNL     1      -3.110   2.301  -5.479  0.00  0.00    +0.029 C 
ATOM     18  C   UNL     1      -3.651   3.379  -4.539  0.00  0.00    +0.137 C 
BRANCH  18  19
ATOM     19  C   UNL     1      -4.364   4.436  -5.343  0.00  0.00    +0.226 C 
ATOM     20  O   UNL     1      -3.773   5.439  -5.684  0.00  0.00    -0.275 OA
ATOM     21  N   UNL     1      -5.657   4.266  -5.682  0.00  0.00    -0.312 N 
ATOM     22  H   UNL     1      -6.192   3.357  -5.372  0.00  0.00    +0.149 HD
BRANCH  21  23
ATOM     23  C   UNL     1      -6.350   5.294  -6.464  0.00  0.00    +0.073 C 
ATOM     24  C   UNL     1      -6.891   6.372  -5.523  0.00  0.00    +0.022 C 
ATOM     25  C   UNL     1      -7.614   7.445  -6.339  0.00  0.00    +0.002 C 
ATOM     26  C   UNL     1      -8.775   6.807  -7.104  0.00  0.00    +0.000 C 
ATOM     27  C   UNL     1      -8.235   5.729  -8.045  0.00  0.00    +0.002 C 
ATOM     28  C   UNL     1      -7.511   4.656  -7.229  0.00  0.00    +0.022 C 
ENDBRANCH  21  23
ENDBRANCH  18  19
ENDBRANCH  16  18
ENDBRANCH   1  16
BRANCH   4  29
ATOM     29  C   UNL     1       0.325   0.908  -0.302  0.00  0.00    -0.001 C 
BRANCH  29  30
ATOM     30  N   UNL     1      -0.296   0.923   1.029  0.00  0.00    +0.384 N 
ATOM     31  C   UNL     1      -0.606   2.295   1.450  0.00  0.00    -0.078 C 
ATOM     32  C   UNL     1      -1.380   2.263   2.770  0.00  0.00    -0.019 C 
ATOM     33  C   UNL     1      -0.534   1.562   3.835  0.00  0.00    -0.004 C 
ATOM     34  C   UNL     1      -0.184   0.151   3.352  0.00  0.00    -0.019 C 
ATOM     35  C   UNL     1       0.556   0.245   2.015  0.00  0.00    -0.078 C 
ATOM     36  H   UNL     1      -1.244   0.369   0.968  0.00  0.00    -0.081 HD
ENDBRANCH  29  30
ENDBRANCH   4  29
TORSDOF 8
