REMARK  Name = ZINC58571531
REMARK  4 active torsions:
REMARK  status: ('A' for Active; 'I' for Inactive)
REMARK    1  A    between atoms: C_1  and  C_2
REMARK    2  A    between atoms: N_16  and  C_17
REMARK    3  A    between atoms: C_17  and  C_18
REMARK    4  A    between atoms: C_18  and  C_19
REMARK                            x       y       z     vdW  Elec       q    Type
REMARK                         _______ _______ _______ _____ _____    ______ ____
ROOT
ATOM      1  C   UNL     1      -0.009   1.641   0.232  0.00  0.00    -0.008 C 
ATOM      2  C   UNL     1      -0.020   0.119   0.080  0.00  0.00    -0.040 C 
ATOM      3  C   UNL     1      -1.436  -0.381   0.192  0.00  0.00    -0.054 A 
ATOM      4  C   UNL     1      -2.447   0.347  -0.418  0.00  0.00    +0.051 A 
ATOM      5  C   UNL     1      -3.762  -0.080  -0.344  0.00  0.00    +0.162 A 
ATOM      6  C   UNL     1      -4.070  -1.246   0.347  0.00  0.00    +0.162 A 
ATOM      7  C   UNL     1      -3.058  -1.967   0.959  0.00  0.00    +0.053 A 
ATOM      8  C   UNL     1      -1.744  -1.534   0.884  0.00  0.00    -0.038 A 
ATOM      9  C   UNL     1      -0.674  -2.340   1.570  0.00  0.00    -0.019 C 
ATOM     10  C   UNL     1      -0.910  -3.840   1.319  0.00  0.00    +0.010 C 
ATOM     11  C   UNL     1      -0.516  -4.515   2.657  0.00  0.00    +0.001 C 
ATOM     12  C   UNL     1      -1.033  -3.507   3.714  0.00  0.00    +0.001 C 
ATOM     13  C   UNL     1      -0.750  -2.125   3.089  0.00  0.00    +0.010 C 
ATOM     14  C   UNL     1       0.707  -1.940   1.055  0.00  0.00    -0.066 C 
ATOM     15  N   UNL     1       0.824  -0.475   1.120  0.00  0.00    +0.385 N 
ATOM     16  O   UNL     1      -5.354  -1.691   0.425  0.00  0.00    -0.485 OA
ATOM     17  C   UNL     1      -6.383  -0.745   0.117  0.00  0.00    +0.270 C 
ATOM     18  C   UNL     1      -5.990  -0.009  -1.171  0.00  0.00    +0.270 C 
ATOM     19  O   UNL     1      -4.739   0.650  -0.947  0.00  0.00    -0.485 OA
ATOM     20  H   UNL     1       0.521  -0.152   2.026  0.00  0.00    -0.081 HD
ENDROOT
BRANCH  15  21
ATOM     21  C   UNL     1       2.223  -0.085   0.900  0.00  0.00    -0.069 C 
BRANCH  21  22
ATOM     22  C   UNL     1       3.081  -0.584   2.064  0.00  0.00    +0.078 C 
BRANCH  22  23
ATOM     23  C   UNL     1       4.490  -0.074   1.905  0.00  0.00    +0.219 C 
ATOM     24  O   UNL     1       4.779   0.621   0.954  0.00  0.00    -0.275 OA
ATOM     25  N   UNL     1       5.428  -0.389   2.820  0.00  0.00    -0.240 N 
ATOM     26  C   UNL     1       6.688   0.067   2.677  0.00  0.00    +0.303 C 
ATOM     27  O   UNL     1       6.978   0.763   1.724  0.00  0.00    -0.253 OA
ATOM     28  N   UNL     1       7.627  -0.248   3.592  0.00  0.00    -0.313 N 
ATOM     29  H   UNL     1       5.197  -0.945   3.580  0.00  0.00    +0.159 HD
ATOM     30  H   UNL     1       7.395  -0.804   4.353  0.00  0.00    +0.146 HD
ATOM     31  H   UNL     1       8.534   0.080   3.489  0.00  0.00    +0.146 HD
ENDBRANCH  22  23
ENDBRANCH  21  22
ENDBRANCH  15  21
TORSDOF 3
