REMARK  Name = ZINC63439883
REMARK  13 active torsions:
REMARK  status: ('A' for Active; 'I' for Inactive)
REMARK    1  A    between atoms: C_1  and  O_2
REMARK    2  A    between atoms: O_2  and  C_3
REMARK    3  A    between atoms: C_8  and  O_9
REMARK    4  A    between atoms: O_9  and  C_10
REMARK    5  A    between atoms: N_15  and  C_18
REMARK    6  A    between atoms: C_18  and  C_19
REMARK    7  A    between atoms: C_19  and  C_20
REMARK    8  A    between atoms: C_20  and  C_21
REMARK    9  A    between atoms: C_21  and  C_22
REMARK   10  A    between atoms: C_22  and  C_23
REMARK   11  A    between atoms: N_25  and  C_26
REMARK   12  A    between atoms: C_26  and  C_27
REMARK   13  A    between atoms: C_27  and  C_28
REMARK                            x       y       z     vdW  Elec       q    Type
REMARK                         _______ _______ _______ _____ _____    ______ ____
ROOT
ATOM      1  C   UNL     1       5.156   0.595   5.950  0.00  0.00    +0.022 C 
ENDROOT
BRANCH   1   2
ATOM      2  C   UNL     1       3.693   0.312   6.298  0.00  0.00    +0.130 C 
BRANCH   2  13
ATOM      3  C   UNL     1       0.626  -0.619   1.043  0.00  0.00    +0.162 A 
ATOM      4  C   UNL     1       1.199   0.138   2.045  0.00  0.00    +0.064 A 
ATOM      5  C   UNL     1       1.837  -0.500   3.109  0.00  0.00    +0.067 A 
ATOM      6  C   UNL     1       1.897  -1.905   3.158  0.00  0.00    +0.059 A 
ATOM      7  C   UNL     1       1.319  -2.653   2.147  0.00  0.00    +0.076 A 
ATOM      8  C   UNL     1       0.681  -2.013   1.095  0.00  0.00    +0.163 A 
ATOM      9  N   UNL     1       2.539  -2.510   4.231  0.00  0.00    -0.307 N 
ATOM     10  H   UNL     1       2.588  -3.477   4.279  0.00  0.00    +0.170 HD
ATOM     11  C   UNL     1       3.094  -1.766   5.203  0.00  0.00    +0.330 A 
ATOM     12  O   UNL     1       3.648  -2.332   6.126  0.00  0.00    -0.246 OA
ATOM     13  N   UNL     1       3.063  -0.424   5.199  0.00  0.00    -0.261 N 
ATOM     14  C   UNL     1       2.462   0.261   4.202  0.00  0.00    +0.264 A 
ATOM     15  O   UNL     1       2.439   1.477   4.208  0.00  0.00    -0.267 OA
BRANCH   3  17
ATOM     16  C   UNL     1      -0.017   1.425   0.010  0.00  0.00    +0.277 C 
ATOM     17  O   UNL     1       0.002  -0.004   0.002  0.00  0.00    -0.491 OA
ENDBRANCH   3  17
BRANCH   8  18
ATOM     18  O   UNL     1       0.110  -2.748   0.106  0.00  0.00    -0.491 OA
ATOM     19  C   UNL     1       0.200  -4.170   0.219  0.00  0.00    +0.277 C 
ENDBRANCH   8  18
ENDBRANCH   2  13
ENDBRANCH   1   2
BRANCH   1  20
ATOM     20  C   UNL     1       5.814   1.364   7.098  0.00  0.00    +0.002 C 
BRANCH  20  21
ATOM     21  C   UNL     1       7.277   1.646   6.750  0.00  0.00    +0.009 C 
BRANCH  21  22
ATOM     22  C   UNL     1       7.934   2.415   7.898  0.00  0.00    +0.096 C 
BRANCH  22  23
ATOM     23  C   UNL     1       9.375   2.693   7.555  0.00  0.00    +0.213 C 
ATOM     24  O   UNL     1       9.831   2.314   6.497  0.00  0.00    -0.276 OA
ATOM     25  N   UNL     1      10.157   3.364   8.424  0.00  0.00    -0.315 N 
ATOM     26  H   UNL     1       9.793   3.667   9.270  0.00  0.00    +0.149 HD
BRANCH  25  27
ATOM     27  C   UNL     1      11.558   3.635   8.091  0.00  0.00    +0.108 C 
BRANCH  27  28
ATOM     28  C   UNL     1      12.216   4.403   9.239  0.00  0.00    +0.052 C 
BRANCH  28  29
ATOM     29  C   UNL     1      13.657   4.682   8.896  0.00  0.00    -0.040 C 
ATOM     30  C   UNL     1      14.157   5.809   8.341  0.00  0.00    -0.001 A 
ATOM     31  C   UNL     1      13.534   7.064   7.905  0.00  0.00    +0.010 A 
ATOM     32  C   UNL     1      14.313   8.033   7.373  0.00  0.00    +0.001 A 
ATOM     33  C   UNL     1      15.697   7.869   7.227  0.00  0.00    +0.002 A 
ATOM     34  C   UNL     1      16.342   6.744   7.603  0.00  0.00    +0.026 A 
ATOM     35  C   UNL     1      15.621   5.660   8.176  0.00  0.00    +0.043 A 
ATOM     36  N   UNL     1      16.010   4.487   8.612  0.00  0.00    -0.380 N 
ATOM     37  C   UNL     1      14.837   3.760   9.109  0.00  0.00    +0.144 C 
ATOM     38  H   UNL     1      16.922   4.156   8.610  0.00  0.00    +0.160 HD
ENDBRANCH  28  29
ENDBRANCH  27  28
ENDBRANCH  25  27
ENDBRANCH  22  23
ENDBRANCH  21  22
ENDBRANCH  20  21
ENDBRANCH   1  20
TORSDOF 11
