REMARK  Name = ZINC09350508
REMARK  13 active torsions:
REMARK  status: ('A' for Active; 'I' for Inactive)
REMARK    1  A    between atoms: C_1  and  C_2
REMARK    2  A    between atoms: C_8  and  N_10
REMARK    3  A    between atoms: C_11  and  C_13
REMARK    4  A    between atoms: C_13  and  S_14
REMARK    5  A    between atoms: S_14  and  C_15
REMARK    6  A    between atoms: C_18  and  C_24
REMARK    7  A    between atoms: N_19  and  C_20
REMARK    8  A    between atoms: C_20  and  C_21
REMARK    9  A    between atoms: C_21  and  O_22
REMARK   10  A    between atoms: O_22  and  C_23
REMARK   11  A    between atoms: C_24  and  O_25
REMARK   12  A    between atoms: O_25  and  C_26
REMARK   13  A    between atoms: C_31  and  C_32
REMARK                            x       y       z     vdW  Elec       q    Type
REMARK                         _______ _______ _______ _____ _____    ______ ____
ROOT
ATOM      1  C   UNL     1       0.002  -0.004   0.002  0.00  0.00    +0.192 A 
ATOM      2  N   UNL     1       1.262  -0.371  -0.012  0.00  0.00    -0.122 NA
ATOM      3  N   UNL     1       2.020   0.667  -0.014  0.00  0.00    -0.130 NA
ATOM      4  C   UNL     1       1.295   1.749  -0.001  0.00  0.00    +0.172 A 
ATOM      5  N   UNL     1      -0.016   1.361   0.009  0.00  0.00    -0.301 N 
ENDROOT
BRANCH   1   6
ATOM      6  S   UNL     1      -1.400  -1.071   0.009  0.00  0.00    -0.077 S 
BRANCH   6   7
ATOM      7  C   UNL     1      -0.571  -2.680  -0.007  0.00  0.00    +0.173 C 
BRANCH   7   9
ATOM      8  N   UNL     1      -1.216  -5.068  -0.014  0.00  0.00    -0.312 N 
ATOM      9  C   UNL     1      -1.604  -3.777  -0.004  0.00  0.00    +0.224 C 
ATOM     10  O   UNL     1      -2.784  -3.499   0.009  0.00  0.00    -0.275 OA
ATOM     11  H   UNL     1      -0.272  -5.290  -0.024  0.00  0.00    +0.149 HD
BRANCH   8  18
ATOM     12  C   UNL     1      -1.196  -7.106  -2.072  0.00  0.00    +0.009 C 
ATOM     13  C   UNL     1      -1.623  -7.399  -0.632  0.00  0.00    +0.006 C 
ATOM     14  C   UNL     1      -0.406  -7.842   0.181  0.00  0.00    +0.005 C 
ATOM     15  C   UNL     1      -0.834  -8.135   1.621  0.00  0.00    +0.000 C 
ATOM     16  C   UNL     1      -1.431  -6.870   2.243  0.00  0.00    +0.002 C 
ATOM     17  C   UNL     1      -2.648  -6.428   1.429  0.00  0.00    +0.022 C 
ATOM     18  C   UNL     1      -2.220  -6.135  -0.011  0.00  0.00    +0.076 C 
ENDBRANCH   8  18
ENDBRANCH   7   9
ENDBRANCH   6   7
ENDBRANCH   1   6
BRANCH   5  19
ATOM     19  C   UNL     1      -1.196   2.230   0.020  0.00  0.00    +0.153 C 
BRANCH  19  20
ATOM     20  C   UNL     1      -1.599   2.525   1.466  0.00  0.00    +0.181 C 
BRANCH  20  21
ATOM     21  O   UNL     1      -2.750   3.372   1.477  0.00  0.00    -0.381 OA
ATOM     22  C   UNL     1      -3.211   3.710   2.786  0.00  0.00    +0.194 C 
ENDBRANCH  20  21
ENDBRANCH  19  20
ENDBRANCH   5  19
BRANCH   4  23
ATOM     23  C   UNL     1       1.806   3.167   0.001  0.00  0.00    +0.305 C 
BRANCH  23  24
ATOM     24  O   UNL     1       1.981   3.608   1.349  0.00  0.00    -0.484 OA
BRANCH  24  25
ATOM     25  C   UNL     1       2.440   4.874   1.529  0.00  0.00    +0.129 A 
ATOM     26  C   UNL     1       2.717   5.676   0.432  0.00  0.00    +0.046 A 
ATOM     27  C   UNL     1       3.184   6.963   0.617  0.00  0.00    +0.004 A 
ATOM     28  C   UNL     1       3.377   7.460   1.894  0.00  0.00    +0.001 A 
ATOM     29  C   UNL     1       3.104   6.673   2.994  0.00  0.00    +0.012 A 
ATOM     30  C   UNL     1       2.629   5.375   2.820  0.00  0.00    +0.024 A 
BRANCH  30  31
ATOM     31  C   UNL     1       2.329   4.527   3.999  0.00  0.00    -0.014 A 
ATOM     32  C   UNL     1       1.105   3.867   4.093  0.00  0.00    +0.008 A 
ATOM     33  C   UNL     1       0.834   3.075   5.191  0.00  0.00    +0.001 A 
ATOM     34  C   UNL     1       1.769   2.945   6.201  0.00  0.00    +0.000 A 
ATOM     35  C   UNL     1       2.984   3.601   6.115  0.00  0.00    +0.001 A 
ATOM     36  C   UNL     1       3.268   4.391   5.020  0.00  0.00    +0.008 A 
ENDBRANCH  30  31
ENDBRANCH  24  25
ENDBRANCH  23  24
ENDBRANCH   4  23
TORSDOF 11
