REMARK  Name = ZINC37744361
REMARK  4 active torsions:
REMARK  status: ('A' for Active; 'I' for Inactive)
REMARK    1  A    between atoms: C_4  and  N_17
REMARK    2  A    between atoms: C_6  and  N_7
REMARK    3  A    between atoms: N_7  and  S_8
REMARK    4  A    between atoms: S_8  and  C_11
REMARK                            x       y       z     vdW  Elec       q    Type
REMARK                         _______ _______ _______ _____ _____    ______ ____
ROOT
ATOM      1  C   UNL     1      -0.017   1.385   0.010  0.00  0.00    +0.028 A 
ATOM      2  C   UNL     1       1.170   2.094   0.002  0.00  0.00    +0.024 A 
ATOM      3  C   UNL     1       2.378   1.424  -0.013  0.00  0.00    +0.062 A 
ATOM      4  C   UNL     1       2.404   0.033  -0.021  0.00  0.00    +0.045 A 
ATOM      5  C   UNL     1       1.214  -0.680  -0.013  0.00  0.00    +0.050 A 
ATOM      6  C   UNL     1       0.002  -0.004   0.002  0.00  0.00    +0.076 A 
ATOM      7 CL   UNL     1       3.866   2.318  -0.023  0.00  0.00    -0.082 Cl
ENDROOT
BRANCH   4   8
ATOM      8  N   UNL     1       3.626  -0.644  -0.036  0.00  0.00    -0.357 N 
ATOM      9  H   UNL     1       4.457  -0.144  -0.042  0.00  0.00    +0.142 HD
ATOM     10  H   UNL     1       3.643  -1.614  -0.042  0.00  0.00    +0.142 HD
ENDBRANCH   4   8
BRANCH   6  11
ATOM     11  N   UNL     1      -1.198  -0.720   0.010  0.00  0.00    -0.098 NA
BRANCH  11  12
ATOM     12  S   UNL     1      -2.644   0.088   0.029  0.00  0.00    +0.095 S 
ATOM     13  O   UNL     1      -2.717   0.760   1.279  0.00  0.00    -0.148 OA
ATOM     14  O   UNL     1      -2.742   0.774  -1.212  0.00  0.00    -0.148 OA
BRANCH  12  15
ATOM     15  C   UNL     1      -3.919  -1.127   0.035  0.00  0.00    +0.147 A 
ATOM     16  C   UNL     1      -4.503  -1.675  -1.056  0.00  0.00    +0.133 A 
ATOM     17  N   UNL     1      -5.428  -2.559  -0.628  0.00  0.00    -0.283 N 
ATOM     18  H   UNL     1      -6.002  -3.102  -1.191  0.00  0.00    +0.188 HD
ATOM     19  N   UNL     1      -5.412  -2.555   0.772  0.00  0.00    -0.180 NA
ATOM     20  C   UNL     1      -4.504  -1.701   1.169  0.00  0.00    +0.163 A 
ENDBRANCH  12  15
ENDBRANCH  11  12
ENDBRANCH   6  11
TORSDOF 4
