REMARK  Name = ZINC14476174
REMARK  7 active torsions:
REMARK  status: ('A' for Active; 'I' for Inactive)
REMARK    1  A    between atoms: C_1  and  C_2
REMARK    2  A    between atoms: C_2  and  C_3
REMARK    3  A    between atoms: C_3  and  C_4
REMARK    4  A    between atoms: N_6  and  C_7
REMARK    5  A    between atoms: C_20  and  C_23
REMARK    6  A    between atoms: C_25  and  N_30
REMARK    7  A    between atoms: C_28  and  O_29
REMARK                            x       y       z     vdW  Elec       q    Type
REMARK                         _______ _______ _______ _____ _____    ______ ____
ROOT
ATOM      1  C   UNL     1       1.396  -4.060  -2.203  0.00  0.00    +0.039 A 
ATOM      2  C   UNL     1       0.789  -4.722  -1.145  0.00  0.00    +0.025 A 
ATOM      3  C   UNL     1       0.861  -6.099  -1.059  0.00  0.00    +0.023 A 
ATOM      4  C   UNL     1       1.542  -6.815  -2.024  0.00  0.00    +0.062 A 
ATOM      5  C   UNL     1       2.156  -6.154  -3.086  0.00  0.00    +0.052 A 
ATOM      6  C   UNL     1       2.074  -4.778  -3.187  0.00  0.00    +0.003 A 
ATOM      7  C   UNL     1       2.682  -4.018  -4.332  0.00  0.00    +0.050 C 
ATOM      8  C   UNL     1       1.612  -3.099  -4.900  0.00  0.00    -0.023 C 
ATOM      9  C   UNL     1       1.108  -3.602  -5.997  0.00  0.00    -0.030 C 
ATOM     10  C   UNL     1       1.767  -4.922  -6.340  0.00  0.00    +0.033 C 
ATOM     11  C   UNL     1       3.083  -4.913  -5.500  0.00  0.00    +0.029 C 
ATOM     12  C   UNL     1       3.560  -6.289  -5.142  0.00  0.00    +0.109 C 
ATOM     13  N   UNL     1       2.849  -6.898  -4.035  0.00  0.00    -0.335 N 
ATOM     14 CL   UNL     1       1.634  -8.545  -1.913  0.00  0.00    -0.082 Cl
ATOM     15  H   UNL     1       2.867  -7.864  -3.946  0.00  0.00    +0.147 HD
ENDROOT
BRANCH  12  16
ATOM     16  C   UNL     1       3.390  -7.181  -6.345  0.00  0.00    +0.017 A 
ATOM     17  C   UNL     1       2.251  -7.951  -6.480  0.00  0.00    +0.041 A 
ATOM     18  C   UNL     1       2.094  -8.769  -7.583  0.00  0.00    +0.127 A 
ATOM     19  C   UNL     1       3.077  -8.819  -8.555  0.00  0.00    +0.036 A 
ATOM     20  C   UNL     1       4.218  -8.052  -8.424  0.00  0.00    +0.048 A 
ATOM     21  C   UNL     1       4.375  -7.225  -7.321  0.00  0.00    +0.122 A 
BRANCH  18  22
ATOM     22  N   UNL     1       0.873  -9.593  -7.725  0.00  0.00    +0.056 N 
ATOM     23  O   UNL     1       0.013  -9.550  -6.876  0.00  0.00    -0.126 OA
ATOM     24  O   UNL     1       0.735 -10.309  -8.689  0.00  0.00    -0.126 OA
ENDBRANCH  18  22
BRANCH  21  25
ATOM     25  O   UNL     1       5.494  -6.465  -7.193  0.00  0.00    -0.506 OA
ATOM     26  H   UNL     1       6.217  -6.904  -6.724  0.00  0.00    +0.292 HD
ENDBRANCH  21  25
ENDBRANCH  12  16
BRANCH   1  29
ATOM     27  C   UNL     1       0.304  -2.008  -1.694  0.00  0.00    +0.217 C 
ATOM     28  O   UNL     1      -0.599  -2.630  -1.176  0.00  0.00    -0.275 OA
ATOM     29  N   UNL     1       1.322  -2.665  -2.285  0.00  0.00    -0.285 N 
ATOM     30  H   UNL     1       2.002  -2.171  -2.768  0.00  0.00    +0.155 HD
BRANCH  27  31
ATOM     31  C   UNL     1       0.289  -0.501  -1.675  0.00  0.00    +0.096 C 
BRANCH  31  33
ATOM     32  C   UNL     1      -0.980   1.518  -0.930  0.00  0.00    +0.004 C 
ATOM     33  C   UNL     1      -0.965  -0.012  -0.948  0.00  0.00    +0.006 C 
ENDBRANCH  31  33
ENDBRANCH  27  31
ENDBRANCH   1  29
TORSDOF 6
