REMARK  Name = ZINC38610423
REMARK  13 active torsions:
REMARK  status: ('A' for Active; 'I' for Inactive)
REMARK    1  A    between atoms: C_1  and  C_2
REMARK    2  A    between atoms: C_6  and  N_9
REMARK    3  A    between atoms: C_7  and  C_8
REMARK    4  A    between atoms: N_12  and  C_15
REMARK    5  A    between atoms: C_15  and  C_16
REMARK    6  A    between atoms: N_18  and  C_19
REMARK    7  A    between atoms: C_22  and  O_35
REMARK    8  A    between atoms: C_23  and  O_33
REMARK    9  A    between atoms: C_27  and  C_29
REMARK   10  A    between atoms: C_29  and  O_31
REMARK   11  A    between atoms: O_31  and  C_32
REMARK   12  A    between atoms: O_33  and  C_34
REMARK   13  A    between atoms: O_35  and  C_36
REMARK                            x       y       z     vdW  Elec       q    Type
REMARK                         _______ _______ _______ _____ _____    ______ ____
ROOT
ATOM      1  C   UNL     1       1.211  -3.588   7.421  0.00  0.00    +0.231 C 
ATOM      2  O   UNL     1       2.065  -4.023   6.679  0.00  0.00    -0.274 OA
ATOM      3  N   UNL     1       1.338  -3.735   8.755  0.00  0.00    -0.285 N 
ATOM      4  H   UNL     1       0.697  -3.319   9.352  0.00  0.00    +0.155 HD
ENDROOT
BRANCH   3   5
ATOM      5  C   UNL     1       2.370  -4.469   9.265  0.00  0.00    +0.053 C 
ATOM      6  C   UNL     1       2.720  -4.602  10.595  0.00  0.00    +0.021 A 
ATOM      7  C   UNL     1       2.169  -4.061  11.785  0.00  0.00    +0.061 A 
ATOM      8  C   UNL     1       2.727  -4.365  12.983  0.00  0.00    +0.162 A 
ATOM      9  C   UNL     1       3.849  -5.210  13.077  0.00  0.00    +0.163 A 
ATOM     10  C   UNL     1       4.425  -5.761  11.974  0.00  0.00    +0.075 A 
ATOM     11  C   UNL     1       3.894  -5.487  10.690  0.00  0.00    +0.049 A 
ATOM     12  N   UNL     1       4.264  -5.891   9.490  0.00  0.00    -0.367 N 
ATOM     13  C   UNL     1       3.360  -5.311   8.492  0.00  0.00    +0.234 C 
ATOM     14  H   UNL     1       5.011  -6.479   9.299  0.00  0.00    +0.161 HD
BRANCH  13  15
ATOM     15  C   UNL     1       2.640  -6.402   7.742  0.00  0.00    +0.335 C 
ATOM     16  O   UNL     1       2.457  -7.475   8.266  0.00  0.00    -0.248 OA
BRANCH  15  17
ATOM     17  O   UNL     1       2.203  -6.182   6.492  0.00  0.00    -0.466 OA
ATOM     18  C   UNL     1       1.529  -7.261   5.841  0.00  0.00    +0.280 C 
ENDBRANCH  15  17
ENDBRANCH  13  15
BRANCH   9  19
ATOM     19  O   UNL     1       4.371  -5.482  14.300  0.00  0.00    -0.491 OA
ATOM     20  C   UNL     1       5.509  -6.345  14.342  0.00  0.00    +0.277 C 
ENDBRANCH   9  19
BRANCH   8  21
ATOM     21  O   UNL     1       2.192  -3.841  14.118  0.00  0.00    -0.491 OA
ATOM     22  C   UNL     1       1.054  -2.989  13.966  0.00  0.00    +0.277 C 
ENDBRANCH   8  21
ENDBRANCH   3   5
BRANCH   1  23
ATOM     23  C   UNL     1       0.007  -2.881   6.853  0.00  0.00    +0.180 C 
BRANCH  23  27
ATOM     24  N   UNL     1       0.134  -1.855   2.785  0.00  0.00    -0.327 N 
ATOM     25  C   UNL     1      -1.076  -2.542   3.264  0.00  0.00    +0.120 C 
ATOM     26  C   UNL     1      -1.153  -2.387   4.786  0.00  0.00    +0.104 C 
ATOM     27  N   UNL     1       0.104  -2.852   5.387  0.00  0.00    -0.291 NA
ATOM     28  C   UNL     1       1.239  -2.029   4.951  0.00  0.00    +0.104 C 
ATOM     29  C   UNL     1       1.416  -2.173   3.431  0.00  0.00    +0.120 C 
BRANCH  24  35
ATOM     30  C   UNL     1      -0.447   2.787   1.279  0.00  0.00    +0.044 C 
ATOM     31  C   UNL     1      -0.214   1.328   0.982  0.00  0.00    -0.046 A 
ATOM     32  C   UNL     1      -0.065   0.904  -0.327  0.00  0.00    +0.004 A 
ATOM     33  C   UNL     1       0.148  -0.433  -0.604  0.00  0.00    +0.002 A 
ATOM     34  C   UNL     1       0.215  -1.351   0.426  0.00  0.00    +0.023 A 
ATOM     35  C   UNL     1       0.067  -0.929   1.741  0.00  0.00    +0.033 A 
ATOM     36  C   UNL     1      -0.142   0.416   2.016  0.00  0.00    -0.027 A 
ATOM     37  C   UNL     1      -0.298   0.879   3.442  0.00  0.00    +0.046 C 
ENDBRANCH  24  35
ENDBRANCH  23  27
ENDBRANCH   1  23
TORSDOF 8
