REMARK  Name = ZINC05589758
REMARK  5 active torsions:
REMARK  status: ('A' for Active; 'I' for Inactive)
REMARK    1  A    between atoms: C_4  and  N_7
REMARK    2  A    between atoms: N_7  and  C_8
REMARK    3  A    between atoms: C_8  and  C_10
REMARK    4  A    between atoms: N_12  and  C_13
REMARK    5  A    between atoms: C_14  and  C_22
REMARK                            x       y       z     vdW  Elec       q    Type
REMARK                         _______ _______ _______ _____ _____    ______ ____
ROOT
ATOM      1  C   UNL     1      -2.439   0.703  -0.227  0.00  0.00    +0.270 C 
ATOM      2  O   UNL     1      -2.394  -0.427   0.216  0.00  0.00    -0.268 OA
ATOM      3  N   UNL     1      -3.621   1.234  -0.597  0.00  0.00    -0.274 N 
ATOM      4  H   UNL     1      -3.658   2.137  -0.951  0.00  0.00    +0.156 HD
ENDROOT
BRANCH   3   5
ATOM      5  C   UNL     1      -4.783   0.493  -0.471  0.00  0.00    +0.085 A 
ATOM      6  C   UNL     1      -6.083   0.865  -0.788  0.00  0.00    +0.068 A 
ATOM      7  C   UNL     1      -7.135  -0.111  -0.562  0.00  0.00    -0.023 A 
ATOM      8  C   UNL     1      -6.724  -1.291  -0.048  0.00  0.00    -0.004 A 
ATOM      9  S   UNL     1      -4.970  -1.122   0.129  0.00  0.00    -0.077 S 
ATOM     10  C   UNL     1      -7.577  -2.474   0.293  0.00  0.00    +0.043 C 
ATOM     11  C   UNL     1      -9.044  -2.019   0.323  0.00  0.00    +0.005 C 
ATOM     12  C   UNL     1      -9.332  -1.201  -0.939  0.00  0.00    +0.005 C 
ATOM     13  C   UNL     1      -8.606   0.143  -0.865  0.00  0.00    +0.037 C 
BRANCH   6  14
ATOM     14  C   UNL     1      -6.381   2.192  -1.336  0.00  0.00    +0.244 C 
ATOM     15  O   UNL     1      -6.374   2.370  -2.540  0.00  0.00    -0.270 OA
ATOM     16  N   UNL     1      -6.665   3.215  -0.505  0.00  0.00    -0.325 N 
ATOM     17  H   UNL     1      -6.671   3.074   0.454  0.00  0.00    +0.145 HD
ATOM     18  H   UNL     1      -6.862   4.093  -0.868  0.00  0.00    +0.145 HD
ENDBRANCH   6  14
ENDBRANCH   3   5
BRANCH   1  19
ATOM     19  C   UNL     1      -1.193   1.498  -0.362  0.00  0.00    +0.139 C 
ATOM     20  S   UNL     1      -1.257   3.090  -0.987  0.00  0.00    -0.030 S 
BRANCH  19  21
ATOM     21  N   UNL     1      -0.011   0.966   0.007  0.00  0.00    -0.305 N 
ATOM     22  H   UNL     1       0.034   0.043   0.303  0.00  0.00    +0.153 HD
BRANCH  21  26
ATOM     23  C   UNL     1       3.449   3.278  -0.139  0.00  0.00    +0.000 A 
ATOM     24  C   UNL     1       3.189   2.494   0.971  0.00  0.00    +0.002 A 
ATOM     25  C   UNL     1       2.043   1.726   1.022  0.00  0.00    +0.023 A 
ATOM     26  C   UNL     1       1.149   1.742  -0.042  0.00  0.00    +0.032 A 
ATOM     27  C   UNL     1       1.416   2.526  -1.157  0.00  0.00    +0.023 A 
ATOM     28  C   UNL     1       2.562   3.296  -1.200  0.00  0.00    +0.002 A 
ENDBRANCH  21  26
ENDBRANCH  19  21
ENDBRANCH   1  19
TORSDOF 5
