REMARK  Name = ZINC46581948
REMARK  7 active torsions:
REMARK  status: ('A' for Active; 'I' for Inactive)
REMARK    1  A    between atoms: C_1  and  C_2
REMARK    2  A    between atoms: C_5  and  N_9
REMARK    3  A    between atoms: C_7  and  C_8
REMARK    4  A    between atoms: C_13  and  S_15
REMARK    5  A    between atoms: S_15  and  C_16
REMARK    6  A    between atoms: C_16  and  C_17
REMARK    7  A    between atoms: C_17  and  N_18
REMARK                            x       y       z     vdW  Elec       q    Type
REMARK                         _______ _______ _______ _____ _____    ______ ____
ROOT
ATOM      1  N   UNL     1       0.058  -4.168  -0.021  0.00  0.00    -0.292 N 
ATOM      2  C   UNL     1      -0.044  -4.858  -1.224  0.00  0.00    +0.187 A 
ATOM      3  N   UNL     1      -0.069  -4.389  -2.456  0.00  0.00    -0.125 NA
ATOM      4  N   UNL     1      -0.176  -5.259  -3.517  0.00  0.00    -0.133 NA
ATOM      5  C   UNL     1      -0.252  -6.557  -3.296  0.00  0.00    +0.160 A 
ATOM      6  S   UNL     1      -0.167  -6.616  -1.513  0.00  0.00    -0.024 S 
ATOM      7  H   UNL     1       0.149  -4.656   0.812  0.00  0.00    +0.154 HD
ENDROOT
BRANCH   1  12
ATOM      8  C   UNL     1      -0.061   1.502   0.015  0.00  0.00    +0.044 C 
ATOM      9  C   UNL     1      -0.029  -0.005   0.005  0.00  0.00    -0.047 A 
ATOM     10  C   UNL     1      -0.622  -0.701  -1.032  0.00  0.00    +0.005 A 
ATOM     11  C   UNL     1      -0.595  -2.081  -1.044  0.00  0.00    +0.023 A 
ATOM     12  C   UNL     1       0.029  -2.771  -0.012  0.00  0.00    +0.033 A 
ATOM     13  C   UNL     1       0.624  -2.069   1.028  0.00  0.00    +0.027 A 
ATOM     14  C   UNL     1       0.598  -0.688   1.031  0.00  0.00    -0.046 A 
ATOM     15  C   UNL     1       1.248   0.075   2.156  0.00  0.00    +0.044 C 
ENDBRANCH   1  12
BRANCH   5  16
ATOM     16  S   UNL     1      -0.394  -7.880  -4.452  0.00  0.00    -0.095 S 
BRANCH  16  17
ATOM     17  C   UNL     1      -0.412  -7.053  -6.066  0.00  0.00    +0.098 C 
BRANCH  17  18
ATOM     18  C   UNL     1      -0.533  -8.100  -7.175  0.00  0.00    +0.139 C 
BRANCH  18  19
ATOM     19  N   UNL     1      -0.547  -7.432  -8.478  0.00  0.00    -0.273 N 
ATOM     20  C   UNL     1      -1.676  -6.976  -9.159  0.00  0.00    +0.090 A 
ATOM     21  C   UNL     1      -3.032  -6.992  -8.871  0.00  0.00    +0.030 A 
ATOM     22  C   UNL     1      -3.931  -6.448  -9.768  0.00  0.00    +0.002 A 
ATOM     23  C   UNL     1      -3.481  -5.887 -10.950  0.00  0.00    +0.004 A 
ATOM     24  C   UNL     1      -2.131  -5.866 -11.243  0.00  0.00    +0.048 A 
ATOM     25  C   UNL     1      -1.222  -6.410 -10.350  0.00  0.00    +0.157 A 
ATOM     26  O   UNL     1       0.128  -6.532 -10.364  0.00  0.00    -0.407 OA
ATOM     27  C   UNL     1       0.528  -7.141  -9.237  0.00  0.00    +0.421 A 
ATOM     28  O   UNL     1       1.682  -7.393  -8.946  0.00  0.00    -0.223 OA
ENDBRANCH  18  19
ENDBRANCH  17  18
ENDBRANCH  16  17
ENDBRANCH   5  16
TORSDOF 5
