REMARK  Name = ZINC34928675
REMARK  2 active torsions:
REMARK  status: ('A' for Active; 'I' for Inactive)
REMARK    1  A    between atoms: C_5  and  C_6
REMARK    2  A    between atoms: CA_15  and  C_18
REMARK                            x       y       z     vdW  Elec       q    Type
REMARK                         _______ _______ _______ _____ _____    ______ ____
ROOT
ATOM      1  C   UNL     1      -1.286  -0.786   0.011  0.00  0.00    +0.134 C 
ATOM      2  C   UNL     1      -1.599  -1.265  -1.383  0.00  0.00    +0.060 A 
ATOM      3  C   UNL     1      -2.028  -2.515  -1.669  0.00  0.00    +0.066 A 
ATOM      4  N   UNL     1      -2.205  -2.599  -2.988  0.00  0.00    -0.240 NA
ATOM      5  C   UNL     1      -1.904  -1.449  -3.534  0.00  0.00    +0.197 A 
ATOM      6  N   UNL     1      -1.521  -0.591  -2.560  0.00  0.00    -0.346 N 
ATOM      7  H   UNL     1      -1.244   0.332  -2.680  0.00  0.00    +0.167 HD
ATOM      8  C   UNL     1      -2.247  -3.571  -0.614  0.00  0.00    +0.087 C 
ATOM      9  CA  UNL     1      -2.295  -2.871   0.751  0.00  0.00    +0.174 C 
ATOM     10  N   UNL     1      -1.146  -1.965   0.884  0.00  0.00    -0.292 NA
ATOM     11  H   UNL     1      -0.280  -2.450   0.700  0.00  0.00    +0.124 HD
ENDROOT
BRANCH   1  16
ATOM     12  C   UNL     1      -0.017   1.378   0.010  0.00  0.00    +0.013 A 
ATOM     13  C   UNL     1       1.160   2.051   0.002  0.00  0.00    +0.045 A 
ATOM     14  S   UNL     1       2.348   0.719  -0.017  0.00  0.00    -0.105 S 
ATOM     15  C   UNL     1       1.196  -0.645  -0.013  0.00  0.00    +0.050 A 
ATOM     16  C   UNL     1       0.002  -0.004   0.002  0.00  0.00    -0.018 A 
ENDBRANCH   1  16
BRANCH   9  17
ATOM     17  C   UNL     1      -2.246  -3.904   1.847  0.00  0.00    +0.373 C 
ATOM     18  O   UNL     1      -1.252  -4.006   2.546  0.00  0.00    -0.245 OA
ATOM     19  OXT UNL     1      -3.202  -4.638   2.036  0.00  0.00    -0.245 OA
ENDBRANCH   9  17
TORSDOF 2
