REMARK  Name = ZINC38903717
REMARK  14 active torsions:
REMARK  status: ('A' for Active; 'I' for Inactive)
REMARK    1  A    between atoms: C_1  and  C_2
REMARK    2  A    between atoms: C_2  and  C_3
REMARK    3  A    between atoms: C_3  and  C_5
REMARK    4  A    between atoms: C_3  and  C_12
REMARK    5  A    between atoms: C_5  and  C_6
REMARK    6  A    between atoms: C_12  and  N_13
REMARK    7  A    between atoms: C_14  and  C_16
REMARK    8  A    between atoms: N_21  and  C_23
REMARK    9  A    between atoms: C_23  and  C_24
REMARK   10  A    between atoms: C_26  and  C_29
REMARK   11  A    between atoms: C_32  and  C_35
REMARK   12  A    between atoms: C_35  and  C_36
REMARK   13  A    between atoms: C_35  and  C_37
REMARK   14  A    between atoms: C_35  and  C_38
REMARK                            x       y       z     vdW  Elec       q    Type
REMARK                         _______ _______ _______ _____ _____    ______ ____
ROOT
ATOM      1  C   UNL     1       3.599   3.540  -0.414  0.00  0.00    +0.058 C 
ATOM      2  C   UNL     1       2.709   3.949   0.763  0.00  0.00    +0.009 C 
ATOM      3  C   UNL     1       2.858   5.454   1.004  0.00  0.00    -0.018 C 
ATOM      4  C   UNL     1       4.332   5.782   1.250  0.00  0.00    -0.078 C 
ATOM      5  N   UNL     1       5.126   5.392   0.079  0.00  0.00    +0.386 N 
ATOM      6  C   UNL     1       5.046   3.939  -0.117  0.00  0.00    -0.065 C 
ATOM      7  H   UNL     1       4.769   5.860  -0.740  0.00  0.00    -0.081 HD
ENDROOT
BRANCH   1   9
ATOM      8  N   UNL     1       2.334   1.468  -0.884  0.00  0.00    -0.315 N 
ATOM      9  C   UNL     1       3.519   2.049  -0.611  0.00  0.00    +0.214 C 
ATOM     10  O   UNL     1       4.521   1.371  -0.524  0.00  0.00    -0.276 OA
ATOM     11  H   UNL     1       1.533   2.010  -0.954  0.00  0.00    +0.149 HD
BRANCH   8  12
ATOM     12  C   UNL     1       2.256   0.017  -1.076  0.00  0.00    +0.108 C 
BRANCH  12  13
ATOM     13  C   UNL     1       0.792  -0.398  -1.240  0.00  0.00    +0.010 C 
BRANCH  13  15
ATOM     14  C   UNL     1       0.663  -0.877   1.208  0.00  0.00    +0.004 C 
ATOM     15  C   UNL     1       0.030  -0.100   0.052  0.00  0.00    +0.002 C 
ENDBRANCH  13  15
BRANCH  13  16
ATOM     16  C   UNL     1       0.718  -1.895  -1.544  0.00  0.00    +0.040 C 
BRANCH  16  17
ATOM     17  C   UNL     1      -0.712  -2.280  -1.826  0.00  0.00    -0.047 A 
ATOM     18  C   UNL     1      -1.538  -2.678  -0.792  0.00  0.00    +0.003 A 
ATOM     19  C   UNL     1      -2.849  -3.031  -1.052  0.00  0.00    +0.000 A 
ATOM     20  C   UNL     1      -3.334  -2.985  -2.345  0.00  0.00    +0.000 A 
ATOM     21  C   UNL     1      -2.508  -2.587  -3.379  0.00  0.00    +0.000 A 
ATOM     22  C   UNL     1      -1.198  -2.230  -3.119  0.00  0.00    +0.003 A 
ENDBRANCH  16  17
ENDBRANCH  13  16
ENDBRANCH  12  13
ENDBRANCH   8  12
ENDBRANCH   1   9
BRANCH   5  23
ATOM     23  C   UNL     1       6.528   5.779   0.288  0.00  0.00    +0.022 C 
BRANCH  23  24
ATOM     24  C   UNL     1       6.629   7.282   0.357  0.00  0.00    +0.211 A 
ATOM     25  N   UNL     1       6.539   8.002   1.438  0.00  0.00    -0.193 NA
ATOM     26  C   UNL     1       6.675   9.306   1.136  0.00  0.00    +0.202 A 
ATOM     27  N   UNL     1       6.854   9.419  -0.157  0.00  0.00    -0.056 NA
ATOM     28  O   UNL     1       6.831   8.101  -0.683  0.00  0.00    -0.340 OA
BRANCH  26  29
ATOM     29  C   UNL     1       6.629  10.428   2.106  0.00  0.00    +0.022 A 
ATOM     30  C   UNL     1       6.437  10.174   3.462  0.00  0.00    +0.012 A 
ATOM     31  C   UNL     1       6.395  11.222   4.359  0.00  0.00    +0.005 A 
ATOM     32  C   UNL     1       6.543  12.523   3.914  0.00  0.00    -0.042 A 
ATOM     33  C   UNL     1       6.734  12.781   2.568  0.00  0.00    +0.005 A 
ATOM     34  C   UNL     1       6.784  11.741   1.663  0.00  0.00    +0.012 A 
BRANCH  32  35
ATOM     35  C   UNL     1       6.495  13.663   4.898  0.00  0.00    -0.013 C 
ATOM     36  C   UNL     1       7.613  13.494   5.929  0.00  0.00    +0.015 C 
ATOM     37  C   UNL     1       6.684  14.987   4.154  0.00  0.00    +0.015 C 
ATOM     38  C   UNL     1       5.141  13.666   5.610  0.00  0.00    +0.015 C 
ENDBRANCH  32  35
ENDBRANCH  26  29
ENDBRANCH  23  24
ENDBRANCH   5  23
TORSDOF 10
