REMARK  Name = ZINC04618723
REMARK  5 active torsions:
REMARK  status: ('A' for Active; 'I' for Inactive)
REMARK    1  A    between atoms: C_1  and  C_2
REMARK    2  A    between atoms: C_2  and  O_3
REMARK    3  A    between atoms: O_3  and  C_4
REMARK    4  A    between atoms: C_6  and  C_11
REMARK    5  A    between atoms: C_9  and  O_10
REMARK                            x       y       z     vdW  Elec       q    Type
REMARK                         _______ _______ _______ _____ _____    ______ ____
ROOT
ATOM      1  C   UNL     1      -3.122   0.022   0.028  0.00  0.00    +0.218 C 
ATOM      2  C   UNL     1      -5.246   1.188  -0.249  0.00  0.00    +0.159 C 
ATOM      3  N   UNL     1      -4.695   2.428   0.016  0.00  0.00    -0.259 N 
ATOM      4  C   UNL     1      -3.308   2.507   0.025  0.00  0.00    +0.205 A 
ATOM      5  N   UNL     1      -2.543   1.365   0.022  0.00  0.00    -0.287 N 
ATOM      6  C   UNL     1      -1.224   1.753   0.017  0.00  0.00    +0.072 A 
ATOM      7  C   UNL     1      -0.013   1.076   0.008  0.00  0.00    +0.028 A 
ATOM      8  C   UNL     1       1.172   1.782   0.000  0.00  0.00    +0.002 A 
ATOM      9  C   UNL     1       1.164   3.169   0.009  0.00  0.00    +0.002 A 
ATOM     10  C   UNL     1      -0.026   3.859   0.024  0.00  0.00    +0.030 A 
ATOM     11  C   UNL     1      -1.235   3.161   0.031  0.00  0.00    +0.091 A 
ATOM     12  N   UNL     1      -2.539   3.554   0.043  0.00  0.00    -0.214 NA
ATOM     13  N   UNL     1      -6.591   1.112  -0.520  0.00  0.00    -0.332 N 
ATOM     14  H   UNL     1      -5.250   3.205   0.189  0.00  0.00    +0.158 HD
ATOM     15  H   UNL     1      -7.132   1.917  -0.522  0.00  0.00    +0.145 HD
ATOM     16  H   UNL     1      -7.000   0.253  -0.709  0.00  0.00    +0.145 HD
ATOM     17  N   UNL     1      -4.605   0.012  -0.276  0.00  0.00    -0.337 N 
ATOM     18  H   UNL     1      -5.099  -0.861  -0.495  0.00  0.00    +0.164 HD
ENDROOT
BRANCH   1  21
ATOM     19  C   UNL     1      -1.688  -2.095   2.810  0.00  0.00    +0.162 A 
ATOM     20  C   UNL     1      -1.887  -1.518   1.566  0.00  0.00    +0.057 A 
ATOM     21  C   UNL     1      -2.911  -0.608   1.381  0.00  0.00    -0.001 A 
ATOM     22  C   UNL     1      -3.746  -0.280   2.433  0.00  0.00    +0.011 A 
ATOM     23  C   UNL     1      -3.557  -0.855   3.675  0.00  0.00    +0.049 A 
ATOM     24  C   UNL     1      -2.529  -1.764   3.869  0.00  0.00    +0.158 A 
BRANCH  24  25
ATOM     25  O   UNL     1      -2.341  -2.331   5.090  0.00  0.00    -0.503 OA
ATOM     26  H   UNL     1      -2.829  -3.156   5.220  0.00  0.00    +0.292 HD
ENDBRANCH  24  25
BRANCH  19  27
ATOM     27  O   UNL     1      -0.678  -2.986   2.995  0.00  0.00    -0.489 OA
BRANCH  27  29
ATOM     28  C   UNL     1       1.218  -4.293   2.262  0.00  0.00    +0.048 C 
ATOM     29  C   UNL     1       0.145  -3.278   1.864  0.00  0.00    +0.226 C 
ENDBRANCH  27  29
ENDBRANCH  19  27
ENDBRANCH   1  21
TORSDOF 4
