REMARK  Name = ZINC05121258
REMARK  10 active torsions:
REMARK  status: ('A' for Active; 'I' for Inactive)
REMARK    1  A    between atoms: C_1  and  C_2
REMARK    2  A    between atoms: C_4  and  O_31
REMARK    3  A    between atoms: C_6  and  O_30
REMARK    4  A    between atoms: C_9  and  C_10
REMARK    5  A    between atoms: C_9  and  C_11
REMARK    6  A    between atoms: C_14  and  O_29
REMARK    7  A    between atoms: C_18  and  C_28
REMARK    8  A    between atoms: C_21  and  O_27
REMARK    9  A    between atoms: C_23  and  C_25
REMARK   10  A    between atoms: C_25  and  O_26
REMARK                            x       y       z     vdW  Elec       q    Type
REMARK                         _______ _______ _______ _____ _____    ______ ____
ROOT
ATOM      1  C   UNL     1       2.228  -0.086   1.206  0.00  0.00    +0.013 C 
ATOM      2  C   UNL     1       0.757  -0.494   1.240  0.00  0.00    +0.050 C 
ATOM      3  C   UNL     1       0.139   0.045   2.531  0.00  0.00    +0.152 C 
ATOM      4  C   UNL     1      -1.281  -0.475   2.666  0.00  0.00    +0.102 C 
ATOM      5  C   UNL     1      -2.013  -0.819   1.374  0.00  0.00    +0.042 C 
ATOM      6  C   UNL     1      -2.511   0.317   2.263  0.00  0.00    +0.003 C 
ATOM      7  C   UNL     1      -2.386   1.758   1.786  0.00  0.00    +0.014 C 
ATOM      8  C   UNL     1      -3.797   0.039   3.069  0.00  0.00    +0.014 C 
ATOM      9  C   UNL     1      -1.413  -0.539   0.013  0.00  0.00    +0.051 C 
ATOM     10  C   UNL     1       0.002  -0.004   0.002  0.00  0.00    +0.087 C 
ATOM     11  C   UNL     1       0.736  -0.478  -1.244  0.00  0.00    +0.084 C 
ATOM     12  C   UNL     1       1.853   0.443  -1.677  0.00  0.00    -0.011 C 
ATOM     13  C   UNL     1       1.966   0.390  -3.009  0.00  0.00    -0.009 C 
ATOM     14  C   UNL     1       0.957  -0.516  -3.571  0.00  0.00    +0.191 C 
ATOM     15  O   UNL     1       0.980  -1.122  -4.611  0.00  0.00    -0.289 OA
ATOM     16  C   UNL     1      -0.151  -0.513  -2.504  0.00  0.00    +0.140 C 
ATOM     17  C   UNL     1      -0.862   0.835  -2.644  0.00  0.00    +0.076 C 
ATOM     18  C   UNL     1      -2.182   0.817  -1.944  0.00  0.00    -0.045 C 
ATOM     19  C   UNL     1      -2.394   0.197  -0.834  0.00  0.00    -0.019 C 
ATOM     20  C   UNL     1       2.984   1.149  -3.813  0.00  0.00    +0.047 C 
ENDROOT
BRANCH  16  21
ATOM     21  O   UNL     1      -1.006  -1.642  -2.606  0.00  0.00    -0.380 OA
ATOM     22  H   UNL     1      -1.483  -1.700  -3.445  0.00  0.00    +0.211 HD
ENDBRANCH  16  21
BRANCH  10  23
ATOM     23  O   UNL     1      -0.017   1.424   0.010  0.00  0.00    -0.387 OA
ATOM     24  H   UNL     1       0.861   1.829   0.004  0.00  0.00    +0.210 HD
ENDBRANCH  10  23
BRANCH   4  25
ATOM     25  O   UNL     1      -1.459  -1.412   3.748  0.00  0.00    -0.385 OA
ATOM     26  H   UNL     1      -0.985  -1.174   4.556  0.00  0.00    +0.210 HD
ENDBRANCH   4  25
BRANCH   3  27
ATOM     27  O   UNL     1       0.243   1.458   2.611  0.00  0.00    -0.389 OA
ATOM     28  H   UNL     1       1.147   1.791   2.525  0.00  0.00    +0.210 HD
ENDBRANCH   3  27
BRANCH  18  29
ATOM     29  C   UNL     1      -3.326   1.570  -2.572  0.00  0.00    +0.186 C 
BRANCH  29  30
ATOM     30  O   UNL     1      -4.491   1.434  -1.756  0.00  0.00    -0.391 OA
ATOM     31  H   UNL     1      -5.269   1.895  -2.101  0.00  0.00    +0.210 HD
ENDBRANCH  29  30
ENDBRANCH  18  29
TORSDOF 6
