REMARK  Name = ZINC28908604
REMARK  9 active torsions:
REMARK  status: ('A' for Active; 'I' for Inactive)
REMARK    1  A    between atoms: C_1  and  C_2
REMARK    2  A    between atoms: C_5  and  C_8
REMARK    3  A    between atoms: C_10  and  C_13
REMARK    4  A    between atoms: C_13  and  S_14
REMARK    5  A    between atoms: S_14  and  C_15
REMARK    6  A    between atoms: C_15  and  C_17
REMARK    7  A    between atoms: C_15  and  C_18
REMARK    8  A    between atoms: N_20  and  C_21
REMARK    9  A    between atoms: C_26  and  C_27
REMARK                            x       y       z     vdW  Elec       q    Type
REMARK                         _______ _______ _______ _____ _____    ______ ____
ROOT
ATOM      1  S   UNL     1      -1.609  -7.965   2.027  0.00  0.00    -0.139 S 
ENDROOT
BRANCH   1   2
ATOM      2  C   UNL     1      -1.411  -9.381   3.144  0.00  0.00    +0.130 C 
ATOM      3  C   UNL     1      -0.731 -10.529   2.396  0.00  0.00    +0.029 C 
BRANCH   2   4
ATOM      4  C   UNL     1      -2.765  -9.831   3.630  0.00  0.00    +0.230 C 
ATOM      5  O   UNL     1      -3.754  -9.601   2.967  0.00  0.00    -0.274 OA
ATOM      6  N   UNL     1      -2.876 -10.488   4.801  0.00  0.00    -0.284 N 
ATOM      7  H   UNL     1      -2.080 -10.743   5.292  0.00  0.00    +0.155 HD
BRANCH   6   8
ATOM      8  C   UNL     1      -4.142 -10.804   5.308  0.00  0.00    +0.038 A 
ATOM      9  C   UNL     1      -5.247 -10.047   4.941  0.00  0.00    +0.043 A 
ATOM     10  C   UNL     1      -6.495 -10.362   5.444  0.00  0.00    +0.043 A 
ATOM     11  C   UNL     1      -6.644 -11.429   6.312  0.00  0.00    +0.020 A 
ATOM     12  C   UNL     1      -5.545 -12.183   6.680  0.00  0.00    +0.006 A 
ATOM     13  C   UNL     1      -4.295 -11.877   6.176  0.00  0.00    -0.029 A 
ATOM     14  C   UNL     1      -3.099 -12.703   6.572  0.00  0.00    +0.045 C 
ATOM     15 CL   UNL     1      -7.878  -9.418   4.986  0.00  0.00    -0.083 Cl
ENDBRANCH   6   8
ENDBRANCH   2   4
ENDBRANCH   1   2
BRANCH   1  16
ATOM     16  C   UNL     1       0.093  -7.456   1.658  0.00  0.00    +0.168 C 
BRANCH  16  19
ATOM     17  C   UNL     1       0.035  -4.228   0.001  0.00  0.00    +0.202 A 
ATOM     18  N   UNL     1       0.046  -5.020   1.088  0.00  0.00    -0.191 NA
ATOM     19  C   UNL     1       0.072  -6.271   0.727  0.00  0.00    +0.238 A 
ATOM     20  O   UNL     1       0.078  -6.327  -0.611  0.00  0.00    -0.337 OA
ATOM     21  N   UNL     1       0.048  -4.984  -1.069  0.00  0.00    -0.056 NA
BRANCH  17  26
ATOM     22  C   UNL     1      -0.083   1.531   0.042  0.00  0.00    +0.044 C 
ATOM     23  C   UNL     1      -0.052   0.024   0.032  0.00  0.00    -0.050 A 
ATOM     24  C   UNL     1      -0.039  -0.656  -1.173  0.00  0.00    +0.004 A 
ATOM     25  C   UNL     1      -0.011  -2.036  -1.189  0.00  0.00    +0.012 A 
ATOM     26  C   UNL     1       0.005  -2.744   0.011  0.00  0.00    +0.022 A 
ATOM     27  C   UNL     1      -0.009  -2.053   1.222  0.00  0.00    +0.012 A 
ATOM     28  C   UNL     1      -0.031  -0.673   1.226  0.00  0.00    +0.004 A 
ENDBRANCH  17  26
ENDBRANCH  16  19
ENDBRANCH   1  16
TORSDOF 6
