REMARK  Name = ZINC38890320
REMARK  11 active torsions:
REMARK  status: ('A' for Active; 'I' for Inactive)
REMARK    1  A    between atoms: C_1  and  C_2
REMARK    2  A    between atoms: C_2  and  C_3
REMARK    3  A    between atoms: C_3  and  C_5
REMARK    4  A    between atoms: C_3  and  N_6
REMARK    5  A    between atoms: C_7  and  C_9
REMARK    6  A    between atoms: C_14  and  N_15
REMARK    7  A    between atoms: C_16  and  C_18
REMARK    8  A    between atoms: N_23  and  C_25
REMARK    9  A    between atoms: C_25  and  C_26
REMARK   10  A    between atoms: C_28  and  C_31
REMARK   11  A    between atoms: C_34  and  C_37
REMARK                            x       y       z     vdW  Elec       q    Type
REMARK                         _______ _______ _______ _____ _____    ______ ____
ROOT
ATOM      1  C   UNL     1       4.276   0.485   7.075  0.00  0.00    +0.059 C 
ATOM      2  C   UNL     1       2.951   1.247   7.163  0.00  0.00    +0.009 C 
ATOM      3  C   UNL     1       2.323   1.003   8.538  0.00  0.00    -0.018 C 
ATOM      4  C   UNL     1       3.311   1.429   9.626  0.00  0.00    -0.078 C 
ATOM      5  N   UNL     1       4.546   0.646   9.505  0.00  0.00    +0.386 N 
ATOM      6  C   UNL     1       5.192   0.929   8.217  0.00  0.00    -0.065 C 
ATOM      7  H   UNL     1       4.327  -0.337   9.560  0.00  0.00    -0.081 HD
ENDROOT
BRANCH   1   9
ATOM      8  N   UNL     1       4.313   0.473   4.601  0.00  0.00    -0.285 N 
ATOM      9  C   UNL     1       4.940   0.780   5.754  0.00  0.00    +0.219 C 
ATOM     10  O   UNL     1       6.038   1.293   5.729  0.00  0.00    -0.275 OA
ATOM     11  H   UNL     1       3.410   0.118   4.620  0.00  0.00    +0.155 HD
BRANCH   8  17
ATOM     12  C   UNL     1       4.872  -0.307   2.377  0.00  0.00    +0.058 A 
ATOM     13  C   UNL     1       5.522  -0.099   1.158  0.00  0.00    +0.015 A 
ATOM     14  C   UNL     1       6.249   1.054   0.954  0.00  0.00    +0.001 A 
ATOM     15  C   UNL     1       6.338   2.010   1.953  0.00  0.00    +0.002 A 
ATOM     16  C   UNL     1       5.702   1.819   3.162  0.00  0.00    +0.024 A 
ATOM     17  C   UNL     1       4.961   0.665   3.384  0.00  0.00    +0.046 A 
BRANCH  12  19
ATOM     18  N   UNL     1       3.910  -2.415   1.593  0.00  0.00    -0.309 N 
ATOM     19  C   UNL     1       4.092  -1.539   2.601  0.00  0.00    +0.246 C 
ATOM     20  O   UNL     1       3.614  -1.764   3.696  0.00  0.00    -0.270 OA
ATOM     21  H   UNL     1       4.292  -2.235   0.720  0.00  0.00    +0.149 HD
BRANCH  18  22
ATOM     22  C   UNL     1       3.136  -3.638   1.816  0.00  0.00    +0.070 C 
ATOM     23  C   UNL     1       4.049  -4.721   2.396  0.00  0.00    +0.028 C 
BRANCH  22  25
ATOM     24  C   UNL     1       1.545  -3.094  -0.032  0.00  0.00    +0.005 C 
ATOM     25  C   UNL     1       2.552  -4.122   0.487  0.00  0.00    +0.018 C 
ENDBRANCH  22  25
ENDBRANCH  18  22
ENDBRANCH  12  19
ENDBRANCH   8  17
ENDBRANCH   1   9
BRANCH   5  26
ATOM     26  C   UNL     1       5.460   1.003  10.598  0.00  0.00    +0.022 C 
BRANCH  26  27
ATOM     27  C   UNL     1       4.854   0.591  11.915  0.00  0.00    +0.211 A 
ATOM     28  N   UNL     1       5.018  -0.560  12.501  0.00  0.00    -0.193 NA
ATOM     29  C   UNL     1       4.335  -0.589  13.659  0.00  0.00    +0.202 A 
ATOM     30  N   UNL     1       3.726   0.561  13.815  0.00  0.00    -0.056 NA
ATOM     31  O   UNL     1       4.060   1.349  12.682  0.00  0.00    -0.340 OA
BRANCH  29  32
ATOM     32  C   UNL     1       4.280  -1.733  14.604  0.00  0.00    +0.022 A 
ATOM     33  C   UNL     1       4.980  -2.905  14.324  0.00  0.00    +0.012 A 
ATOM     34  C   UNL     1       4.925  -3.965  15.206  0.00  0.00    +0.004 A 
ATOM     35  C   UNL     1       4.176  -3.866  16.365  0.00  0.00    -0.050 A 
ATOM     36  C   UNL     1       3.480  -2.705  16.648  0.00  0.00    +0.004 A 
ATOM     37  C   UNL     1       3.533  -1.636  15.776  0.00  0.00    +0.012 A 
ATOM     38  C   UNL     1       4.120  -5.027  17.324  0.00  0.00    +0.044 C 
ENDBRANCH  29  32
ENDBRANCH  26  27
ENDBRANCH   5  26
TORSDOF 8
