REMARK  Name = ZINC45728136
REMARK  6 active torsions:
REMARK  status: ('A' for Active; 'I' for Inactive)
REMARK    1  A    between atoms: C_3  and  C_15
REMARK    2  A    between atoms: C_6  and  C_7
REMARK    3  A    between atoms: C_7  and  S_8
REMARK    4  A    between atoms: S_8  and  C_9
REMARK    5  A    between atoms: N_17  and  C_18
REMARK    6  A    between atoms: C_21  and  N_25
REMARK                            x       y       z     vdW  Elec       q    Type
REMARK                         _______ _______ _______ _____ _____    ______ ____
ROOT
ATOM      1  C   UNL     1       3.657   2.160  -0.024  0.00  0.00    +0.248 C 
ATOM      2  O   UNL     1       3.643   3.376  -0.026  0.00  0.00    -0.270 OA
ATOM      3  N   UNL     1       4.831   1.499  -0.036  0.00  0.00    -0.281 N 
ATOM      4  H   UNL     1       4.844   0.532   0.033  0.00  0.00    +0.155 HD
ENDROOT
BRANCH   3   5
ATOM      5  C   UNL     1       6.033   2.209  -0.150  0.00  0.00    +0.037 A 
ATOM      6  C   UNL     1       7.094   1.669  -0.865  0.00  0.00    +0.045 A 
ATOM      7  C   UNL     1       8.280   2.369  -0.977  0.00  0.00    +0.065 A 
ATOM      8  C   UNL     1       8.411   3.614  -0.376  0.00  0.00    +0.062 A 
ATOM      9  C   UNL     1       7.349   4.155   0.339  0.00  0.00    +0.065 A 
ATOM     10  C   UNL     1       6.162   3.457   0.447  0.00  0.00    +0.045 A 
ATOM     11 CL   UNL     1       7.512   5.711   1.091  0.00  0.00    -0.082 Cl
ATOM     12 CL   UNL     1       9.606   1.692  -1.870  0.00  0.00    -0.082 Cl
BRANCH   8  13
ATOM     13  N   UNL     1       9.612   4.324  -0.489  0.00  0.00    -0.356 N 
ATOM     14  H   UNL     1      10.354   3.946  -0.988  0.00  0.00    +0.142 HD
ATOM     15  H   UNL     1       9.704   5.194  -0.069  0.00  0.00    +0.142 HD
ENDBRANCH   8  13
ENDBRANCH   3   5
BRANCH   1  18
ATOM     16  C   UNL     1      -0.017   1.379   0.021  0.00  0.00    +0.005 A 
ATOM     17  C   UNL     1       1.167   2.088   0.006  0.00  0.00    +0.013 A 
ATOM     18  C   UNL     1       2.385   1.407  -0.007  0.00  0.00    +0.037 A 
ATOM     19  C   UNL     1       2.397   0.011  -0.004  0.00  0.00    +0.013 A 
ATOM     20  C   UNL     1       1.207  -0.686   0.011  0.00  0.00    +0.005 A 
ATOM     21  C   UNL     1       0.003  -0.005   0.024  0.00  0.00    -0.037 A 
BRANCH  21  22
ATOM     22  C   UNL     1      -1.294  -0.773   0.040  0.00  0.00    +0.112 C 
BRANCH  22  23
ATOM     23  S   UNL     1      -1.834  -1.084  -1.663  0.00  0.00    -0.082 S 
BRANCH  23  24
ATOM     24  C   UNL     1      -3.341  -1.978  -1.476  0.00  0.00    +0.184 A 
ATOM     25  N   UNL     1      -3.905  -2.317  -0.336  0.00  0.00    -0.209 NA
ATOM     26  H   UNL     1      -3.972  -2.330  -3.429  0.00  0.00    +0.191 HD
ATOM     27  C   UNL     1      -5.034  -2.985  -0.574  0.00  0.00    +0.245 A 
ATOM     28  N   UNL     1      -5.210  -3.083  -1.864  0.00  0.00    -0.160 NA
ATOM     29  N   UNL     1      -4.127  -2.431  -2.477  0.00  0.00    -0.254 N 
ENDBRANCH  23  24
ENDBRANCH  22  23
ENDBRANCH  21  22
ENDBRANCH   1  18
TORSDOF 6
