REMARK  Name = ZINC16611164
REMARK  14 active torsions:
REMARK  status: ('A' for Active; 'I' for Inactive)
REMARK    1  A    between atoms: C_1  and  C_2
REMARK    2  A    between atoms: C_2  and  N_3
REMARK    3  A    between atoms: C_4  and  C_36
REMARK    4  A    between atoms: C_5  and  C_30
REMARK    5  A    between atoms: C_6  and  C_11
REMARK    6  A    between atoms: C_15  and  N_17
REMARK    7  A    between atoms: N_20  and  C_21
REMARK    8  A    between atoms: C_26  and  O_27
REMARK    9  A    between atoms: O_27  and  C_28
REMARK   10  A    between atoms: C_28  and  C_29
REMARK   11  A    between atoms: C_30  and  O_32
REMARK   12  A    between atoms: O_32  and  C_33
REMARK   13  A    between atoms: C_33  and  C_34
REMARK   14  A    between atoms: C_33  and  C_35
REMARK                            x       y       z     vdW  Elec       q    Type
REMARK                         _______ _______ _______ _____ _____    ______ ____
ROOT
ATOM      1  C   UNL     1       1.661   4.335   1.234  0.00  0.00    -0.021 A 
ATOM      2  C   UNL     1       1.598   3.652   2.435  0.00  0.00    +0.006 A 
ATOM      3  C   UNL     1       2.239   4.152   3.553  0.00  0.00    +0.002 A 
ATOM      4  C   UNL     1       2.945   5.337   3.474  0.00  0.00    +0.023 A 
ATOM      5  C   UNL     1       3.011   6.025   2.270  0.00  0.00    +0.035 A 
ATOM      6  C   UNL     1       2.370   5.517   1.147  0.00  0.00    +0.029 A 
ENDROOT
BRANCH   1  10
ATOM      7  N   UNL     1      -1.186   2.042   0.015  0.00  0.00    -0.286 N 
ATOM      8  C   UNL     1      -1.460   3.379   0.032  0.00  0.00    +0.021 C 
ATOM      9  C   UNL     1      -0.467   4.295   0.032  0.00  0.00    +0.078 C 
ATOM     10  C   UNL     1       0.961   3.786   0.018  0.00  0.00    +0.141 C 
ATOM     11  N   UNL     1       1.149   2.326   0.006  0.00  0.00    -0.315 N 
ATOM     12  C   UNL     1       0.055   1.539   0.008  0.00  0.00    +0.138 C 
ATOM     13  S   UNL     1       0.258  -0.161  -0.005  0.00  0.00    -0.018 S 
ATOM     14  C   UNL     1      -2.894   3.841   0.046  0.00  0.00    +0.061 C 
ATOM     15  H   UNL     1       2.038   1.940  -0.004  0.00  0.00    +0.149 HD
BRANCH   7  17
ATOM     16  C   UNL     1      -2.784   0.868   1.447  0.00  0.00    +0.025 C 
ATOM     17  C   UNL     1      -2.312   1.106   0.011  0.00  0.00    +0.109 C 
ENDBRANCH   7  17
BRANCH   9  18
ATOM     18  C   UNL     1      -0.749   5.680   0.044  0.00  0.00    +0.339 C 
ATOM     19  O   UNL     1      -1.901   6.067  -0.034  0.00  0.00    -0.245 OA
BRANCH  18  20
ATOM     20  O   UNL     1       0.257   6.574   0.143  0.00  0.00    -0.459 OA
BRANCH  20  21
ATOM     21  C   UNL     1      -0.101   7.957   0.149  0.00  0.00    +0.171 C 
ATOM     22  C   UNL     1      -0.339   8.415   1.589  0.00  0.00    +0.052 C 
ATOM     23  C   UNL     1       1.032   8.780  -0.468  0.00  0.00    +0.052 C 
ENDBRANCH  20  21
ENDBRANCH  18  20
ENDBRANCH   9  18
ENDBRANCH   1  10
BRANCH   5  24
ATOM     24  N   UNL     1       3.725   7.225   2.186  0.00  0.00    -0.269 N 
ATOM     25  C   UNL     1       3.746   8.072   3.235  0.00  0.00    +0.308 C 
ATOM     26  O   UNL     1       3.213   7.756   4.282  0.00  0.00    -0.252 OA
ATOM     27  N   UNL     1       4.356   9.268   3.123  0.00  0.00    -0.266 N 
ATOM     28  H   UNL     1       4.206   7.448   1.374  0.00  0.00    +0.156 HD
ATOM     29  H   UNL     1       4.730   9.544   2.272  0.00  0.00    +0.156 HD
BRANCH  27  30
ATOM     30  C   UNL     1       4.451  10.113   4.238  0.00  0.00    +0.077 A 
ATOM     31  C   UNL     1       3.524  10.016   5.265  0.00  0.00    +0.027 A 
ATOM     32  C   UNL     1       3.622  10.848   6.364  0.00  0.00    +0.002 A 
ATOM     33  C   UNL     1       4.637  11.783   6.440  0.00  0.00    +0.004 A 
ATOM     34  C   UNL     1       5.562  11.889   5.418  0.00  0.00    +0.047 A 
ATOM     35  C   UNL     1       5.474  11.056   4.314  0.00  0.00    +0.142 A 
BRANCH  35  36
ATOM     36  O   UNL     1       6.382  11.159   3.308  0.00  0.00    -0.490 OA
BRANCH  36  37
ATOM     37  C   UNL     1       7.403  12.148   3.454  0.00  0.00    +0.226 C 
ATOM     38  C   UNL     1       8.324  12.115   2.233  0.00  0.00    +0.048 C 
ENDBRANCH  36  37
ENDBRANCH  35  36
ENDBRANCH  27  30
ENDBRANCH   5  24
TORSDOF 9
