REMARK  Name = ZINC03178179
REMARK  6 active torsions:
REMARK  status: ('A' for Active; 'I' for Inactive)
REMARK    1  A    between atoms: C_1  and  O_2
REMARK    2  A    between atoms: O_2  and  C_3
REMARK    3  A    between atoms: C_7  and  N_9
REMARK    4  A    between atoms: C_13  and  C_16
REMARK    5  A    between atoms: C_14  and  N_15
REMARK    6  A    between atoms: C_18  and  C_21
REMARK                            x       y       z     vdW  Elec       q    Type
REMARK                         _______ _______ _______ _____ _____    ______ ____
ROOT
ATOM      1  N   UNL     1      -0.791   1.646   5.973  0.00  0.00    -0.281 N 
ATOM      2  C   UNL     1      -0.392   1.241   7.328  0.00  0.00    +0.191 C 
ATOM      3  C   UNL     1      -1.366   1.944   8.250  0.00  0.00    +0.186 C 
ATOM      4  O   UNL     1      -1.399   1.887   9.464  0.00  0.00    -0.290 OA
ATOM      5  C   UNL     1      -2.224   2.675   7.412  0.00  0.00    +0.087 C 
ATOM      6  C   UNL     1      -1.858   2.485   6.083  0.00  0.00    +0.102 C 
ENDROOT
BRANCH   1  11
ATOM      7  C   UNL     1      -0.256   0.044   2.705  0.00  0.00    +0.122 A 
ATOM      8  C   UNL     1       1.040   0.453   2.424  0.00  0.00    +0.046 A 
ATOM      9  C   UNL     1       1.720   1.262   3.314  0.00  0.00    +0.005 A 
ATOM     10  C   UNL     1       1.116   1.657   4.492  0.00  0.00    +0.024 A 
ATOM     11  C   UNL     1      -0.179   1.246   4.781  0.00  0.00    +0.039 A 
ATOM     12  C   UNL     1      -0.866   0.438   3.885  0.00  0.00    +0.069 A 
BRANCH   7  14
ATOM     13  C   UNL     1      -0.235  -1.115   0.629  0.00  0.00    +0.277 C 
ATOM     14  O   UNL     1      -0.925  -0.748   1.825  0.00  0.00    -0.495 OA
ENDBRANCH   7  14
ENDBRANCH   1  11
BRANCH   5  15
ATOM     15  C   UNL     1      -3.341   3.521   7.872  0.00  0.00    +0.115 A 
ATOM     16  N   UNL     1      -3.759   3.759   9.106  0.00  0.00    -0.239 NA
ATOM     17  C   UNL     1      -4.788   4.557   9.338  0.00  0.00    +0.079 A 
ATOM     18  C   UNL     1      -5.439   5.139   8.285  0.00  0.00    +0.075 A 
ATOM     19  S   UNL     1      -4.495   4.492   6.912  0.00  0.00    -0.075 S 
BRANCH  17  20
ATOM     20  C   UNL     1      -5.237   4.814  10.729  0.00  0.00    +0.001 A 
ATOM     21  C   UNL     1      -6.322   5.656  10.969  0.00  0.00    +0.011 A 
ATOM     22  C   UNL     1      -6.738   5.887  12.264  0.00  0.00    +0.016 A 
ATOM     23  C   UNL     1      -6.075   5.294  13.324  0.00  0.00    +0.018 A 
ATOM     24  C   UNL     1      -4.993   4.462  13.091  0.00  0.00    +0.016 A 
ATOM     25  C   UNL     1      -4.572   4.219  11.799  0.00  0.00    +0.011 A 
ATOM     26 BR   UNL     1      -6.646   5.622  15.096  0.00  0.00    -0.050 Br
ENDBRANCH  17  20
ENDBRANCH   5  15
BRANCH   6  27
ATOM     27  N   UNL     1      -2.492   3.064   5.022  0.00  0.00    -0.346 N 
ATOM     28  H   UNL     1      -2.242   2.822   4.117  0.00  0.00    +0.143 HD
ATOM     29  H   UNL     1      -3.193   3.718   5.173  0.00  0.00    +0.143 HD
ENDBRANCH   6  27
TORSDOF 5
