REMARK  Name = ZINC59640397
REMARK  5 active torsions:
REMARK  status: ('A' for Active; 'I' for Inactive)
REMARK    1  A    between atoms: C_1  and  N_2
REMARK    2  A    between atoms: N_9  and  N_10
REMARK    3  A    between atoms: C_11  and  C_12
REMARK    4  A    between atoms: C_17  and  O_18
REMARK    5  A    between atoms: O_18  and  C_19
REMARK                            x       y       z     vdW  Elec       q    Type
REMARK                         _______ _______ _______ _____ _____    ______ ____
ROOT
ATOM      1  C   UNL     1      -0.018   1.461   0.010  0.00  0.00    +0.127 C 
ATOM      2  N   UNL     1       0.002  -0.004   0.002  0.00  0.00    -0.330 N 
ATOM      3  C   UNL     1       0.602  -0.684  -1.047  0.00  0.00    +0.159 A 
ATOM      4  C   UNL     1       0.622  -2.082  -1.068  0.00  0.00    +0.181 A 
ATOM      5  C   UNL     1       1.231  -2.716  -2.135  0.00  0.00    +0.156 A 
ATOM      6  N   UNL     1       1.774  -1.986  -3.099  0.00  0.00    -0.219 NA
ATOM      7  C   UNL     1       1.740  -0.663  -3.052  0.00  0.00    +0.237 A 
ATOM      8  N   UNL     1       1.161  -0.016  -2.050  0.00  0.00    -0.195 NA
ATOM      9  N   UNL     1       2.320   0.064  -4.079  0.00  0.00    -0.205 N 
ATOM     10  F   UNL     1       0.059  -2.796  -0.069  0.00  0.00    -0.200 F 
ATOM     11  H   UNL     1      -0.404  -0.499   0.731  0.00  0.00    +0.147 HD
ATOM     12  H   UNL     1       2.302   1.034  -4.057  0.00  0.00    +0.177 HD
ENDROOT
BRANCH   9  13
ATOM     13  N   UNL     1       2.932  -0.601  -5.149  0.00  0.00    -0.187 NA
ATOM     14  C   UNL     1       3.475   0.080  -6.112  0.00  0.00    +0.142 C 
BRANCH  14  15
ATOM     15  C   UNL     1       4.120  -0.621  -7.238  0.00  0.00    +0.038 A 
ATOM     16  C   UNL     1       4.710   0.108  -8.272  0.00  0.00    +0.028 A 
ATOM     17  C   UNL     1       5.312  -0.553  -9.324  0.00  0.00    +0.020 A 
ATOM     18  C   UNL     1       5.332  -1.938  -9.357  0.00  0.00    +0.034 A 
ATOM     19  C   UNL     1       4.750  -2.670  -8.339  0.00  0.00    +0.061 A 
ATOM     20  C   UNL     1       4.147  -2.021  -7.273  0.00  0.00    +0.143 A 
ATOM     21 BR   UNL     1       4.783  -4.560  -8.397  0.00  0.00    -0.046 Br
ATOM     22 BR   UNL     1       6.111   0.435 -10.724  0.00  0.00    -0.050 Br
BRANCH  20  23
ATOM     23  O   UNL     1       3.581  -2.740  -6.269  0.00  0.00    -0.493 OA
ATOM     24  C   UNL     1       2.204  -3.089  -6.418  0.00  0.00    +0.277 C 
ENDBRANCH  20  23
ENDBRANCH  14  15
ENDBRANCH   9  13
TORSDOF 3
