REMARK  Name = ZINC01375266
REMARK  14 active torsions:
REMARK  status: ('A' for Active; 'I' for Inactive)
REMARK    1  A    between atoms: C_1  and  C_2
REMARK    2  A    between atoms: C_2  and  C_3
REMARK    3  A    between atoms: C_3  and  C_5
REMARK    4  A    between atoms: C_3  and  N_17
REMARK    5  A    between atoms: N_9  and  C_10
REMARK    6  A    between atoms: C_10  and  C_11
REMARK    7  A    between atoms: N_17  and  C_18
REMARK    8  A    between atoms: N_17  and  C_27
REMARK    9  A    between atoms: C_18  and  C_19
REMARK   10  A    between atoms: C_22  and  O_25
REMARK   11  A    between atoms: O_25  and  C_26
REMARK   12  A    between atoms: C_27  and  C_28
REMARK   13  A    between atoms: C_31  and  C_41
REMARK   14  A    between atoms: C_33  and  C_40
REMARK                            x       y       z     vdW  Elec       q    Type
REMARK                         _______ _______ _______ _____ _____    ______ ____
ROOT
ATOM      1  N   UNL     1       2.131   0.556  -0.979  0.00  0.00    -0.284 NA
ENDROOT
BRANCH   1   2
ATOM      2  C   UNL     1       1.630  -0.811  -0.784  0.00  0.00    +0.127 C 
BRANCH   2   3
ATOM      3  C   UNL     1       1.072  -0.948   0.609  0.00  0.00    +0.169 A 
ATOM      4  N   UNL     1       0.796   0.027   1.441  0.00  0.00    -0.112 NA
ATOM      5  N   UNL     1       0.338  -0.494   2.526  0.00  0.00    -0.023 NA
ATOM      6  N   UNL     1       0.315  -1.776   2.409  0.00  0.00    -0.044 NA
ATOM      7  N   UNL     1       0.755  -2.094   1.239  0.00  0.00    -0.223 N 
BRANCH   7   8
ATOM      8  C   UNL     1       0.888  -3.450   0.699  0.00  0.00    +0.182 C 
BRANCH   8   9
ATOM      9  C   UNL     1       2.253  -3.992   1.035  0.00  0.00    -0.026 A 
ATOM     10  C   UNL     1       3.311  -3.787   0.170  0.00  0.00    +0.005 A 
ATOM     11  C   UNL     1       4.564  -4.285   0.478  0.00  0.00    +0.000 A 
ATOM     12  C   UNL     1       4.758  -4.988   1.652  0.00  0.00    +0.000 A 
ATOM     13  C   UNL     1       3.700  -5.193   2.518  0.00  0.00    +0.000 A 
ATOM     14  C   UNL     1       2.449  -4.691   2.212  0.00  0.00    +0.005 A 
ENDBRANCH   8   9
ENDBRANCH   7   8
ENDBRANCH   2   3
BRANCH   2  16
ATOM     15  C   UNL     1       1.094  -0.958  -3.220  0.00  0.00    +0.006 C 
ATOM     16  C   UNL     1       0.529  -1.102  -1.805  0.00  0.00    +0.023 C 
ENDBRANCH   2  16
ENDBRANCH   1   2
BRANCH   1  17
ATOM     17  C   UNL     1       3.144   0.599  -2.042  0.00  0.00    +0.120 C 
BRANCH  17  18
ATOM     18  C   UNL     1       3.920   1.887  -1.944  0.00  0.00    -0.033 A 
ATOM     19  C   UNL     1       3.587   2.956  -2.756  0.00  0.00    +0.008 A 
ATOM     20  C   UNL     1       4.297   4.138  -2.669  0.00  0.00    +0.046 A 
ATOM     21  C   UNL     1       5.344   4.252  -1.766  0.00  0.00    +0.120 A 
ATOM     22  C   UNL     1       5.675   3.178  -0.952  0.00  0.00    +0.046 A 
ATOM     23  C   UNL     1       4.959   2.000  -1.040  0.00  0.00    +0.008 A 
BRANCH  21  24
ATOM     24  O   UNL     1       6.044   5.414  -1.678  0.00  0.00    -0.495 OA
ATOM     25  C   UNL     1       7.109   5.459  -0.726  0.00  0.00    +0.277 C 
ENDBRANCH  21  24
ENDBRANCH  17  18
ENDBRANCH   1  17
BRANCH   1  26
ATOM     26  C   UNL     1       1.028   1.484  -1.264  0.00  0.00    +0.126 C 
BRANCH  26  27
ATOM     27  C   UNL     1       0.331   1.847   0.021  0.00  0.00    +0.032 A 
ATOM     28  C   UNL     1       0.898   2.742   0.868  0.00  0.00    +0.020 A 
ATOM     29  C   UNL     1       0.195   3.073   2.109  0.00  0.00    +0.002 A 
ATOM     30  C   UNL     1       0.730   3.989   3.021  0.00  0.00    -0.041 A 
ATOM     31  C   UNL     1       0.049   4.276   4.170  0.00  0.00    +0.007 A 
ATOM     32  C   UNL     1      -1.169   3.667   4.440  0.00  0.00    -0.048 A 
ATOM     33  C   UNL     1      -1.715   2.762   3.556  0.00  0.00    +0.029 A 
ATOM     34  C   UNL     1      -1.040   2.454   2.379  0.00  0.00    +0.050 A 
ATOM     35  N   UNL     1      -1.562   1.552   1.477  0.00  0.00    -0.322 N 
ATOM     36  H   UNL     1      -2.413   1.126   1.665  0.00  0.00    +0.169 HD
ATOM     37  C   UNL     1      -0.912   1.258   0.337  0.00  0.00    +0.254 A 
ATOM     38  O   UNL     1      -1.406   0.460  -0.440  0.00  0.00    -0.268 OA
ATOM     39  C   UNL     1      -1.903   4.000   5.714  0.00  0.00    +0.044 C 
ATOM     40  C   UNL     1       2.051   4.655   2.738  0.00  0.00    +0.044 C 
ENDBRANCH  26  27
ENDBRANCH   1  26
TORSDOF 10
