REMARK  Name = ZINC44162848
REMARK  11 active torsions:
REMARK  status: ('A' for Active; 'I' for Inactive)
REMARK    1  A    between atoms: C_1  and  C_2
REMARK    2  A    between atoms: C_2  and  C_3
REMARK    3  A    between atoms: C_5  and  C_9
REMARK    4  A    between atoms: C_11  and  C_14
REMARK    5  A    between atoms: C_16  and  C_25
REMARK    6  A    between atoms: C_17  and  C_24
REMARK    7  A    between atoms: N_18  and  C_19
REMARK    8  A    between atoms: N_30  and  C_33
REMARK    9  A    between atoms: C_33  and  C_34
REMARK   10  A    between atoms: N_36  and  C_37
REMARK   11  A    between atoms: N_36  and  C_38
REMARK                            x       y       z     vdW  Elec       q    Type
REMARK                         _______ _______ _______ _____ _____    ______ ____
ROOT
ATOM      1  C   UNL     1      -6.436  -4.853  -3.193  0.00  0.00    +0.069 A 
ATOM      2  C   UNL     1      -7.478  -4.727  -2.332  0.00  0.00    +0.042 A 
ATOM      3  C   UNL     1      -8.605  -5.328  -2.951  0.00  0.00    +0.058 A 
ATOM      4  C   UNL     1      -8.187  -5.798  -4.177  0.00  0.00    +0.029 A 
ATOM      5  N   UNL     1      -6.878  -5.502  -4.319  0.00  0.00    -0.339 N 
ATOM      6  C   UNL     1      -9.046  -6.512  -5.189  0.00  0.00    +0.064 C 
ENDROOT
BRANCH   3   7
ATOM      7  C   UNL     1      -9.963  -5.431  -2.390  0.00  0.00    +0.248 C 
ATOM      8  O   UNL     1     -10.921  -5.064  -3.043  0.00  0.00    -0.270 OA
ATOM      9  N   UNL     1     -10.144  -5.932  -1.151  0.00  0.00    -0.295 N 
ATOM     10  C   UNL     1     -11.496  -6.146  -0.614  0.00  0.00    +0.123 C 
ATOM     11  C   UNL     1     -11.588  -7.581  -0.085  0.00  0.00    +0.104 C 
ATOM     12  N   UNL     1     -10.496  -7.819   0.868  0.00  0.00    -0.291 NA
ATOM     13  C   UNL     1      -9.185  -7.708   0.215  0.00  0.00    +0.104 C 
ATOM     14  C   UNL     1      -8.995  -6.284  -0.304  0.00  0.00    +0.123 C 
BRANCH  12  15
ATOM     15  C   UNL     1     -10.648  -9.123   1.528  0.00  0.00    +0.180 C 
BRANCH  15  16
ATOM     16  C   UNL     1      -9.663  -9.229   2.663  0.00  0.00    +0.229 C 
ATOM     17  O   UNL     1      -8.909  -8.309   2.900  0.00  0.00    -0.274 OA
ATOM     18  N   UNL     1      -9.620 -10.346   3.416  0.00  0.00    -0.307 N 
ATOM     19  C   UNL     1      -8.662 -10.450   4.520  0.00  0.00    +0.131 C 
ATOM     20  C   UNL     1     -10.530 -11.458   3.129  0.00  0.00    +0.131 C 
ENDBRANCH  15  16
ENDBRANCH  12  15
ENDBRANCH   3   7
BRANCH   1  23
ATOM     21  C   UNL     1      -3.594  -3.012  -1.807  0.00  0.00    +0.109 A 
ATOM     22  N   UNL     1      -4.819  -3.460  -2.033  0.00  0.00    -0.238 NA
ATOM     23  C   UNL     1      -5.058  -4.367  -2.960  0.00  0.00    +0.095 A 
ATOM     24  C   UNL     1      -4.014  -4.857  -3.706  0.00  0.00    +0.077 A 
ATOM     25  S   UNL     1      -2.649  -3.934  -3.011  0.00  0.00    -0.075 S 
BRANCH  21  28
ATOM     26  C   UNL     1      -1.392  -0.716   0.194  0.00  0.00    +0.042 A 
ATOM     27  C   UNL     1      -1.780  -1.657  -0.738  0.00  0.00    +0.034 A 
ATOM     28  C   UNL     1      -3.131  -2.009  -0.824  0.00  0.00    +0.010 A 
ATOM     29  C   UNL     1      -4.033  -1.385   0.046  0.00  0.00    +0.030 A 
ATOM     30  C   UNL     1      -3.558  -0.455   0.947  0.00  0.00    +0.111 A 
ATOM     31  N   UNL     1      -2.274  -0.155   0.999  0.00  0.00    -0.260 NA
BRANCH  26  33
ATOM     32  C   UNL     1       0.194   1.190   0.155  0.00  0.00    +0.010 C 
ATOM     33  C   UNL     1       0.060  -0.327   0.297  0.00  0.00    +0.052 C 
ENDBRANCH  26  33
ENDBRANCH  21  28
ENDBRANCH   1  23
BRANCH   5  34
ATOM     34  C   UNL     1      -6.057  -5.827  -5.488  0.00  0.00    +0.088 C 
ATOM     35  C   UNL     1      -6.785  -5.400  -6.779  0.00  0.00    +0.025 C 
ATOM     36  C   UNL     1      -6.436  -6.513  -7.798  0.00  0.00    +0.002 C 
ATOM     37  C   UNL     1      -6.462  -7.794  -6.927  0.00  0.00    +0.002 C 
ATOM     38  C   UNL     1      -5.852  -7.349  -5.582  0.00  0.00    +0.025 C 
ENDBRANCH   5  34
TORSDOF 7
