REMARK  Name = ZINC12210994
REMARK  5 active torsions:
REMARK  status: ('A' for Active; 'I' for Inactive)
REMARK    1  A    between atoms: CB_1  and  CA_2
REMARK    2  A    between atoms: CA_2  and  C_4
REMARK    3  A    between atoms: CA_2  and  N_6
REMARK    4  A    between atoms: C_14  and  S_16
REMARK    5  A    between atoms: S_16  and  C_17
REMARK                            x       y       z     vdW  Elec       q    Type
REMARK                         _______ _______ _______ _____ _____    ______ ____
ROOT
ATOM      1  N   ALA A   1       0.688  -0.476  -1.203  0.00  0.00    -0.316 N 
ATOM      2  C   UNK A   0       2.066  -0.590  -1.215  0.00  0.00    +0.132 A 
ATOM      3  C   UNK A   0       2.732  -1.147  -2.343  0.00  0.00    +0.051 A 
ATOM      4  C   UNK A   0       2.154  -1.661  -3.586  0.00  0.00    -0.025 A 
ATOM      5  C   UNK A   0       3.013  -2.141  -4.508  0.00  0.00    -0.004 A 
ATOM      6  S   UNK A   0       4.621  -1.942  -3.789  0.00  0.00    -0.073 S 
ATOM      7  C   UNK A   0       4.136  -1.213  -2.247  0.00  0.00    +0.115 A 
ATOM      8  N   UNK A   0       4.777  -0.784  -1.177  0.00  0.00    -0.215 NA
ATOM      9  C   UNK A   0       4.104  -0.273  -0.154  0.00  0.00    +0.191 A 
ATOM     10  N   UNK A   0       2.780  -0.176  -0.182  0.00  0.00    -0.206 NA
ATOM     11  C   UNK A   0       2.676  -2.717  -5.849  0.00  0.00    +0.043 C 
ATOM     12  C   UNK A   0       1.173  -3.028  -5.880  0.00  0.00    +0.005 C 
ATOM     13  C   UNK A   0       0.409  -1.810  -5.350  0.00  0.00    +0.005 C 
ATOM     14  C   UNK A   0       0.650  -1.661  -3.847  0.00  0.00    +0.037 C 
ATOM     15  H   ALA A   1       0.164  -0.852  -1.928  0.00  0.00    +0.148 HD
ENDROOT
BRANCH   1  17
ATOM     16  CB  ALA A   1      -0.006   1.716  -0.371  0.00  0.00    +0.040 C 
ATOM     17  CA  ALA A   1       0.019   0.211  -0.096  0.00  0.00    +0.182 C 
BRANCH  17  18
ATOM     18  C   ALA A   1      -1.393  -0.300   0.033  0.00  0.00    +0.376 C 
ATOM     19  O   ALA A   1      -1.799  -1.151  -0.723  0.00  0.00    -0.244 OA
ATOM     20  OXT ALA A   1      -2.200   0.190   0.987  0.00  0.00    -0.244 OA
ENDBRANCH  17  18
ENDBRANCH   1  17
BRANCH   9  21
ATOM     21  S   UNK A   0       4.983   0.294   1.263  0.00  0.00    -0.089 S 
ATOM     22  C   UNK A   0       6.680  -0.069   0.747  0.00  0.00    +0.093 C 
ENDBRANCH   9  21
TORSDOF 3
