REMARK  Name = ZINC37358160
REMARK  6 active torsions:
REMARK  status: ('A' for Active; 'I' for Inactive)
REMARK    1  A    between atoms: C_1  and  O_2
REMARK    2  A    between atoms: O_2  and  C_3
REMARK    3  A    between atoms: C_8  and  C_9
REMARK    4  A    between atoms: C_11  and  N_37
REMARK    5  A    between atoms: N_12  and  C_30
REMARK    6  A    between atoms: C_21  and  N_24
REMARK                            x       y       z     vdW  Elec       q    Type
REMARK                         _______ _______ _______ _____ _____    ______ ____
ROOT
ATOM      1  C   UNL     1      -0.031  -2.872  -0.332  0.00  0.00    +0.092 A 
ATOM      2  C   UNL     1      -0.058  -4.259  -0.062  0.00  0.00    +0.086 A 
ATOM      3  C   UNL     1      -1.043  -5.204   0.195  0.00  0.00    +0.131 A 
ATOM      4  N   UNL     1      -0.429  -6.390   0.377  0.00  0.00    -0.216 N 
ATOM      5  N   UNL     1       0.955  -6.236   0.241  0.00  0.00    -0.144 NA
ATOM      6  C   UNL     1       1.230  -4.977  -0.022  0.00  0.00    +0.189 A 
ATOM      7  N   UNL     1       2.353  -4.268  -0.245  0.00  0.00    -0.193 NA
ATOM      8  C   UNL     1       2.287  -2.975  -0.490  0.00  0.00    +0.220 A 
ATOM      9  N   UNL     1       1.146  -2.294  -0.539  0.00  0.00    -0.213 NA
ATOM     10  N   UNL     1       3.467  -2.290  -0.712  0.00  0.00    -0.300 N 
ATOM     11  C   UNL     1       3.456  -0.846  -0.984  0.00  0.00    +0.106 C 
ATOM     12  C   UNL     1       4.400  -0.151   0.002  0.00  0.00    +0.004 C 
ATOM     13  C   UNL     1       5.785  -0.796  -0.084  0.00  0.00    -0.066 C 
ATOM     14  C   UNL     1       5.687  -2.273   0.301  0.00  0.00    +0.004 C 
ATOM     15  C   UNL     1       4.758  -2.991  -0.675  0.00  0.00    +0.106 C 
ENDROOT
BRANCH  13  16
ATOM     16  N   UNL     1       6.702  -0.110   0.837  0.00  0.00    +0.382 N 
ATOM     17  C   UNL     1       6.789   1.309   0.471  0.00  0.00    -0.078 C 
ATOM     18  C   UNL     1       7.679   2.045   1.475  0.00  0.00    -0.019 C 
ATOM     19  C   UNL     1       9.079   1.424   1.459  0.00  0.00    -0.004 C 
ATOM     20  C   UNL     1       8.968  -0.071   1.769  0.00  0.00    -0.019 C 
ATOM     21  C   UNL     1       8.030  -0.729   0.754  0.00  0.00    -0.078 C 
ATOM     22  H   UNL     1       6.353  -0.191   1.780  0.00  0.00    -0.081 HD
ENDBRANCH  13  16
BRANCH   4  23
ATOM     23  C   UNL     1      -1.080  -7.597   0.660  0.00  0.00    +0.070 A 
ATOM     24  C   UNL     1      -2.224  -7.603   1.449  0.00  0.00    +0.028 A 
ATOM     25  C   UNL     1      -2.864  -8.794   1.726  0.00  0.00    +0.005 A 
ATOM     26  C   UNL     1      -2.369  -9.982   1.221  0.00  0.00    +0.038 A 
ATOM     27  C   UNL     1      -1.228  -9.981   0.435  0.00  0.00    +0.125 A 
ATOM     28  C   UNL     1      -0.586  -8.790   0.149  0.00  0.00    +0.066 A 
ATOM     29  F   UNL     1      -0.746 -11.143  -0.057  0.00  0.00    -0.205 F 
ENDBRANCH   4  23
BRANCH   1  35
ATOM     30  C   UNL     1      -1.612  -1.369  -1.544  0.00  0.00    +0.129 A 
ATOM     31  C   UNL     1      -2.791  -0.640  -1.589  0.00  0.00    +0.046 A 
ATOM     32  C   UNL     1      -3.632  -0.618  -0.494  0.00  0.00    +0.004 A 
ATOM     33  C   UNL     1      -3.306  -1.321   0.654  0.00  0.00    +0.001 A 
ATOM     34  C   UNL     1      -2.138  -2.050   0.714  0.00  0.00    +0.013 A 
ATOM     35  C   UNL     1      -1.282  -2.086  -0.388  0.00  0.00    +0.043 A 
BRANCH  30  37
ATOM     36  C   UNL     1      -1.187  -0.637  -3.764  0.00  0.00    +0.277 C 
ATOM     37  O   UNL     1      -0.784  -1.392  -2.620  0.00  0.00    -0.494 OA
ENDBRANCH  30  37
ENDBRANCH   1  35
BRANCH   3  38
ATOM     38  N   UNL     1      -2.404  -4.970   0.255  0.00  0.00    -0.342 N 
ATOM     39  H   UNL     1      -2.746  -4.070   0.142  0.00  0.00    +0.144 HD
ATOM     40  H   UNL     1      -3.016  -5.707   0.409  0.00  0.00    +0.144 HD
ENDBRANCH   3  38
TORSDOF 5
