REMARK  Name = ZINC49411457
REMARK  7 active torsions:
REMARK  status: ('A' for Active; 'I' for Inactive)
REMARK    1  A    between atoms: C_1  and  C_2
REMARK    2  A    between atoms: C_5  and  N_8
REMARK    3  A    between atoms: N_10  and  C_20
REMARK    4  A    between atoms: C_20  and  C_21
REMARK    5  A    between atoms: N_23  and  C_24
REMARK    6  A    between atoms: C_26  and  C_31
REMARK    7  A    between atoms: C_29  and  C_30
REMARK                            x       y       z     vdW  Elec       q    Type
REMARK                         _______ _______ _______ _____ _____    ______ ____
ROOT
ATOM      1  N   UNL     1       0.035  -4.184  -0.014  0.00  0.00    -0.269 N 
ATOM      2  C   UNL     1       0.163  -4.891   1.257  0.00  0.00    +0.223 C 
ATOM      3  N   UNL     1       1.262  -5.871   1.147  0.00  0.00    -0.150 NA
ATOM      4  S   UNL     1       1.099  -7.012  -0.059  0.00  0.00    +0.066 S 
ATOM      5  O   UNL     1       0.108  -7.935   0.373  0.00  0.00    -0.153 OA
ATOM      6  O   UNL     1       2.410  -7.411  -0.435  0.00  0.00    -0.153 OA
ATOM      7  C   UNL     1       0.416  -6.124  -1.425  0.00  0.00    +0.146 A 
ATOM      8  C   UNL     1      -0.048  -4.824  -1.242  0.00  0.00    +0.153 A 
ATOM      9  N   UNL     1      -0.580  -4.167  -2.269  0.00  0.00    -0.238 NA
ATOM     10  C   UNL     1      -0.677  -4.707  -3.467  0.00  0.00    +0.113 A 
ATOM     11  C   UNL     1      -0.230  -5.989  -3.713  0.00  0.00    +0.022 A 
ATOM     12  C   UNL     1       0.338  -6.718  -2.667  0.00  0.00    +0.033 A 
ENDROOT
BRANCH   1  17
ATOM     13  C   UNL     1      -0.154   1.484   0.076  0.00  0.00    +0.044 C 
ATOM     14  C   UNL     1      -0.104  -0.022   0.052  0.00  0.00    -0.050 A 
ATOM     15  C   UNL     1      -1.121  -0.755   0.635  0.00  0.00    +0.005 A 
ATOM     16  C   UNL     1      -1.078  -2.136   0.615  0.00  0.00    +0.024 A 
ATOM     17  C   UNL     1      -0.012  -2.787   0.008  0.00  0.00    +0.037 A 
ATOM     18  C   UNL     1       1.008  -2.047  -0.577  0.00  0.00    +0.024 A 
ATOM     19  C   UNL     1       0.957  -0.667  -0.558  0.00  0.00    +0.005 A 
ENDBRANCH   1  17
BRANCH   3  20
ATOM     20  C   UNL     1       2.423  -5.843   2.041  0.00  0.00    +0.207 C 
BRANCH  20  21
ATOM     21  C   UNL     1       2.100  -6.592   3.308  0.00  0.00    +0.233 C 
ATOM     22  O   UNL     1       1.008  -7.099   3.451  0.00  0.00    -0.274 OA
ATOM     23  N   UNL     1       3.025  -6.698   4.282  0.00  0.00    -0.284 N 
ATOM     24  H   UNL     1       3.878  -6.244   4.193  0.00  0.00    +0.155 HD
BRANCH  23  25
ATOM     25  C   UNL     1       2.756  -7.463   5.423  0.00  0.00    +0.037 A 
ATOM     26  C   UNL     1       1.444  -7.670   5.828  0.00  0.00    +0.027 A 
ATOM     27  C   UNL     1       1.181  -8.426   6.953  0.00  0.00    -0.049 A 
ATOM     28  C   UNL     1       2.223  -8.976   7.677  0.00  0.00    +0.004 A 
ATOM     29  C   UNL     1       3.531  -8.771   7.277  0.00  0.00    +0.005 A 
ATOM     30  C   UNL     1       3.800  -8.022   6.148  0.00  0.00    -0.029 A 
ATOM     31  C   UNL     1       5.225  -7.806   5.708  0.00  0.00    +0.045 C 
ATOM     32  C   UNL     1      -0.242  -8.651   7.394  0.00  0.00    +0.044 C 
ENDBRANCH  23  25
ENDBRANCH  20  21
ENDBRANCH   3  20
TORSDOF 4
