REMARK  Name = ZINC62702661
REMARK  7 active torsions:
REMARK  status: ('A' for Active; 'I' for Inactive)
REMARK    1  A    between atoms: C_1  and  C_2
REMARK    2  A    between atoms: C_5  and  S_18
REMARK    3  A    between atoms: C_7  and  N_8
REMARK    4  A    between atoms: N_8  and  C_9
REMARK    5  A    between atoms: C_9  and  C_10
REMARK    6  A    between atoms: C_13  and  O_17
REMARK    7  A    between atoms: S_18  and  N_21
REMARK                            x       y       z     vdW  Elec       q    Type
REMARK                         _______ _______ _______ _____ _____    ______ ____
ROOT
ATOM      1  C   UNL     1      -0.018   1.503   0.010  0.00  0.00    +0.045 C 
ATOM      2  C   UNL     1       0.002  -0.004   0.002  0.00  0.00    -0.030 A 
ATOM      3  C   UNL     1       0.006  -0.689  -1.198  0.00  0.00    +0.007 A 
ATOM      4  C   UNL     1       0.024  -2.071  -1.206  0.00  0.00    +0.029 A 
ATOM      5  C   UNL     1       0.039  -2.773  -0.014  0.00  0.00    +0.107 A 
ATOM      6  C   UNL     1       0.036  -2.095   1.188  0.00  0.00    +0.051 A 
ATOM      7  C   UNL     1       0.023  -0.706   1.200  0.00  0.00    +0.032 A 
ENDROOT
BRANCH   5   8
ATOM      8  S   UNL     1       0.062  -4.535  -0.031  0.00  0.00    +0.056 S 
ATOM      9  O   UNL     1      -0.477  -4.960   1.213  0.00  0.00    -0.153 OA
ATOM     10  O   UNL     1      -0.490  -4.937  -1.277  0.00  0.00    -0.153 OA
BRANCH   8  11
ATOM     11  N   UNL     1       1.650  -5.004  -0.044  0.00  0.00    -0.204 NA
ATOM     12  H   UNL     1       2.353  -4.336  -0.041  0.00  0.00    +0.144 HD
ATOM     13  H   UNL     1       1.877  -5.947  -0.054  0.00  0.00    +0.144 HD
ENDBRANCH   8  11
ENDBRANCH   5   8
BRANCH   7  14
ATOM     14  N   UNL     1       0.025  -0.016   2.415  0.00  0.00    -0.339 N 
ATOM     15  H   UNL     1       0.012   0.954   2.422  0.00  0.00    +0.146 HD
BRANCH  14  16
ATOM     16  C   UNL     1       0.047  -0.758   3.678  0.00  0.00    +0.137 C 
BRANCH  16  17
ATOM     17  C   UNL     1       0.045   0.213   4.831  0.00  0.00    -0.029 A 
ATOM     18  C   UNL     1       1.242   0.678   5.344  0.00  0.00    +0.009 A 
ATOM     19  C   UNL     1       1.243   1.568   6.401  0.00  0.00    +0.047 A 
ATOM     20  C   UNL     1       0.042   1.995   6.948  0.00  0.00    +0.131 A 
ATOM     21  C   UNL     1      -1.159   1.527   6.431  0.00  0.00    +0.060 A 
ATOM     22  C   UNL     1      -1.154   0.641   5.370  0.00  0.00    +0.024 A 
ATOM     23 BR   UNL     1      -2.798   2.106   7.174  0.00  0.00    -0.047 Br
BRANCH  20  24
ATOM     24  O   UNL     1       0.040   2.870   7.988  0.00  0.00    -0.506 OA
ATOM     25  H   UNL     1       0.021   3.799   7.720  0.00  0.00    +0.292 HD
ENDBRANCH  20  24
ENDBRANCH  16  17
ENDBRANCH  14  16
ENDBRANCH   7  14
TORSDOF 6
