REMARK  Name = ZINC12156810
REMARK  10 active torsions:
REMARK  status: ('A' for Active; 'I' for Inactive)
REMARK    1  A    between atoms: C_1  and  C_2
REMARK    2  A    between atoms: C_4  and  C_11
REMARK    3  A    between atoms: C_5  and  C_10
REMARK    4  A    between atoms: C_7  and  O_8
REMARK    5  A    between atoms: O_8  and  C_9
REMARK    6  A    between atoms: C_11  and  N_74
REMARK    7  A    between atoms: N_23  and  C_24
REMARK    8  A    between atoms: C_24  and  C_25
REMARK    9  A    between atoms: C_25  and  C_26
REMARK   10  A    between atoms: C_25  and  C_32
REMARK                            x       y       z     vdW  Elec       q    Type
REMARK                         _______ _______ _______ _____ _____    ______ ____
ROOT
ATOM      1  C   UNL     1      -2.868   4.823   1.278  0.00  0.00    -0.077 C 
ATOM      2  C   UNL     1      -3.535   5.004   2.643  0.00  0.00    +0.004 C 
ATOM      3  C   UNL     1      -3.620   3.656   3.356  0.00  0.00    +0.076 C 
ATOM      4  C   UNL     1      -4.360   2.644   2.482  0.00  0.00    -0.007 C 
ATOM      5  C   UNL     1      -3.678   2.548   1.115  0.00  0.00    -0.073 C 
ATOM      6  C   UNL     1      -4.290   1.271   3.165  0.00  0.00    +0.013 C 
ATOM      7  C   UNL     1      -2.835   0.795   3.141  0.00  0.00    +0.096 C 
ATOM      8  C   UNL     1      -1.928   1.888   3.630  0.00  0.00    +0.216 C 
ATOM      9  O   UNL     1      -0.806   1.590   3.981  0.00  0.00    -0.276 OA
ATOM     10  N   UNL     1      -2.292   3.170   3.698  0.00  0.00    -0.297 N 
ATOM     11  N   UNL     1      -3.678   3.880   0.478  0.00  0.00    +0.383 N 
ATOM     12  H   UNL     1      -4.643   4.227   0.430  0.00  0.00    -0.081 HD
ENDROOT
BRANCH  11  13
ATOM     13  C   UNL     1      -3.134   3.784  -0.893  0.00  0.00    -0.043 C 
BRANCH  13  17
ATOM     14  C   UNL     1       1.823   4.447  -0.762  0.00  0.00    +0.047 C 
ATOM     15  C   UNL     1       0.631   3.527  -0.807  0.00  0.00    -0.009 A 
ATOM     16  C   UNL     1      -0.647   4.052  -0.828  0.00  0.00    +0.009 A 
ATOM     17  C   UNL     1      -1.742   3.209  -0.870  0.00  0.00    -0.061 A 
ATOM     18  C   UNL     1      -1.561   1.838  -0.898  0.00  0.00    -0.046 A 
ATOM     19  C   UNL     1      -0.286   1.308  -0.871  0.00  0.00    +0.049 A 
ATOM     20  C   UNL     1       0.815   2.152  -0.828  0.00  0.00    +0.123 A 
ATOM     21  C   UNL     1      -2.756   0.922  -0.950  0.00  0.00    +0.044 C 
BRANCH  20  22
ATOM     22  O   UNL     1       2.070   1.633  -0.807  0.00  0.00    -0.495 OA
ATOM     23  C   UNL     1       2.184   0.209  -0.831  0.00  0.00    +0.277 C 
ENDBRANCH  20  22
ENDBRANCH  13  17
ENDBRANCH  11  13
BRANCH  10  24
ATOM     24  C   UNL     1      -1.295   4.147   4.143  0.00  0.00    +0.121 C 
BRANCH  24  25
ATOM     25  C   UNL     1      -1.479   4.418   5.638  0.00  0.00    +0.066 C 
BRANCH  25  26
ATOM     26  C   UNL     1      -1.182   3.162   6.416  0.00  0.00    -0.038 A 
ATOM     27  C   UNL     1      -2.159   2.594   7.211  0.00  0.00    +0.004 A 
ATOM     28  C   UNL     1      -1.888   1.439   7.921  0.00  0.00    +0.000 A 
ATOM     29  C   UNL     1      -0.636   0.858   7.843  0.00  0.00    +0.000 A 
ATOM     30  C   UNL     1       0.343   1.429   7.052  0.00  0.00    +0.000 A 
ATOM     31  C   UNL     1       0.070   2.581   6.338  0.00  0.00    +0.004 A 
ENDBRANCH  25  26
BRANCH  25  32
ATOM     32  C   UNL     1      -0.536   5.511   6.069  0.00  0.00    -0.038 A 
ATOM     33  C   UNL     1       0.801   5.449   5.722  0.00  0.00    +0.004 A 
ATOM     34  C   UNL     1       1.665   6.454   6.113  0.00  0.00    +0.000 A 
ATOM     35  C   UNL     1       1.194   7.517   6.862  0.00  0.00    +0.000 A 
ATOM     36  C   UNL     1      -0.141   7.576   7.215  0.00  0.00    +0.000 A 
ATOM     37  C   UNL     1      -1.006   6.574   6.818  0.00  0.00    +0.004 A 
ENDBRANCH  25  32
ENDBRANCH  24  25
ENDBRANCH  10  24
TORSDOF 7
