REMARK  Name = ZINC35728779
REMARK  10 active torsions:
REMARK  status: ('A' for Active; 'I' for Inactive)
REMARK    1  A    between atoms: C_1  and  C_2
REMARK    2  A    between atoms: C_2  and  C_3
REMARK    3  A    between atoms: C_3  and  C_4
REMARK    4  A    between atoms: C_4  and  C_5
REMARK    5  A    between atoms: C_5  and  N_6
REMARK    6  A    between atoms: C_7  and  C_9
REMARK    7  A    between atoms: C_9  and  S_10
REMARK    8  A    between atoms: S_10  and  C_11
REMARK    9  A    between atoms: C_22  and  C_25
REMARK   10  A    between atoms: C_26  and  C_28
REMARK                            x       y       z     vdW  Elec       q    Type
REMARK                         _______ _______ _______ _____ _____    ______ ____
ROOT
ATOM      1  C   UNL     1       2.884  -8.509  -4.897  0.00  0.00    +0.192 A 
ATOM      2  N   UNL     1       3.434  -9.250  -5.848  0.00  0.00    -0.207 NA
ATOM      3  C   UNL     1       3.393 -10.577  -5.782  0.00  0.00    +0.127 A 
ATOM      4  C   UNL     1       2.762 -11.183  -4.695  0.00  0.00    +0.083 A 
ATOM      5  C   UNL     1       2.201 -10.374  -3.723  0.00  0.00    +0.135 A 
ATOM      6  N   UNL     1       2.283  -9.056  -3.850  0.00  0.00    -0.210 NA
ATOM      7 CL   UNL     1       1.404 -11.075  -2.350  0.00  0.00    -0.062 Cl
ATOM      8  N   UNL     1       3.969 -11.348  -6.779  0.00  0.00    -0.312 N 
ATOM      9  C   UNL     1       4.641 -10.713  -7.922  0.00  0.00    +0.125 C 
ATOM     10  C   UNL     1       4.010 -11.241  -9.216  0.00  0.00    +0.127 C 
ATOM     11  N   UNL     1       3.960 -12.708  -9.150  0.00  0.00    -0.292 N 
ATOM     12  C   UNL     1       3.287 -13.343  -8.008  0.00  0.00    +0.091 C 
ATOM     13  C   UNL     1       3.923 -12.815  -6.710  0.00  0.00    +0.128 C 
ATOM     14  C   UNL     1       1.797 -13.000  -8.034  0.00  0.00    +0.029 C 
ATOM     15  C   UNL     1       4.520 -13.458 -10.120  0.00  0.00    +0.248 C 
ATOM     16  O   UNL     1       4.406 -14.668 -10.095  0.00  0.00    -0.270 OA
ENDROOT
BRANCH  15  17
ATOM     17  C   UNL     1       5.272 -12.809 -11.214  0.00  0.00    +0.055 A 
ATOM     18  C   UNL     1       4.668 -11.815 -11.987  0.00  0.00    +0.014 A 
ATOM     19  C   UNL     1       5.376 -11.214 -13.006  0.00  0.00    +0.001 A 
ATOM     20  C   UNL     1       6.682 -11.593 -13.265  0.00  0.00    +0.001 A 
ATOM     21  C   UNL     1       7.287 -12.577 -12.505  0.00  0.00    +0.021 A 
ATOM     22  C   UNL     1       6.592 -13.184 -11.477  0.00  0.00    +0.053 A 
ATOM     23 CL   UNL     1       7.354 -14.414 -10.518  0.00  0.00    -0.083 Cl
ENDBRANCH  15  17
BRANCH   1  24
ATOM     24  S   UNL     1       2.961  -6.753  -5.023  0.00  0.00    -0.077 S 
BRANCH  24  25
ATOM     25  C   UNL     1       2.109  -6.169  -3.532  0.00  0.00    +0.173 C 
BRANCH  25  27
ATOM     26  N   UNL     1       1.520  -4.002  -2.495  0.00  0.00    -0.315 N 
ATOM     27  C   UNL     1       2.103  -4.662  -3.515  0.00  0.00    +0.223 C 
ATOM     28  O   UNL     1       2.623  -4.043  -4.419  0.00  0.00    -0.275 OA
ATOM     29  H   UNL     1       1.104  -4.496  -1.772  0.00  0.00    +0.149 HD
BRANCH  26  30
ATOM     30  C   UNL     1       1.515  -2.537  -2.478  0.00  0.00    +0.104 C 
BRANCH  30  31
ATOM     31  C   UNL     1       0.795  -2.043  -1.221  0.00  0.00    +0.019 C 
BRANCH  31  32
ATOM     32  C   UNL     1       0.790  -0.514  -1.204  0.00  0.00    +0.001 C 
BRANCH  32  34
ATOM     33  C   UNL     1       0.065   1.510   0.070  0.00  0.00    +0.004 C 
ATOM     34  C   UNL     1       0.071  -0.020   0.053  0.00  0.00    -0.003 C 
ENDBRANCH  32  34
ENDBRANCH  31  32
ENDBRANCH  30  31
ENDBRANCH  26  30
ENDBRANCH  25  27
ENDBRANCH  24  25
ENDBRANCH   1  24
TORSDOF 8
