REMARK  Name = ZINC38872585
REMARK  9 active torsions:
REMARK  status: ('A' for Active; 'I' for Inactive)
REMARK    1  A    between atoms: C_1  and  C_2
REMARK    2  A    between atoms: C_5  and  C_9
REMARK    3  A    between atoms: C_6  and  C_8
REMARK    4  A    between atoms: C_9  and  C_11
REMARK    5  A    between atoms: C_9  and  N_12
REMARK    6  A    between atoms: C_13  and  C_15
REMARK    7  A    between atoms: N_18  and  C_21
REMARK    8  A    between atoms: C_21  and  C_22
REMARK    9  A    between atoms: C_24  and  C_27
REMARK                            x       y       z     vdW  Elec       q    Type
REMARK                         _______ _______ _______ _____ _____    ______ ____
ROOT
ATOM      1  C   UNL     1      -1.766  -6.453  -2.587  0.00  0.00    +0.071 C 
ATOM      2  C   UNL     1      -2.823  -5.461  -3.080  0.00  0.00    -0.006 C 
ATOM      3  C   UNL     1      -3.485  -6.016  -4.344  0.00  0.00    -0.077 C 
ATOM      4  N   UNL     1      -4.123  -7.303  -4.041  0.00  0.00    +0.386 N 
ATOM      5  C   UNL     1      -3.105  -8.280  -3.636  0.00  0.00    -0.077 C 
ATOM      6  C   UNL     1      -2.429  -7.812  -2.345  0.00  0.00    -0.006 C 
ATOM      7  H   UNL     1      -4.787  -7.180  -3.292  0.00  0.00    -0.081 HD
ENDROOT
BRANCH   1   9
ATOM      8  N   UNL     1      -0.525  -4.764  -1.273  0.00  0.00    -0.309 N 
ATOM      9  C   UNL     1      -1.165  -5.950  -1.299  0.00  0.00    +0.216 C 
ATOM     10  O   UNL     1      -1.257  -6.612  -0.288  0.00  0.00    -0.276 OA
ATOM     11  H   UNL     1      -0.451  -4.235  -2.082  0.00  0.00    +0.149 HD
BRANCH   8  12
ATOM     12  C   UNL     1       0.059  -4.275  -0.021  0.00  0.00    +0.100 C 
ATOM     13  C   UNL     1       1.498  -4.782   0.102  0.00  0.00    +0.033 C 
BRANCH  12  18
ATOM     14  C   UNL     1       0.042   1.503  -0.018  0.00  0.00    +0.044 C 
ATOM     15  C   UNL     1       0.046  -0.004  -0.019  0.00  0.00    -0.050 A 
ATOM     16  C   UNL     1       0.085  -0.694  -1.216  0.00  0.00    +0.004 A 
ATOM     17  C   UNL     1       0.089  -2.076  -1.217  0.00  0.00    +0.006 A 
ATOM     18  C   UNL     1       0.056  -2.768  -0.021  0.00  0.00    -0.025 A 
ATOM     19  C   UNL     1       0.018  -2.078   1.176  0.00  0.00    -0.045 A 
ATOM     20  C   UNL     1       0.018  -0.696   1.177  0.00  0.00    +0.007 A 
ATOM     21  C   UNL     1      -0.018  -2.833   2.480  0.00  0.00    +0.044 C 
ENDBRANCH  12  18
ENDBRANCH   8  12
ENDBRANCH   1   9
BRANCH   4  22
ATOM     22  C   UNL     1      -4.822  -7.793  -5.236  0.00  0.00    +0.022 C 
BRANCH  22  23
ATOM     23  C   UNL     1      -5.579  -9.051  -4.894  0.00  0.00    +0.211 A 
ATOM     24  N   UNL     1      -6.809  -9.107  -4.469  0.00  0.00    -0.193 NA
ATOM     25  C   UNL     1      -7.167 -10.387  -4.262  0.00  0.00    +0.203 A 
ATOM     26  N   UNL     1      -6.151 -11.159  -4.560  0.00  0.00    -0.056 NA
ATOM     27  O   UNL     1      -5.103 -10.299  -4.982  0.00  0.00    -0.340 OA
BRANCH  25  28
ATOM     28  C   UNL     1      -8.491 -10.848  -3.778  0.00  0.00    +0.041 A 
ATOM     29  C   UNL     1      -9.495  -9.923  -3.501  0.00  0.00    +0.014 A 
ATOM     30  C   UNL     1     -10.725 -10.356  -3.051  0.00  0.00    +0.021 A 
ATOM     31  C   UNL     1     -10.964 -11.709  -2.874  0.00  0.00    +0.042 A 
ATOM     32  C   UNL     1      -9.971 -12.633  -3.147  0.00  0.00    +0.040 A 
ATOM     33  C   UNL     1      -8.737 -12.210  -3.604  0.00  0.00    +0.053 A 
ATOM     34 CL   UNL     1      -7.494 -13.370  -3.954  0.00  0.00    -0.083 Cl
ATOM     35 CL   UNL     1     -12.514 -12.247  -2.308  0.00  0.00    -0.083 Cl
ENDBRANCH  25  28
ENDBRANCH  22  23
ENDBRANCH   4  22
TORSDOF 6
