REMARK  Name = ZINC67239533
REMARK  5 active torsions:
REMARK  status: ('A' for Active; 'I' for Inactive)
REMARK    1  A    between atoms: C_3  and  N_12
REMARK    2  A    between atoms: C_6  and  C_7
REMARK    3  A    between atoms: C_7  and  N_8
REMARK    4  A    between atoms: C_13  and  C_15
REMARK    5  A    between atoms: C_20  and  C_23
REMARK                            x       y       z     vdW  Elec       q    Type
REMARK                         _______ _______ _______ _____ _____    ______ ____
ROOT
ATOM      1  C   UNL     1       0.070   1.232   0.593  0.00  0.00    +0.007 A 
ATOM      2  C   UNL     1       1.256   1.940   0.595  0.00  0.00    +0.023 A 
ATOM      3  C   UNL     1       2.381   1.408  -0.021  0.00  0.00    +0.033 A 
ATOM      4  C   UNL     1       2.310   0.166  -0.636  0.00  0.00    +0.023 A 
ATOM      5  C   UNL     1       1.122  -0.538  -0.635  0.00  0.00    +0.007 A 
ATOM      6  C   UNL     1       0.003  -0.005  -0.021  0.00  0.00    -0.030 A 
ENDROOT
BRANCH   3   7
ATOM      7  N   UNL     1       3.584   2.123  -0.021  0.00  0.00    -0.285 N 
ATOM      8  C   UNL     1       4.758   1.467   0.066  0.00  0.00    +0.220 C 
ATOM      9  O   UNL     1       4.777   0.255   0.060  0.00  0.00    -0.275 OA
ATOM     10  H   UNL     1       3.573   3.091  -0.084  0.00  0.00    +0.155 HD
BRANCH   8  11
ATOM     11  C   UNL     1       6.047   2.241   0.171  0.00  0.00    +0.076 C 
ATOM     12  C   UNL     1       6.018   3.114   1.427  0.00  0.00    +0.013 C 
ATOM     13  C   UNL     1       5.854   2.225   2.662  0.00  0.00    +0.001 C 
ATOM     14  C   UNL     1       7.029   1.249   2.747  0.00  0.00    +0.012 C 
ATOM     15  C   UNL     1       7.058   0.376   1.491  0.00  0.00    +0.094 C 
ATOM     16  C   UNL     1       7.222   1.264   0.256  0.00  0.00    +0.025 C 
BRANCH  15  17
ATOM     17  C   UNL     1       8.233  -0.601   1.576  0.00  0.00    +0.393 C 
ATOM     18  F   UNL     1       8.084  -1.413   2.705  0.00  0.00    -0.170 F 
ATOM     19  F   UNL     1       8.260  -1.399   0.427  0.00  0.00    -0.170 F 
ATOM     20  F   UNL     1       9.430   0.117   1.673  0.00  0.00    -0.170 F 
ENDBRANCH  15  17
ENDBRANCH   8  11
ENDBRANCH   3   7
BRANCH   6  21
ATOM     21  C   UNL     1      -1.293  -0.775  -0.021  0.00  0.00    +0.141 C 
BRANCH  21  22
ATOM     22  N   UNL     1      -2.074  -0.416  -1.207  0.00  0.00    -0.295 N 
ATOM     23  C   UNL     1      -3.277  -0.985  -1.419  0.00  0.00    +0.297 C 
ATOM     24  O   UNL     1      -3.715  -1.796  -0.625  0.00  0.00    -0.253 OA
ATOM     25  N   UNL     1      -3.996  -0.655  -2.510  0.00  0.00    -0.313 N 
ATOM     26  H   UNL     1      -1.725   0.230  -1.840  0.00  0.00    +0.151 HD
ATOM     27  H   UNL     1      -3.647  -0.008  -3.143  0.00  0.00    +0.146 HD
ATOM     28  H   UNL     1      -4.862  -1.064  -2.662  0.00  0.00    +0.146 HD
ENDBRANCH  21  22
ENDBRANCH   6  21
TORSDOF 5
