REMARK  Name = ZINC65592597
REMARK  8 active torsions:
REMARK  status: ('A' for Active; 'I' for Inactive)
REMARK    1  A    between atoms: C_1  and  C_2
REMARK    2  A    between atoms: C_2  and  C_3
REMARK    3  A    between atoms: C_3  and  C_4
REMARK    4  A    between atoms: C_4  and  C_5
REMARK    5  A    between atoms: C_5  and  C_6
REMARK    6  A    between atoms: C_5  and  N_22
REMARK    7  A    between atoms: N_8  and  C_9
REMARK    8  A    between atoms: C_9  and  C_10
REMARK                            x       y       z     vdW  Elec       q    Type
REMARK                         _______ _______ _______ _____ _____    ______ ____
ROOT
ATOM      1  C   UNL     1       1.535  -4.100  -2.491  0.00  0.00    +0.234 C 
ATOM      2  O   UNL     1       0.778  -4.814  -3.114  0.00  0.00    -0.274 OA
ATOM      3  N   UNL     1       2.520  -4.644  -1.750  0.00  0.00    -0.310 N 
ATOM      4  H   UNL     1       3.125  -4.073  -1.252  0.00  0.00    +0.149 HD
ENDROOT
BRANCH   1   5
ATOM      5  C   UNL     1       1.374  -2.602  -2.547  0.00  0.00    +0.160 C 
BRANCH   5   6
ATOM      6  N   UNL     1       0.597  -2.238  -3.734  0.00  0.00    -0.288 N 
ATOM      7  C   UNL     1      -0.657  -2.706  -3.888  0.00  0.00    +0.298 C 
ATOM      8  O   UNL     1      -1.144  -3.431  -3.042  0.00  0.00    -0.253 OA
ATOM      9  N   UNL     1      -1.372  -2.372  -4.981  0.00  0.00    -0.313 N 
ATOM     10  H   UNL     1       0.985  -1.660  -4.410  0.00  0.00    +0.151 HD
ATOM     11  H   UNL     1      -0.984  -1.794  -5.656  0.00  0.00    +0.146 HD
ATOM     12  H   UNL     1      -2.275  -2.708  -5.091  0.00  0.00    +0.146 HD
ENDBRANCH   5   6
BRANCH   5  13
ATOM     13  C   UNL     1       0.643  -2.121  -1.292  0.00  0.00    +0.032 C 
BRANCH  13  14
ATOM     14  C   UNL     1       0.590  -0.592  -1.288  0.00  0.00    +0.002 C 
BRANCH  14  16
ATOM     15  C   UNL     1      -0.194   1.419  -0.029  0.00  0.00    +0.004 C 
ATOM     16  C   UNL     1      -0.141  -0.110  -0.033  0.00  0.00    -0.003 C 
ENDBRANCH  14  16
ENDBRANCH  13  14
ENDBRANCH   5  13
ENDBRANCH   1   5
BRANCH   3  17
ATOM     17  C   UNL     1       2.676  -6.100  -1.696  0.00  0.00    +0.139 C 
BRANCH  17  18
ATOM     18  C   UNL     1       3.841  -6.448  -0.805  0.00  0.00    -0.026 A 
ATOM     19  C   UNL     1       5.123  -6.562  -1.325  0.00  0.00    +0.023 A 
ATOM     20  C   UNL     1       6.169  -6.881  -0.483  0.00  0.00    +0.084 A 
ATOM     21  N   UNL     1       5.964  -7.078   0.806  0.00  0.00    -0.350 N 
ATOM     22  C   UNL     1       4.756  -6.978   1.340  0.00  0.00    +0.099 A 
ATOM     23  C   UNL     1       3.658  -6.654   0.550  0.00  0.00    +0.047 A 
ATOM     24  N   UNL     1       4.585  -7.194   2.702  0.00  0.00    -0.317 N 
ATOM     25  C   UNL     1       5.705  -7.658   3.533  0.00  0.00    +0.106 C 
ATOM     26  C   UNL     1       5.871  -6.701   4.717  0.00  0.00    +0.019 C 
ATOM     27  C   UNL     1       4.540  -6.585   5.464  0.00  0.00    +0.003 C 
ATOM     28  C   UNL     1       3.475  -6.013   4.526  0.00  0.00    +0.019 C 
ATOM     29  C   UNL     1       3.284  -6.957   3.340  0.00  0.00    +0.106 C 
ATOM     30  H   UNL     1       6.716  -7.301   1.376  0.00  0.00    +0.166 HD
ENDBRANCH  17  18
ENDBRANCH   3  17
TORSDOF 7
