REMARK  Name = ZINC39029569
REMARK  8 active torsions:
REMARK  status: ('A' for Active; 'I' for Inactive)
REMARK    1  A    between atoms: C_1  and  C_2
REMARK    2  A    between atoms: C_2  and  C_3
REMARK    3  A    between atoms: C_3  and  C_5
REMARK    4  A    between atoms: C_3  and  N_6
REMARK    5  A    between atoms: C_7  and  O_31
REMARK    6  A    between atoms: C_9  and  C_15
REMARK    7  A    between atoms: C_10  and  O_14
REMARK    8  A    between atoms: N_29  and  C_30
REMARK                            x       y       z     vdW  Elec       q    Type
REMARK                         _______ _______ _______ _____ _____    ______ ____
ROOT
ATOM      1  N   UNL     1       2.125  -0.091  -1.209  0.00  0.00    -0.253 N 
ATOM      2  C   UNL     1       2.693   0.780  -2.251  0.00  0.00    +0.240 C 
ATOM      3  C   UNL     1       4.156   1.150  -2.122  0.00  0.00    +0.057 C 
ATOM      4  C   UNL     1       4.831   0.669  -1.083  0.00  0.00    +0.190 C 
ATOM      5  N   UNL     1       4.219  -0.147  -0.145  0.00  0.00    -0.240 N 
ATOM      6  C   UNL     1       2.928  -0.501  -0.207  0.00  0.00    +0.311 C 
ATOM      7  O   UNL     1       2.470  -1.217   0.662  0.00  0.00    -0.252 OA
ATOM      8  H   UNL     1       4.751  -0.475   0.597  0.00  0.00    +0.159 HD
ENDROOT
BRANCH   3   9
ATOM      9  C   UNL     1       4.825   2.036  -3.140  0.00  0.00    +0.139 C 
ATOM     10  C   UNL     1       4.204   3.412  -3.103  0.00  0.00    +0.042 A 
ATOM     11  H   UNL     1       4.011   3.856  -1.076  0.00  0.00    +0.166 HD
ATOM     12  C   UNL     1       3.884   4.107  -4.218  0.00  0.00    -0.016 A 
ATOM     13  C   UNL     1       3.315   5.365  -3.790  0.00  0.00    +0.003 A 
ATOM     14  C   UNL     1       2.812   6.467  -4.488  0.00  0.00    +0.010 A 
ATOM     15  C   UNL     1       2.340   7.515  -3.736  0.00  0.00    +0.001 A 
ATOM     16  C   UNL     1       2.354   7.494  -2.352  0.00  0.00    +0.002 A 
ATOM     17  C   UNL     1       2.846   6.416  -1.635  0.00  0.00    +0.026 A 
ATOM     18  C   UNL     1       3.333   5.338  -2.371  0.00  0.00    +0.047 A 
ATOM     19  N   UNL     1       3.877   4.143  -1.993  0.00  0.00    -0.356 N 
ATOM     20  C   UNL     1       4.117   3.590  -5.616  0.00  0.00    +0.053 C 
ATOM     21  C   UNL     1       5.091   2.407  -5.527  0.00  0.00    +0.090 C 
ATOM     22  N   UNL     1       4.639   1.472  -4.486  0.00  0.00    -0.293 NA
ATOM     23  C   UNL     1       5.313   0.172  -4.611  0.00  0.00    +0.105 C 
ENDBRANCH   3   9
BRANCH   1  24
ATOM     24  C   UNL     1       0.718  -0.497  -1.257  0.00  0.00    +0.077 C 
ATOM     25  C   UNL     1       0.630  -2.023  -1.329  0.00  0.00    +0.028 C 
BRANCH  24  27
ATOM     26  C   UNL     1      -0.019   1.526   0.010  0.00  0.00    +0.006 C 
ATOM     27  C   UNL     1       0.002  -0.004   0.002  0.00  0.00    +0.019 C 
ENDBRANCH  24  27
ENDBRANCH   1  24
BRANCH   4  28
ATOM     28  O   UNL     1       6.144   0.982  -0.939  0.00  0.00    -0.495 OA
ATOM     29  H   UNL     1       6.558   0.590  -0.158  0.00  0.00    +0.293 HD
ENDBRANCH   4  28
BRANCH   2  30
ATOM     30  O   UNL     1       2.515   0.131  -3.512  0.00  0.00    -0.370 OA
ATOM     31  H   UNL     1       1.591  -0.042  -3.738  0.00  0.00    +0.212 HD
ENDBRANCH   2  30
TORSDOF 5
