REMARK  Name = ZINC17287589
REMARK  13 active torsions:
REMARK  status: ('A' for Active; 'I' for Inactive)
REMARK    1  A    between atoms: C_1  and  C_2
REMARK    2  A    between atoms: C_2  and  N_3
REMARK    3  A    between atoms: N_3  and  C_4
REMARK    4  A    between atoms: N_3  and  C_6
REMARK    5  A    between atoms: C_4  and  C_5
REMARK    6  A    between atoms: C_6  and  C_7
REMARK    7  A    between atoms: C_7  and  N_8
REMARK    8  A    between atoms: C_12  and  O_18
REMARK    9  A    between atoms: O_18  and  C_19
REMARK   10  A    between atoms: C_19  and  C_20
REMARK   11  A    between atoms: C_21  and  C_23
REMARK   12  A    between atoms: C_26  and  S_29
REMARK   13  A    between atoms: S_29  and  N_32
REMARK                            x       y       z     vdW  Elec       q    Type
REMARK                         _______ _______ _______ _____ _____    ______ ____
ROOT
ATOM      1  N   UNL     1       2.289  -3.347  -0.491  0.00  0.00    -0.248 N 
ATOM      2  C   UNL     1       1.383  -4.001  -1.309  0.00  0.00    +0.168 A 
ATOM      3  N   UNL     1       1.158  -5.289  -1.424  0.00  0.00    -0.221 NA
ATOM      4  C   UNL     1       0.234  -5.792  -2.272  0.00  0.00    +0.122 A 
ATOM      5  C   UNL     1      -0.105  -7.151  -2.491  0.00  0.00    +0.147 A 
ATOM      6  C   UNL     1      -1.079  -7.493  -3.400  0.00  0.00    +0.048 A 
ATOM      7  C   UNL     1      -1.759  -6.528  -4.129  0.00  0.00    +0.005 A 
ATOM      8  C   UNL     1      -1.452  -5.193  -3.938  0.00  0.00    +0.017 A 
ATOM      9  C   UNL     1      -0.481  -4.841  -3.033  0.00  0.00    +0.044 A 
ATOM     10  S   UNL     1       0.217  -3.306  -2.472  0.00  0.00    -0.052 S 
ATOM     11  C   UNL     1       3.092  -4.056   0.327  0.00  0.00    +0.252 C 
ATOM     12  O   UNL     1       3.063  -5.271   0.304  0.00  0.00    -0.270 OA
ENDROOT
BRANCH  11  13
ATOM     13  C   UNL     1       4.009  -3.356   1.251  0.00  0.00    +0.037 A 
ATOM     14  C   UNL     1       3.528  -2.340   2.079  0.00  0.00    +0.015 A 
ATOM     15  C   UNL     1       4.388  -1.690   2.940  0.00  0.00    +0.029 A 
ATOM     16  C   UNL     1       5.725  -2.044   2.984  0.00  0.00    +0.106 A 
ATOM     17  C   UNL     1       6.208  -3.050   2.166  0.00  0.00    +0.029 A 
ATOM     18  C   UNL     1       5.357  -3.711   1.305  0.00  0.00    +0.015 A 
BRANCH  16  19
ATOM     19  S   UNL     1       6.817  -1.209   4.086  0.00  0.00    +0.061 S 
ATOM     20  O   UNL     1       8.125  -1.351   3.547  0.00  0.00    -0.153 OA
ATOM     21  O   UNL     1       6.236   0.060   4.350  0.00  0.00    -0.153 OA
BRANCH  19  22
ATOM     22  N   UNL     1       6.802  -2.043   5.516  0.00  0.00    -0.177 NA
ATOM     23  C   UNL     1       5.884  -1.802   6.639  0.00  0.00    +0.109 C 
ATOM     24  C   UNL     1       6.258  -2.796   7.758  0.00  0.00    +0.018 C 
ATOM     25  C   UNL     1       7.729  -3.159   7.423  0.00  0.00    +0.018 C 
ATOM     26  C   UNL     1       7.703  -3.155   5.872  0.00  0.00    +0.109 C 
ENDBRANCH  19  22
ENDBRANCH  16  19
ENDBRANCH  11  13
BRANCH   1  27
ATOM     27  C   UNL     1       2.374  -1.885  -0.515  0.00  0.00    +0.097 C 
BRANCH  27  28
ATOM     28  C   UNL     1       1.197  -1.293   0.263  0.00  0.00    -0.059 C 
BRANCH  28  29
ATOM     29  N   UNL     1       1.363   0.163   0.370  0.00  0.00    +0.380 N 
ATOM     30  H   UNL     1       2.262   0.370   0.780  0.00  0.00    -0.082 HD
BRANCH  29  32
ATOM     31  C   UNL     1       1.599   2.259  -0.875  0.00  0.00    -0.017 C 
ATOM     32  C   UNL     1       1.286   0.764  -0.969  0.00  0.00    -0.082 C 
ENDBRANCH  29  32
BRANCH  29  33
ATOM     33  C   UNL     1       0.299   0.717   1.217  0.00  0.00    -0.082 C 
ATOM     34  C   UNL     1       0.465   0.200   2.648  0.00  0.00    -0.017 C 
ENDBRANCH  29  33
ENDBRANCH  28  29
ENDBRANCH  27  28
ENDBRANCH   1  27
BRANCH   5  35
ATOM     35  O   UNL     1       0.539  -8.126  -1.797  0.00  0.00    -0.490 OA
BRANCH  35  36
ATOM     36  C   UNL     1       0.152  -9.476  -2.063  0.00  0.00    +0.226 C 
ATOM     37  C   UNL     1       0.981 -10.425  -1.195  0.00  0.00    +0.048 C 
ENDBRANCH  35  36
ENDBRANCH   5  35
TORSDOF 10
