REMARK  Name = ZINC08990190
REMARK  12 active torsions:
REMARK  status: ('A' for Active; 'I' for Inactive)
REMARK    1  A    between atoms: C_1  and  C_2
REMARK    2  A    between atoms: C_2  and  C_3
REMARK    3  A    between atoms: C_2  and  C_4
REMARK    4  A    between atoms: C_4  and  N_63
REMARK    5  A    between atoms: C_5  and  C_6
REMARK    6  A    between atoms: C_5  and  N_63
REMARK    7  A    between atoms: C_7  and  O_28
REMARK    8  A    between atoms: C_14  and  C_15
REMARK    9  A    between atoms: C_29  and  C_30
REMARK   10  A    between atoms: C_29  and  N_63
REMARK   11  A    between atoms: C_30  and  C_31
REMARK   12  A    between atoms: C_30  and  C_32
REMARK                            x       y       z     vdW  Elec       q    Type
REMARK                         _______ _______ _______ _____ _____    ______ ____
ROOT
ATOM      1  C   UNL     1       3.290   4.150  -2.292  0.00  0.00    +0.020 A 
ATOM      2  C   UNL     1       4.669   4.071  -2.397  0.00  0.00    +0.122 A 
ATOM      3  C   UNL     1       5.311   2.835  -2.385  0.00  0.00    +0.046 A 
ATOM      4  C   UNL     1       4.582   1.685  -2.270  0.00  0.00    +0.019 A 
ATOM      5  C   UNL     1       3.192   1.750  -2.164  0.00  0.00    +0.068 A 
ATOM      6  C   UNL     1       2.534   2.990  -2.175  0.00  0.00    +0.144 A 
ATOM      7  O   UNL     1       1.202   2.800  -2.066  0.00  0.00    -0.451 OA
ATOM      8  C   UNL     1       0.887   1.486  -1.969  0.00  0.00    +0.176 C 
ATOM      9  C   UNL     1      -0.361   0.968  -1.844  0.00  0.00    +0.061 C 
ATOM     10  C   UNL     1       2.142   0.724  -2.030  0.00  0.00    +0.231 C 
ATOM     11  O   UNL     1       2.283  -0.486  -1.980  0.00  0.00    -0.283 OA
ENDROOT
BRANCH   9  12
ATOM     12  C   UNL     1      -1.535   1.834  -2.000  0.00  0.00    +0.022 A 
ATOM     13  C   UNL     1      -1.420   3.063  -2.661  0.00  0.00    +0.031 A 
ATOM     14  C   UNL     1      -2.529   3.868  -2.808  0.00  0.00    +0.042 A 
ATOM     15  C   UNL     1      -3.754   3.473  -2.293  0.00  0.00    +0.029 A 
ATOM     16  C   UNL     1      -3.880   2.265  -1.631  0.00  0.00    +0.022 A 
ATOM     17  C   UNL     1      -2.780   1.439  -1.481  0.00  0.00    +0.136 A 
ATOM     18  O   UNL     1      -2.892   0.247  -0.841  0.00  0.00    -0.465 OA
ATOM     19  C   UNL     1      -4.055   0.055  -0.031  0.00  0.00    +0.395 C 
ATOM     20  O   UNL     1      -5.206   0.457  -0.782  0.00  0.00    -0.339 OA
ATOM     21  C   UNL     1      -5.222   1.857  -1.075  0.00  0.00    +0.202 C 
ATOM     22 CL   UNL     1      -2.390   5.388  -3.637  0.00  0.00    -0.084 Cl
ENDBRANCH   9  12
BRANCH   2  23
ATOM     23  O   UNL     1       5.402   5.208  -2.512  0.00  0.00    -0.506 OA
ATOM     24  H   UNL     1       5.670   5.590  -1.665  0.00  0.00    +0.292 HD
ENDBRANCH   2  23
BRANCH   1  25
ATOM     25  C   UNL     1       2.610   5.495  -2.306  0.00  0.00    -0.036 C 
BRANCH  25  26
ATOM     26  N   UNL     1       2.294   5.881  -0.915  0.00  0.00    +0.383 N 
ATOM     27  H   UNL     1       1.903   5.069  -0.424  0.00  0.00    -0.081 HD
BRANCH  26  28
ATOM     28  C   UNL     1       3.524   6.316  -0.220  0.00  0.00    -0.075 C 
BRANCH  28  30
ATOM     29  C   UNL     1       5.511   5.498   1.056  0.00  0.00    +0.005 C 
ATOM     30  C   UNL     1       4.174   5.093   0.431  0.00  0.00    -0.034 C 
ATOM     31  C   UNL     1       3.249   4.542   1.518  0.00  0.00    +0.005 C 
ENDBRANCH  28  30
ENDBRANCH  26  28
BRANCH  26  32
ATOM     32  C   UNL     1       1.297   6.972  -0.907  0.00  0.00    -0.075 C 
BRANCH  32  33
ATOM     33  C   UNL     1      -0.093   6.366  -1.109  0.00  0.00    -0.034 C 
ATOM     34  C   UNL     1      -0.475   5.545   0.124  0.00  0.00    +0.005 C 
ATOM     35  C   UNL     1      -1.114   7.488  -1.312  0.00  0.00    +0.005 C 
ENDBRANCH  32  33
ENDBRANCH  26  32
ENDBRANCH  25  26
ENDBRANCH   1  25
TORSDOF 8
