REMARK  Name = ZINC02181811
REMARK  9 active torsions:
REMARK  status: ('A' for Active; 'I' for Inactive)
REMARK    1  A    between atoms: C_2  and  C_3
REMARK    2  A    between atoms: C_3  and  O_4
REMARK    3  A    between atoms: O_4  and  C_5
REMARK    4  A    between atoms: C_10  and  C_11
REMARK    5  A    between atoms: C_11  and  N_41
REMARK    6  A    between atoms: C_12  and  C_13
REMARK    7  A    between atoms: C_12  and  N_41
REMARK    8  A    between atoms: C_13  and  N_14
REMARK    9  A    between atoms: C_15  and  C_17
REMARK                            x       y       z     vdW  Elec       q    Type
REMARK                         _______ _______ _______ _____ _____    ______ ____
ROOT
ATOM      1  N   UNL     1       2.978   3.995  -1.377  0.00  0.00    +0.383 N 
ATOM      2  H   UNL     1       2.292   4.456  -1.986  0.00  0.00    -0.085 HD
ATOM      3  H   UNL     1       3.142   3.037  -1.710  0.00  0.00    -0.085 HD
ENDROOT
BRANCH   1   4
ATOM      4  C   UNL     1       2.451   3.947  -0.000  0.00  0.00    -0.043 C 
BRANCH   4  10
ATOM      5  C   UNL     1       1.179   1.786   0.000  0.00  0.00    +0.122 A 
ATOM      6  C   UNL     1      -0.013   1.076   0.008  0.00  0.00    +0.047 A 
ATOM      7  C   UNL     1      -1.218   1.751   0.017  0.00  0.00    +0.023 A 
ATOM      8  C   UNL     1      -1.237   3.134   0.030  0.00  0.00    +0.041 A 
ATOM      9  C   UNL     1      -0.050   3.844   0.022  0.00  0.00    +0.025 A 
ATOM     10  C   UNL     1       1.158   3.173   0.008  0.00  0.00    -0.021 A 
ATOM     11 CL   UNL     1      -2.753   3.980   0.048  0.00  0.00    -0.084 Cl
BRANCH   5  12
ATOM     12  O   UNL     1       2.366   1.124  -0.015  0.00  0.00    -0.488 OA
BRANCH  12  13
ATOM     13  C   UNL     1       2.312  -0.304  -0.022  0.00  0.00    +0.256 C 
BRANCH  13  15
ATOM     14  C   UNL     1       4.034  -1.851   0.756  0.00  0.00    +0.007 C 
ATOM     15  C   UNL     1       3.713  -0.859  -0.038  0.00  0.00    +0.006 C 
ENDBRANCH  13  15
ENDBRANCH  12  13
ENDBRANCH   5  12
ENDBRANCH   4  10
ENDBRANCH   1   4
BRANCH   1  16
ATOM     16  C   UNL     1       4.245   4.748  -1.415  0.00  0.00    -0.063 C 
BRANCH  16  17
ATOM     17  C   UNL     1       4.767   4.780  -2.853  0.00  0.00    +0.085 C 
BRANCH  17  18
ATOM     18  N   UNL     1       6.026   5.527  -2.899  0.00  0.00    -0.312 N 
ATOM     19  C   UNL     1       6.673   5.686  -4.071  0.00  0.00    +0.269 C 
ATOM     20  O   UNL     1       6.211   5.211  -5.089  0.00  0.00    -0.268 OA
ATOM     21  H   UNL     1       6.395   5.907  -2.086  0.00  0.00    +0.149 HD
BRANCH  19  22
ATOM     22  C   UNL     1       7.946   6.441  -4.117  0.00  0.00    +0.209 A 
ATOM     23  C   UNL     1       8.809   6.731  -5.285  0.00  0.00    +0.192 A 
ATOM     24  N   UNL     1       9.789   7.423  -4.750  0.00  0.00    -0.033 NA
ATOM     25  O   UNL     1       9.598   7.541  -3.563  0.00  0.00    -0.240 OA
ATOM     26  N   UNL     1       8.592   7.027  -3.133  0.00  0.00    -0.042 NA
ATOM     27  N   UNL     1       8.628   6.364  -6.611  0.00  0.00    -0.339 N 
ATOM     28  H   UNL     1       7.849   5.847  -6.869  0.00  0.00    +0.144 HD
ATOM     29  H   UNL     1       9.280   6.625  -7.280  0.00  0.00    +0.144 HD
ENDBRANCH  19  22
ENDBRANCH  17  18
ENDBRANCH  16  17
ENDBRANCH   1  16
TORSDOF 9
