REMARK  Name = ZINC40759060
REMARK  7 active torsions:
REMARK  status: ('A' for Active; 'I' for Inactive)
REMARK    1  A    between atoms: C_10  and  N_11
REMARK    2  A    between atoms: C_13  and  N_27
REMARK    3  A    between atoms: C_14  and  N_18
REMARK    4  A    between atoms: N_18  and  C_19
REMARK    5  A    between atoms: C_19  and  C_20
REMARK    6  A    between atoms: C_20  and  C_21
REMARK    7  A    between atoms: C_21  and  N_22
REMARK                            x       y       z     vdW  Elec       q    Type
REMARK                         _______ _______ _______ _____ _____    ______ ____
ROOT
ATOM      1  N   UNL     1       4.870   0.096  -0.045  0.00  0.00    -0.297 N 
ATOM      2  C   UNL     1       6.082  -0.578   0.045  0.00  0.00    +0.149 A 
ATOM      3  C   UNL     1       7.281   0.130   0.148  0.00  0.00    +0.105 A 
ATOM      4  C   UNL     1       8.470  -0.597   0.236  0.00  0.00    +0.145 A 
ATOM      5  N   UNL     1       8.416  -1.926   0.218  0.00  0.00    -0.219 NA
ATOM      6  C   UNL     1       7.263  -2.556   0.119  0.00  0.00    +0.225 A 
ATOM      7  N   UNL     1       6.118  -1.909   0.039  0.00  0.00    -0.219 NA
ATOM      8  H   UNL     1       4.857   1.063  -0.124  0.00  0.00    +0.154 HD
ENDROOT
BRANCH   1  18
ATOM      9  C   UNL     1       0.199   0.944  -1.758  0.00  0.00    +0.001 A 
ATOM     10  C   UNL     1       1.386   1.674  -1.792  0.00  0.00    +0.001 A 
ATOM     11  C   UNL     1       2.526   1.183  -1.233  0.00  0.00    +0.010 A 
ATOM     12  C   UNL     1       2.510  -0.076  -0.613  0.00  0.00    +0.003 A 
ATOM     13  C   UNL     1       1.304  -0.819  -0.578  0.00  0.00    -0.016 A 
ATOM     14  C   UNL     1       0.146  -0.280  -1.166  0.00  0.00    +0.008 A 
ATOM     15  C   UNL     1       1.286  -2.079   0.043  0.00  0.00    +0.008 A 
ATOM     16  C   UNL     1       2.422  -2.577   0.605  0.00  0.00    +0.002 A 
ATOM     17  C   UNL     1       3.613  -1.857   0.577  0.00  0.00    +0.024 A 
ATOM     18  C   UNL     1       3.672  -0.617  -0.022  0.00  0.00    +0.040 A 
ENDBRANCH   1  18
BRANCH   3  19
ATOM     19  N   UNL     1       7.291   1.534   0.162  0.00  0.00    -0.353 N 
ATOM     20  H   UNL     1       6.457   2.025   0.100  0.00  0.00    +0.143 HD
ATOM     21  H   UNL     1       8.132   2.012   0.234  0.00  0.00    +0.143 HD
ENDBRANCH   3  19
BRANCH   4  22
ATOM     22  N   UNL     1       9.691   0.059   0.340  0.00  0.00    -0.327 N 
ATOM     23  H   UNL     1       9.722   1.028   0.351  0.00  0.00    +0.148 HD
BRANCH  22  24
ATOM     24  C   UNL     1      10.932  -0.715   0.431  0.00  0.00    +0.105 C 
BRANCH  24  25
ATOM     25  C   UNL     1      12.123   0.241   0.535  0.00  0.00    +0.040 C 
BRANCH  25  26
ATOM     26  C   UNL     1      13.418  -0.567   0.631  0.00  0.00    +0.124 C 
BRANCH  26  27
ATOM     27  N   UNL     1      14.558   0.348   0.731  0.00  0.00    -0.338 N 
ATOM     28  C   UNL     1      15.274   0.871  -0.312  0.00  0.00    +0.104 A 
ATOM     29  C   UNL     1      16.226   1.657   0.224  0.00  0.00    +0.101 A 
ATOM     30  N   UNL     1      16.095   1.617   1.558  0.00  0.00    -0.352 N 
ATOM     31  C   UNL     1      15.095   0.838   1.869  0.00  0.00    +0.173 A 
ATOM     32  H   UNL     1      16.654   2.093   2.192  0.00  0.00    +0.166 HD
ENDBRANCH  26  27
ENDBRANCH  25  26
ENDBRANCH  24  25
ENDBRANCH  22  24
ENDBRANCH   4  22
TORSDOF 7
