REMARK  Name = ZINC17073859
REMARK  5 active torsions:
REMARK  status: ('A' for Active; 'I' for Inactive)
REMARK    1  A    between atoms: C_6  and  N_7
REMARK    2  A    between atoms: N_7  and  C_8
REMARK    3  A    between atoms: C_8  and  N_10
REMARK    4  A    between atoms: N_10  and  C_11
REMARK    5  A    between atoms: C_16  and  O_17
REMARK                            x       y       z     vdW  Elec       q    Type
REMARK                         _______ _______ _______ _____ _____    ______ ____
ROOT
ATOM      1  C   UNL     1       0.458  -0.623  -3.609  0.00  0.00    +0.139 C 
ATOM      2  S   UNL     1       0.960  -2.259  -3.667  0.00  0.00    -0.018 S 
ENDROOT
BRANCH   1   3
ATOM      3  N   UNL     1       0.138   0.025  -4.747  0.00  0.00    -0.297 N 
ATOM      4  H   UNL     1      -0.087   0.968  -4.721  0.00  0.00    +0.154 HD
BRANCH   3  10
ATOM      5  C   UNL     1       1.181  -1.510  -6.292  0.00  0.00    +0.024 A 
ATOM      6  C   UNL     1       1.167  -2.194  -7.492  0.00  0.00    +0.017 A 
ATOM      7  C   UNL     1       0.114  -2.025  -8.374  0.00  0.00    +0.018 A 
ATOM      8  C   UNL     1      -0.931  -1.177  -8.053  0.00  0.00    +0.017 A 
ATOM      9  C   UNL     1      -0.926  -0.497  -6.851  0.00  0.00    +0.024 A 
ATOM     10  C   UNL     1       0.130  -0.663  -5.965  0.00  0.00    +0.033 A 
ATOM     11 BR   UNL     1       0.103  -2.956 -10.020  0.00  0.00    -0.050 Br
ENDBRANCH   3  10
ENDBRANCH   1   3
BRANCH   1  12
ATOM     12  N   UNL     1       0.382   0.017  -2.425  0.00  0.00    -0.294 N 
ATOM     13  H   UNL     1       0.029   0.920  -2.383  0.00  0.00    +0.154 HD
BRANCH  12  14
ATOM     14  C   UNL     1       0.813  -0.621  -1.255  0.00  0.00    +0.076 A 
ATOM     15  C   UNL     1       0.378  -1.905  -0.962  0.00  0.00    +0.047 A 
ATOM     16  C   UNL     1       0.801  -2.531   0.196  0.00  0.00    +0.043 A 
ATOM     17  C   UNL     1       1.662  -1.881   1.062  0.00  0.00    +0.023 A 
ATOM     18  C   UNL     1       2.104  -0.603   0.774  0.00  0.00    +0.049 A 
ATOM     19  C   UNL     1       1.684   0.030  -0.385  0.00  0.00    +0.138 A 
ATOM     20 CL   UNL     1       0.251  -4.136   0.564  0.00  0.00    -0.083 Cl
BRANCH  19  21
ATOM     21  O   UNL     1       2.118   1.288  -0.669  0.00  0.00    -0.505 OA
ATOM     22  H   UNL     1       2.935   1.314  -1.186  0.00  0.00    +0.292 HD
ENDBRANCH  19  21
ENDBRANCH  12  14
ENDBRANCH   1  12
TORSDOF 5
