REMARK  Name = ZINC08226608
REMARK  8 active torsions:
REMARK  status: ('A' for Active; 'I' for Inactive)
REMARK    1  A    between atoms: C_1  and  C_2
REMARK    2  A    between atoms: C_2  and  N_3
REMARK    3  A    between atoms: N_3  and  C_4
REMARK    4  A    between atoms: C_8  and  C_10
REMARK    5  A    between atoms: C_11  and  C_13
REMARK    6  A    between atoms: C_16  and  C_18
REMARK    7  A    between atoms: C_19  and  C_24
REMARK    8  A    between atoms: C_22  and  C_23
REMARK                            x       y       z     vdW  Elec       q    Type
REMARK                         _______ _______ _______ _____ _____    ______ ____
ROOT
ATOM      1  N   UNL     1      -0.084   5.269   0.036  0.00  0.00    -0.267 N 
ATOM      2  C   UNL     1      -1.221   5.984  -0.080  0.00  0.00    +0.257 C 
ATOM      3  O   UNL     1      -2.299   5.417  -0.086  0.00  0.00    -0.269 OA
ENDROOT
BRANCH   1   4
ATOM      4  C   UNL     1      -0.133   3.872   0.028  0.00  0.00    +0.037 A 
ATOM      5  C   UNL     1       1.044   3.135  -0.002  0.00  0.00    +0.023 A 
ATOM      6  C   UNL     1       0.992   1.755  -0.010  0.00  0.00    +0.002 A 
ATOM      7  C   UNL     1      -0.229   1.107   0.011  0.00  0.00    +0.003 A 
ATOM      8  C   UNL     1      -1.403   1.838   0.035  0.00  0.00    -0.049 A 
ATOM      9  C   UNL     1      -1.358   3.218   0.049  0.00  0.00    +0.027 A 
ATOM     10  C   UNL     1      -2.732   1.128   0.052  0.00  0.00    +0.044 C 
ENDBRANCH   1   4
BRANCH   2  11
ATOM     11  C   UNL     1      -1.160   7.441  -0.199  0.00  0.00    +0.075 A 
ATOM     12  C   UNL     1      -2.193   8.342  -0.418  0.00  0.00    +0.021 A 
ATOM     13  C   UNL     1      -1.897   9.674  -0.489  0.00  0.00    +0.017 A 
ATOM     14  C   UNL     1      -0.577  10.072  -0.353  0.00  0.00    +0.025 A 
ATOM     15  S   UNL     1       0.263   8.515  -0.108  0.00  0.00    -0.084 S 
BRANCH  14  16
ATOM     16  C   UNL     1      -0.009  11.435  -0.399  0.00  0.00    +0.053 A 
ATOM     17  C   UNL     1       0.033  12.336  -1.502  0.00  0.00    +0.089 A 
ATOM     18  N   UNL     1       0.623  13.412  -1.072  0.00  0.00    -0.083 NA
ATOM     19  O   UNL     1       0.950  13.316   0.088  0.00  0.00    -0.359 OA
ATOM     20  C   UNL     1       0.607  12.131   0.608  0.00  0.00    +0.143 A 
ATOM     21  C   UNL     1       0.852  11.656   2.017  0.00  0.00    +0.090 C 
ATOM     22  C   UNL     1      -0.503  12.092  -2.890  0.00  0.00    +0.070 C 
ENDBRANCH  14  16
ENDBRANCH   2  11
BRANCH   1  24
ATOM     23  C   UNL     1       1.730   6.328  -1.216  0.00  0.00    +0.025 C 
ATOM     24  C   UNL     1       1.203   5.957   0.172  0.00  0.00    +0.110 C 
ENDBRANCH   1  24
TORSDOF 4
