REMARK  Name = ZINC66657604
REMARK  4 active torsions:
REMARK  status: ('A' for Active; 'I' for Inactive)
REMARK    1  A    between atoms: C_1  and  N_2
REMARK    2  A    between atoms: N_2  and  C_3
REMARK    3  A    between atoms: C_4  and  C_6
REMARK    4  A    between atoms: C_12  and  C_14
REMARK                            x       y       z     vdW  Elec       q    Type
REMARK                         _______ _______ _______ _____ _____    ______ ____
ROOT
ATOM      1  C   UNL     1      -1.135  -2.201   0.001  0.00  0.00    +0.173 C 
ATOM      2  C   UNL     1      -0.346  -2.688   1.241  0.00  0.00    +0.102 C 
ATOM      3  S   UNL     1      -1.750  -3.124   2.362  0.00  0.00    -0.139 S 
ATOM      4  C   UNL     1      -2.948  -3.571   1.028  0.00  0.00    +0.178 C 
ATOM      5  N   UNL     1      -2.506  -2.680  -0.062  0.00  0.00    -0.280 N 
ATOM      6  C   UNL     1      -3.333  -2.331  -1.066  0.00  0.00    +0.220 C 
ATOM      7  O   UNL     1      -2.940  -1.599  -1.949  0.00  0.00    -0.275 OA
ENDROOT
BRANCH   6   8
ATOM      8  C   UNL     1      -4.748  -2.851  -1.093  0.00  0.00    +0.080 C 
ATOM      9  C   UNL     1      -4.730  -4.382  -1.156  0.00  0.00    +0.041 C 
ATOM     10  C   UNL     1      -6.167  -4.897  -1.261  0.00  0.00    +0.160 C 
ATOM     11  O   UNL     1      -6.791  -4.331  -2.415  0.00  0.00    -0.380 OA
ATOM     12  C   UNL     1      -6.879  -2.905  -2.390  0.00  0.00    +0.160 C 
ATOM     13  C   UNL     1      -5.470  -2.309  -2.330  0.00  0.00    +0.041 C 
ENDBRANCH   6   8
BRANCH   1  17
ATOM     14  C   UNL     1      -0.018   1.461   0.010  0.00  0.00    +0.131 C 
ATOM     15  N   UNL     1       0.002  -0.004   0.002  0.00  0.00    -0.306 N 
ATOM     16  C   UNL     1       1.281  -0.719  -0.014  0.00  0.00    +0.131 C 
ATOM     17  C   UNL     1      -1.156  -0.694   0.009  0.00  0.00    +0.236 C 
ATOM     18  O   UNL     1      -2.214  -0.102   0.023  0.00  0.00    -0.274 OA
ENDBRANCH   1  17
TORSDOF 2
