REMARK  Name = ZINC04685857
REMARK  3 active torsions:
REMARK  status: ('A' for Active; 'I' for Inactive)
REMARK    1  A    between atoms: C_1  and  C_2
REMARK    2  A    between atoms: C_23  and  C_27
REMARK    3  A    between atoms: C_23  and  C_28
REMARK                            x       y       z     vdW  Elec       q    Type
REMARK                         _______ _______ _______ _____ _____    ______ ____
ROOT
ATOM      1  C   UNL     1      -0.018   1.503   0.010  0.00  0.00    +0.092 C 
ATOM      2  C   UNL     1       0.002  -0.004   0.002  0.00  0.00    +0.169 C 
ATOM      3  O   UNL     1       0.022  -0.681   1.160  0.00  0.00    -0.292 OA
ATOM      4  C   UNL     1       0.000  -0.687  -1.195  0.00  0.00    +0.123 C 
ATOM      5  C   UNL     1       0.012  -2.147  -1.367  0.00  0.00    +0.192 C 
ATOM      6  C   UNL     1      -0.150  -2.353  -2.844  0.00  0.00    +0.156 C 
ATOM      7  C   UNL     1       0.873  -3.293  -3.468  0.00  0.00    +0.055 C 
ATOM      8  C   UNL     1       0.559  -4.753  -3.455  0.00  0.00    -0.016 A 
ATOM      9  C   UNL     1       0.024  -5.638  -2.634  0.00  0.00    +0.087 A 
ATOM     10  N   UNL     1       0.021  -6.898  -3.214  0.00  0.00    -0.360 N 
ATOM     11  H   UNL     1      -0.325  -7.700  -2.792  0.00  0.00    +0.165 HD
ATOM     12  C   UNL     1       0.573  -6.849  -4.458  0.00  0.00    +0.047 A 
ATOM     13  C   UNL     1       0.918  -5.508  -4.668  0.00  0.00    +0.006 A 
ATOM     14  C   UNL     1       1.494  -4.987  -5.832  0.00  0.00    -0.038 A 
ATOM     15  C   UNL     1       1.758  -5.889  -6.810  0.00  0.00    +0.004 A 
ATOM     16  C   UNL     1       1.442  -7.235  -6.631  0.00  0.00    +0.002 A 
ATOM     17  C   UNL     1       0.851  -7.750  -5.484  0.00  0.00    +0.026 A 
ATOM     18  C   UNL     1       1.720  -3.493  -5.867  0.00  0.00    +0.042 C 
ATOM     19  C   UNL     1       0.710  -2.842  -4.959  0.00  0.00    +0.026 C 
ATOM     20  C   UNL     1       0.662  -1.325  -4.845  0.00  0.00    +0.037 C 
ATOM     21  N   UNL     1       0.157  -1.039  -3.468  0.00  0.00    -0.281 N 
ATOM     22  C   UNL     1      -0.021  -0.089  -2.541  0.00  0.00    +0.254 C 
ATOM     23  O   UNL     1      -0.176   1.094  -2.776  0.00  0.00    -0.270 OA
ATOM     24  C   UNL     1      -0.312  -0.747  -5.874  0.00  0.00    +0.032 C 
ATOM     25  C   UNL     1       2.059  -0.735  -5.047  0.00  0.00    +0.032 C 
ATOM     26  O   UNL     1       0.128  -2.996  -0.506  0.00  0.00    -0.290 OA
ENDROOT
TORSDOF 0
