REMARK  Name = ZINC02597435
REMARK  5 active torsions:
REMARK  status: ('A' for Active; 'I' for Inactive)
REMARK    1  A    between atoms: C_1  and  C_2
REMARK    2  A    between atoms: C_5  and  C_8
REMARK    3  A    between atoms: C_9  and  C_17
REMARK    4  A    between atoms: C_11  and  N_16
REMARK    5  A    between atoms: C_12  and  C_13
REMARK                            x       y       z     vdW  Elec       q    Type
REMARK                         _______ _______ _______ _____ _____    ______ ____
ROOT
ATOM      1  C   UNL     1      -1.950   2.293   1.259  0.00  0.00    +0.006 A 
ATOM      2  C   UNL     1      -3.130   2.954   1.152  0.00  0.00    -0.003 A 
ATOM      3  S   UNL     1      -3.365   3.090  -0.608  0.00  0.00    -0.078 S 
ATOM      4  C   UNL     1      -1.930   2.295  -1.159  0.00  0.00    +0.076 A 
ATOM      5  C   UNL     1      -1.291   1.927   0.019  0.00  0.00    +0.072 A 
ATOM      6  C   UNL     1      -4.026   3.452   2.257  0.00  0.00    +0.052 C 
ENDROOT
BRANCH   1  11
ATOM      7  C   UNL     1       0.332   1.001   6.386  0.00  0.00    +0.044 C 
ATOM      8  C   UNL     1      -0.265   1.339   5.044  0.00  0.00    -0.050 A 
ATOM      9  C   UNL     1      -0.401   2.662   4.664  0.00  0.00    +0.004 A 
ATOM     10  C   UNL     1      -0.947   2.978   3.437  0.00  0.00    +0.009 A 
ATOM     11  C   UNL     1      -1.362   1.960   2.579  0.00  0.00    -0.016 A 
ATOM     12  C   UNL     1      -1.227   0.628   2.969  0.00  0.00    +0.009 A 
ATOM     13  C   UNL     1      -0.675   0.325   4.197  0.00  0.00    +0.004 A 
ENDBRANCH   1  11
BRANCH   5  14
ATOM     14  C   UNL     1      -0.014   1.213   0.009  0.00  0.00    +0.244 C 
ATOM     15  O   UNL     1       0.002  -0.004   0.002  0.00  0.00    -0.270 OA
ATOM     16  N   UNL     1       1.143   1.903   0.001  0.00  0.00    -0.325 N 
ATOM     17  H   UNL     1       1.990   1.429  -0.009  0.00  0.00    +0.145 HD
ATOM     18  H   UNL     1       1.130   2.873   0.007  0.00  0.00    +0.145 HD
ENDBRANCH   5  14
BRANCH   4  19
ATOM     19  N   UNL     1      -1.519   2.076  -2.459  0.00  0.00    -0.352 N 
ATOM     20  H   UNL     1      -0.685   1.611  -2.633  0.00  0.00    +0.143 HD
ATOM     21  H   UNL     1      -2.064   2.387  -3.199  0.00  0.00    +0.143 HD
ENDBRANCH   4  19
TORSDOF 3
