REMARK  Name = ZINC45889067
REMARK  5 active torsions:
REMARK  status: ('A' for Active; 'I' for Inactive)
REMARK    1  A    between atoms: C_1  and  C_2
REMARK    2  A    between atoms: C_6  and  C_19
REMARK    3  A    between atoms: C_7  and  N_8
REMARK    4  A    between atoms: C_9  and  C_11
REMARK    5  A    between atoms: N_23  and  N_24
REMARK                            x       y       z     vdW  Elec       q    Type
REMARK                         _______ _______ _______ _____ _____    ______ ____
ROOT
ATOM      1  C   UNL     1       0.978   1.360   0.025  0.00  0.00    +0.046 C 
ATOM      2  C   UNL     1       0.493  -0.067   0.011  0.00  0.00    -0.027 A 
ATOM      3  C   UNL     1       0.614  -0.804  -1.138  0.00  0.00    +0.034 A 
ATOM      4  C   UNL     1       0.169  -2.145  -1.188  0.00  0.00    +0.081 A 
ATOM      5  C   UNL     1      -0.395  -2.663   0.001  0.00  0.00    +0.045 A 
ATOM      6  C   UNL     1      -0.515  -1.922   1.149  0.00  0.00    -0.013 A 
ATOM      7  C   UNL     1      -0.063  -0.609   1.167  0.00  0.00    +0.041 A 
ATOM      8  C   UNL     1      -1.127  -2.531   2.384  0.00  0.00    +0.047 C 
ATOM      9  S   UNL     1      -0.812  -4.325  -0.471  0.00  0.00    -0.051 S 
ATOM     10  C   UNL     1      -0.231  -4.233  -2.158  0.00  0.00    +0.173 A 
ATOM     11  N   UNL     1       0.217  -3.001  -2.234  0.00  0.00    -0.224 NA
ATOM     12  N   UNL     1      -0.247  -5.209  -3.134  0.00  0.00    -0.262 N 
ATOM     13  H   UNL     1      -0.612  -6.086  -2.936  0.00  0.00    +0.168 HD
ENDROOT
BRANCH   7  14
ATOM     14  N   UNL     1      -0.171   0.163   2.330  0.00  0.00    -0.281 N 
ATOM     15  C   UNL     1       0.338  -0.295   3.491  0.00  0.00    +0.250 C 
ATOM     16  O   UNL     1       0.800  -1.418   3.552  0.00  0.00    -0.270 OA
ATOM     17  H   UNL     1      -0.612   1.026   2.301  0.00  0.00    +0.155 HD
BRANCH  15  18
ATOM     18  C   UNL     1       0.334   0.568   4.691  0.00  0.00    +0.057 A 
ATOM     19  C   UNL     1      -0.201   1.856   4.626  0.00  0.00    +0.034 A 
ATOM     20  C   UNL     1      -0.202   2.657   5.750  0.00  0.00    +0.042 A 
ATOM     21  C   UNL     1       0.327   2.186   6.941  0.00  0.00    +0.021 A 
ATOM     22  C   UNL     1       0.859   0.911   7.012  0.00  0.00    +0.022 A 
ATOM     23  C   UNL     1       0.860   0.097   5.896  0.00  0.00    +0.053 A 
ATOM     24 CL   UNL     1       1.522  -1.506   5.989  0.00  0.00    -0.083 Cl
ATOM     25 CL   UNL     1      -0.866   4.259   5.672  0.00  0.00    -0.084 Cl
ENDBRANCH  15  18
ENDBRANCH   7  14
BRANCH  12  26
ATOM     26  N   UNL     1       0.250  -4.941  -4.378  0.00  0.00    -0.255 NA
ATOM     27  H   UNL     1       0.171  -5.746  -4.981  0.00  0.00    +0.140 HD
ATOM     28  H   UNL     1      -0.207  -4.138  -4.784  0.00  0.00    +0.140 HD
ENDBRANCH  12  26
TORSDOF 3
