REMARK  Name = ZINC01252440
REMARK  13 active torsions:
REMARK  status: ('A' for Active; 'I' for Inactive)
REMARK    1  A    between atoms: C_1  and  C_2
REMARK    2  A    between atoms: C_2  and  N_3
REMARK    3  A    between atoms: C_4  and  C_25
REMARK    4  A    between atoms: C_7  and  S_8
REMARK    5  A    between atoms: S_8  and  C_9
REMARK    6  A    between atoms: C_9  and  C_10
REMARK    7  A    between atoms: N_12  and  N_13
REMARK    8  A    between atoms: C_14  and  C_15
REMARK    9  A    between atoms: C_18  and  O_23
REMARK   10  A    between atoms: C_19  and  O_21
REMARK   11  A    between atoms: O_21  and  C_22
REMARK   12  A    between atoms: O_23  and  C_24
REMARK   13  A    between atoms: C_28  and  C_31
REMARK                            x       y       z     vdW  Elec       q    Type
REMARK                         _______ _______ _______ _____ _____    ______ ____
ROOT
ATOM      1  C   UNL     1      -0.180  -4.812  -0.051  0.00  0.00    +0.174 C 
ENDROOT
BRANCH   1   2
ATOM      2  C   UNL     1      -0.751  -6.203  -0.151  0.00  0.00    +0.242 C 
ATOM      3  O   UNL     1      -1.938  -6.359  -0.348  0.00  0.00    -0.273 OA
ATOM      4  N   UNL     1       0.057  -7.274  -0.021  0.00  0.00    -0.206 N 
ATOM      5  H   UNL     1       1.006  -7.149   0.136  0.00  0.00    +0.177 HD
BRANCH   4   6
ATOM      6  N   UNL     1      -0.474  -8.567  -0.114  0.00  0.00    -0.188 NA
ATOM      7  C   UNL     1       0.304  -9.598   0.011  0.00  0.00    +0.138 C 
BRANCH   7   8
ATOM      8  C   UNL     1      -0.254 -10.959  -0.087  0.00  0.00    -0.002 A 
ATOM      9  C   UNL     1      -1.622 -11.141  -0.308  0.00  0.00    +0.013 A 
ATOM     10  C   UNL     1      -2.141 -12.415  -0.405  0.00  0.00    +0.050 A 
ATOM     11  C   UNL     1      -1.311 -13.518  -0.272  0.00  0.00    +0.162 A 
ATOM     12  C   UNL     1       0.053 -13.345  -0.045  0.00  0.00    +0.162 A 
ATOM     13  C   UNL     1       0.582 -12.071   0.047  0.00  0.00    +0.059 A 
BRANCH  12  14
ATOM     14  O   UNL     1       0.864 -14.429   0.084  0.00  0.00    -0.491 OA
ATOM     15  C   UNL     1       2.251 -14.177   0.315  0.00  0.00    +0.277 C 
ENDBRANCH  12  14
BRANCH  11  16
ATOM     16  O   UNL     1      -1.829 -14.771  -0.363  0.00  0.00    -0.491 OA
ATOM     17  C   UNL     1      -3.235 -14.877  -0.597  0.00  0.00    +0.277 C 
ENDBRANCH  11  16
ENDBRANCH   7   8
ENDBRANCH   4   6
ENDBRANCH   1   2
BRANCH   1  18
ATOM     18  S   UNL     1      -1.506  -3.599  -0.266  0.00  0.00    -0.077 S 
BRANCH  18  23
ATOM     19  N   UNL     1      -1.079  -0.836  -0.179  0.00  0.00    -0.302 N 
ATOM     20  C   UNL     1       0.003  -0.004  -0.002  0.00  0.00    +0.165 A 
ATOM     21  N   UNL     1       1.054  -0.771   0.169  0.00  0.00    -0.128 NA
ATOM     22  N   UNL     1       0.710  -2.007   0.107  0.00  0.00    -0.122 NA
ATOM     23  C   UNL     1      -0.583  -2.106  -0.107  0.00  0.00    +0.192 A 
BRANCH  20  24
ATOM     24  C   UNL     1      -0.017   1.474   0.001  0.00  0.00    +0.019 A 
ATOM     25  C   UNL     1      -1.082   2.163  -0.582  0.00  0.00    +0.012 A 
ATOM     26  C   UNL     1      -1.096   3.542  -0.570  0.00  0.00    +0.004 A 
ATOM     27  C   UNL     1      -0.053   4.243   0.008  0.00  0.00    -0.050 A 
ATOM     28  C   UNL     1       1.009   3.567   0.582  0.00  0.00    +0.004 A 
ATOM     29  C   UNL     1       1.033   2.188   0.582  0.00  0.00    +0.012 A 
ATOM     30  C   UNL     1      -0.073   5.750   0.012  0.00  0.00    +0.044 C 
ENDBRANCH  20  24
BRANCH  19  32
ATOM     31  C   UNL     1      -2.761  -0.413  -1.903  0.00  0.00    +0.027 C 
ATOM     32  C   UNL     1      -2.472  -0.441  -0.401  0.00  0.00    +0.122 C 
ENDBRANCH  19  32
ENDBRANCH  18  23
ENDBRANCH   1  18
TORSDOF 9
