REMARK  Name = ZINC16608656
REMARK  10 active torsions:
REMARK  status: ('A' for Active; 'I' for Inactive)
REMARK    1  A    between atoms: C_1  and  C_2
REMARK    2  A    between atoms: C_2  and  C_3
REMARK    3  A    between atoms: C_3  and  C_5
REMARK    4  A    between atoms: C_3  and  C_6
REMARK    5  A    between atoms: C_6  and  C_8
REMARK    6  A    between atoms: C_6  and  N_25
REMARK    7  A    between atoms: C_14  and  C_16
REMARK    8  A    between atoms: N_25  and  S_26
REMARK    9  A    between atoms: S_26  and  C_29
REMARK   10  A    between atoms: C_32  and  C_35
REMARK                            x       y       z     vdW  Elec       q    Type
REMARK                         _______ _______ _______ _____ _____    ______ ____
ROOT
ATOM      1  C   UNL     1       0.415  -0.286   2.453  0.00  0.00    +0.238 C 
ATOM      2  O   UNL     1       1.569  -0.647   2.539  0.00  0.00    -0.274 OA
ATOM      3  N   UNL     1      -0.567  -1.196   2.300  0.00  0.00    -0.262 N 
ATOM      4  C   UNL     1      -0.250  -2.540   2.140  0.00  0.00    +0.188 A 
ATOM      5  N   UNL     1       0.934  -3.138   2.107  0.00  0.00    -0.125 NA
ATOM      6  N   UNL     1       1.047  -4.385   1.951  0.00  0.00    -0.140 NA
ATOM      7  C   UNL     1      -0.012  -5.173   1.811  0.00  0.00    +0.134 A 
ATOM      8  S   UNL     1      -1.322  -3.958   1.927  0.00  0.00    -0.030 S 
ATOM      9  H   UNL     1      -1.495  -0.914   2.302  0.00  0.00    +0.157 HD
ENDROOT
BRANCH   7  10
ATOM     10  C   UNL     1      -0.088  -6.636   1.621  0.00  0.00    +0.013 A 
ATOM     11  C   UNL     1      -1.330  -7.262   1.496  0.00  0.00    +0.014 A 
ATOM     12  C   UNL     1      -1.399  -8.628   1.319  0.00  0.00    +0.050 A 
ATOM     13  C   UNL     1      -0.238  -9.384   1.263  0.00  0.00    +0.166 A 
ATOM     14  C   UNL     1       1.006  -8.765   1.388  0.00  0.00    +0.167 A 
ATOM     15  C   UNL     1       1.081  -7.396   1.561  0.00  0.00    +0.060 A 
ATOM     16  O   UNL     1       1.978  -9.720   1.301  0.00  0.00    -0.453 OA
ATOM     17  C   UNL     1       1.338 -10.868   0.714  0.00  0.00    +0.466 C 
ATOM     18  O   UNL     1      -0.042 -10.725   1.099  0.00  0.00    -0.453 OA
ENDBRANCH   7  10
BRANCH   1  19
ATOM     19  C   UNL     1       0.078   1.182   2.515  0.00  0.00    +0.165 C 
BRANCH  19  20
ATOM     20  C   UNL     1      -0.095   1.727   1.096  0.00  0.00    +0.013 C 
ATOM     21  C   UNL     1       1.206   1.536   0.315  0.00  0.00    +0.009 C 
BRANCH  20  23
ATOM     22  C   UNL     1      -0.732   3.733  -0.249  0.00  0.00    +0.004 C 
ATOM     23  C   UNL     1      -0.437   3.217   1.160  0.00  0.00    +0.002 C 
ENDBRANCH  20  23
ENDBRANCH  19  20
BRANCH  19  24
ATOM     24  N   UNL     1       1.162   1.903   3.187  0.00  0.00    -0.178 NA
ATOM     25  H   UNL     1       2.082   1.619   3.066  0.00  0.00    +0.149 HD
BRANCH  24  26
ATOM     26  S   UNL     1       0.817   3.204   4.153  0.00  0.00    +0.059 S 
ATOM     27  O   UNL     1       2.057   3.663   4.673  0.00  0.00    -0.153 OA
ATOM     28  O   UNL     1      -0.054   4.043   3.408  0.00  0.00    -0.153 OA
BRANCH  26  29
ATOM     29  C   UNL     1      -0.113   2.602   5.524  0.00  0.00    +0.105 A 
ATOM     30  C   UNL     1      -1.492   2.555   5.455  0.00  0.00    +0.029 A 
ATOM     31  C   UNL     1      -2.221   2.079   6.529  0.00  0.00    +0.005 A 
ATOM     32  C   UNL     1      -1.571   1.660   7.675  0.00  0.00    -0.050 A 
ATOM     33  C   UNL     1      -0.192   1.712   7.745  0.00  0.00    +0.005 A 
ATOM     34  C   UNL     1       0.538   2.184   6.670  0.00  0.00    +0.029 A 
ATOM     35  C   UNL     1      -2.367   1.146   8.847  0.00  0.00    +0.044 C 
ENDBRANCH  26  29
ENDBRANCH  24  26
ENDBRANCH  19  24
ENDBRANCH   1  19
TORSDOF 7
