REMARK  Name = ZINC43677252
REMARK  6 active torsions:
REMARK  status: ('A' for Active; 'I' for Inactive)
REMARK    1  A    between atoms: C_4  and  C_7
REMARK    2  A    between atoms: C_7  and  O_8
REMARK    3  A    between atoms: O_8  and  C_9
REMARK    4  A    between atoms: C_9  and  C_11
REMARK    5  A    between atoms: C_13  and  N_18
REMARK    6  A    between atoms: C_15  and  N_17
REMARK                            x       y       z     vdW  Elec       q    Type
REMARK                         _______ _______ _______ _____ _____    ______ ____
ROOT
ATOM      1  C   UNL     1       1.897  -4.442  -2.932  0.00  0.00    +0.062 A 
ATOM      2  C   UNL     1       1.733  -3.601  -4.033  0.00  0.00    +0.037 A 
ATOM      3  C   UNL     1       1.821  -4.118  -5.317  0.00  0.00    +0.027 A 
ATOM      4  C   UNL     1       2.072  -5.470  -5.508  0.00  0.00    +0.045 A 
ATOM      5  C   UNL     1       2.236  -6.310  -4.414  0.00  0.00    +0.027 A 
ATOM      6  C   UNL     1       2.155  -5.800  -3.127  0.00  0.00    +0.037 A 
ENDROOT
BRANCH   5   7
ATOM      7  N   UNL     1       2.487  -7.670  -4.611  0.00  0.00    -0.358 N 
ATOM      8  H   UNL     1       2.547  -8.027  -5.511  0.00  0.00    +0.142 HD
ATOM      9  H   UNL     1       2.602  -8.258  -3.847  0.00  0.00    +0.142 HD
ENDBRANCH   5   7
BRANCH   3  10
ATOM     10  N   UNL     1       1.657  -3.276  -6.420  0.00  0.00    -0.358 N 
ATOM     11  H   UNL     1       1.481  -2.332  -6.288  0.00  0.00    +0.142 HD
ATOM     12  H   UNL     1       1.719  -3.637  -7.319  0.00  0.00    +0.142 HD
ENDBRANCH   3  10
BRANCH   1  13
ATOM     13  C   UNL     1       1.805  -3.896  -1.562  0.00  0.00    +0.340 C 
ATOM     14  O   UNL     1       1.953  -4.628  -0.604  0.00  0.00    -0.245 OA
BRANCH  13  15
ATOM     15  O   UNL     1       1.556  -2.585  -1.375  0.00  0.00    -0.456 OA
BRANCH  15  16
ATOM     16  C   UNL     1       1.480  -2.125  -0.024  0.00  0.00    +0.276 C 
BRANCH  16  20
ATOM     17  C   UNL     1      -0.017   1.379   0.010  0.00  0.00    +0.023 A 
ATOM     18  C   UNL     1       1.160   2.052   0.002  0.00  0.00    +0.046 A 
ATOM     19  S   UNL     1       2.348   0.720  -0.017  0.00  0.00    -0.097 S 
ATOM     20  C   UNL     1       1.197  -0.645  -0.013  0.00  0.00    +0.041 A 
ATOM     21  C   UNL     1       0.002  -0.004   0.002  0.00  0.00    +0.031 A 
ATOM     22 BR   UNL     1      -1.614  -0.986   0.013  0.00  0.00    -0.049 Br
ENDBRANCH  16  20
ENDBRANCH  15  16
ENDBRANCH  13  15
ENDBRANCH   1  13
TORSDOF 6
