REMARK  Name = ZINC12156430
REMARK  10 active torsions:
REMARK  status: ('A' for Active; 'I' for Inactive)
REMARK    1  A    between atoms: C_1  and  C_2
REMARK    2  A    between atoms: C_2  and  C_3
REMARK    3  A    between atoms: C_2  and  C_4
REMARK    4  A    between atoms: C_4  and  C_5
REMARK    5  A    between atoms: C_5  and  C_19
REMARK    6  A    between atoms: N_8  and  C_12
REMARK    7  A    between atoms: C_12  and  C_13
REMARK    8  A    between atoms: C_13  and  C_14
REMARK    9  A    between atoms: C_24  and  C_25
REMARK   10  A    between atoms: C_24  and  N_69
REMARK                            x       y       z     vdW  Elec       q    Type
REMARK                         _______ _______ _______ _____ _____    ______ ____
ROOT
ATOM      1  C   UNL     1      -0.641   1.551  -0.076  0.00  0.00    +0.115 C 
ATOM      2  C   UNL     1       0.818   1.813   0.241  0.00  0.00    +0.247 C 
ATOM      3  O   UNL     1       1.370   2.890   0.312  0.00  0.00    -0.273 OA
ATOM      4  N   UNL     1       1.373   0.599   0.429  0.00  0.00    -0.224 N 
ATOM      5  C   UNL     1       0.477  -0.383   0.275  0.00  0.00    +0.309 C 
ATOM      6  O   UNL     1       0.742  -1.563   0.395  0.00  0.00    -0.252 OA
ATOM      7  N   UNL     1      -0.748   0.083  -0.027  0.00  0.00    -0.285 N 
ATOM      8  H   UNL     1      -1.547  -0.446  -0.181  0.00  0.00    +0.151 HD
ENDROOT
BRANCH   1   9
ATOM      9  C   UNL     1      -1.546   2.193   0.978  0.00  0.00    +0.018 C 
ATOM     10  C   UNL     1      -1.495   3.716   0.836  0.00  0.00    -0.013 C 
ATOM     11  C   UNL     1      -2.352   4.354   1.932  0.00  0.00    -0.078 C 
ATOM     12  C   UNL     1      -1.931   2.494   3.426  0.00  0.00    -0.078 C 
ATOM     13  C   UNL     1      -1.060   1.800   2.376  0.00  0.00    -0.013 C 
ATOM     14  N   UNL     1      -1.818   3.958   3.252  0.00  0.00    +0.382 N 
ATOM     15  H   UNL     1      -0.828   4.224   3.304  0.00  0.00    -0.081 HD
BRANCH  14  16
ATOM     16  C   UNL     1      -2.559   4.652   4.325  0.00  0.00    -0.041 C 
BRANCH  16  17
ATOM     17  C   UNL     1      -2.663   6.116   3.986  0.00  0.00    -0.038 A 
ATOM     18  C   UNL     1      -1.803   7.011   4.545  0.00  0.00    +0.004 A 
ATOM     19  C   UNL     1      -1.882   8.369   4.245  0.00  0.00    +0.001 A 
ATOM     20  C   UNL     1      -2.824   8.840   3.382  0.00  0.00    +0.010 A 
ATOM     21  C   UNL     1      -3.728   7.946   2.786  0.00  0.00    +0.001 A 
ATOM     22  C   UNL     1      -3.646   6.563   3.085  0.00  0.00    +0.072 A 
ATOM     23  N   UNL     1      -4.507   5.709   2.524  0.00  0.00    -0.255 NA
ATOM     24  C   UNL     1      -5.428   6.121   1.687  0.00  0.00    +0.111 A 
ATOM     25  C   UNL     1      -5.560   7.466   1.346  0.00  0.00    +0.020 A 
ATOM     26  C   UNL     1      -4.716   8.393   1.888  0.00  0.00    +0.011 A 
ENDBRANCH  16  17
ENDBRANCH  14  16
ENDBRANCH   1   9
BRANCH   1  27
ATOM     27  C   UNL     1      -0.989   2.069  -1.474  0.00  0.00    +0.038 C 
BRANCH  27  29
ATOM     28  C   UNL     1      -0.209   0.006  -2.648  0.00  0.00    +0.007 C 
ATOM     29  C   UNL     1       0.012   1.511  -2.488  0.00  0.00    -0.015 C 
ATOM     30  C   UNL     1      -0.191   2.203  -3.837  0.00  0.00    +0.007 C 
ENDBRANCH  27  29
ENDBRANCH   1  27
BRANCH   4  31
ATOM     31  C   UNL     1       2.784   0.382   0.760  0.00  0.00    +0.123 C 
BRANCH  31  32
ATOM     32  C   UNL     1       3.593   0.235  -0.530  0.00  0.00    +0.062 C 
BRANCH  32  33
ATOM     33  C   UNL     1       5.044   0.012  -0.191  0.00  0.00    -0.009 A 
ATOM     34  C   UNL     1       5.701  -1.154   0.023  0.00  0.00    +0.011 A 
ATOM     35  C   UNL     1       7.050  -1.119   0.322  0.00  0.00    +0.008 A 
ATOM     36  C   UNL     1       7.674   0.082   0.403  0.00  0.00    +0.045 A 
ATOM     37  S   UNL     1       6.342   1.215   0.043  0.00  0.00    -0.102 S 
ENDBRANCH  32  33
ENDBRANCH  31  32
ENDBRANCH   4  31
TORSDOF 8
