REMARK  Name = ZINC12656021
REMARK  15 active torsions:
REMARK  status: ('A' for Active; 'I' for Inactive)
REMARK    1  A    between atoms: C_1  and  C_2
REMARK    2  A    between atoms: C_2  and  O_3
REMARK    3  A    between atoms: O_3  and  C_4
REMARK    4  A    between atoms: N_6  and  N_7
REMARK    5  A    between atoms: C_8  and  C_9
REMARK    6  A    between atoms: C_8  and  C_10
REMARK    7  A    between atoms: C_10  and  O_42
REMARK    8  A    between atoms: C_11  and  O_38
REMARK    9  A    between atoms: C_16  and  C_37
REMARK   10  A    between atoms: C_26  and  C_36
REMARK   11  A    between atoms: C_29  and  O_32
REMARK   12  A    between atoms: O_32  and  C_33
REMARK   13  A    between atoms: C_33  and  C_35
REMARK   14  A    between atoms: O_38  and  C_39
REMARK   15  A    between atoms: C_39  and  C_41
REMARK                            x       y       z     vdW  Elec       q    Type
REMARK                         _______ _______ _______ _____ _____    ______ ____
ROOT
ATOM      1  C   UNL     1      -1.205  -0.577   0.559  0.00  0.00    +0.147 C 
ATOM      2  C   UNL     1       0.057  -0.233  -0.271  0.00  0.00    +0.214 C 
ATOM      3  C   UNL     1      -0.227  -0.722  -1.719  0.00  0.00    +0.052 C 
ATOM      4  C   UNL     1      -1.735  -1.006  -1.716  0.00  0.00    +0.005 C 
ATOM      5  C   UNL     1      -1.952  -1.605  -0.315  0.00  0.00    +0.009 C 
ATOM      6  C   UNL     1      -3.423  -1.744  -0.002  0.00  0.00    +0.010 C 
ATOM      7  C   UNL     1      -4.221  -1.857  -1.316  0.00  0.00    +0.005 C 
ATOM      8  C   UNL     1      -3.429  -2.701  -2.310  0.00  0.00    +0.003 C 
ATOM      9  C   UNL     1      -2.224  -1.927  -2.825  0.00  0.00    +0.001 C 
ATOM     10  C   UNL     1      -2.623  -1.013  -3.986  0.00  0.00    +0.031 C 
ATOM     11  C   UNL     1      -3.486  -1.708  -4.989  0.00  0.00    -0.027 C 
ATOM     12  C   UNL     1      -4.227  -2.733  -4.712  0.00  0.00    -0.064 C 
ATOM     13  C   UNL     1      -4.267  -3.380  -3.360  0.00  0.00    -0.008 C 
ATOM     14  C   UNL     1      -5.719  -3.535  -2.908  0.00  0.00    +0.015 C 
ATOM     15  C   UNL     1      -6.553  -4.223  -3.988  0.00  0.00    +0.046 C 
ATOM     16  C   UNL     1      -6.532  -3.413  -5.283  0.00  0.00    +0.180 C 
ATOM     17  C   UNL     1      -5.095  -3.324  -5.810  0.00  0.00    +0.075 C 
ATOM     18  C   UNL     1      -3.685  -4.795  -3.519  0.00  0.00    +0.016 C 
ATOM     19  C   UNL     1      -1.232  -2.944  -0.145  0.00  0.00    +0.015 C 
ENDROOT
BRANCH   1  21
ATOM     20  N   UNL     1      -1.591  -1.080   2.888  0.00  0.00    -0.184 NA
ATOM     21  C   UNL     1      -0.822  -1.202   1.873  0.00  0.00    +0.069 C 
ATOM     22  C   UNL     1       0.467  -1.974   1.993  0.00  0.00    +0.065 C 
BRANCH  20  25
ATOM     23  C   UNL     1      -3.622  -0.265   3.828  0.00  0.00    +0.420 C 
ATOM     24  O   UNL     1      -4.717   0.246   3.703  0.00  0.00    -0.225 OA
ATOM     25  N   UNL     1      -2.854  -0.490   2.743  0.00  0.00    -0.172 N 
ATOM     26  H   UNL     1      -3.176  -0.244   1.862  0.00  0.00    +0.181 HD
BRANCH  23  27
ATOM     27  O   UNL     1      -3.175  -0.607   5.052  0.00  0.00    -0.450 OA
BRANCH  27  29
ATOM     28  C   UNL     1      -3.381  -0.789   7.471  0.00  0.00    +0.048 C 
ATOM     29  C   UNL     1      -4.054  -0.336   6.175  0.00  0.00    +0.230 C 
ENDBRANCH  27  29
ENDBRANCH  23  27
ENDBRANCH  20  25
ENDBRANCH   1  21
BRANCH   1  30
ATOM     30  O   UNL     1      -2.006   0.583   0.753  0.00  0.00    -0.378 OA
ATOM     31  H   UNL     1      -1.562   1.291   1.240  0.00  0.00    +0.211 HD
ENDBRANCH   1  30
BRANCH  16  32
ATOM     32  O   UNL     1      -7.368  -4.063  -6.276  0.00  0.00    -0.461 OA
BRANCH  32  33
ATOM     33  C   UNL     1      -7.965  -3.272  -7.182  0.00  0.00    +0.304 C 
ATOM     34  O   UNL     1      -7.794  -2.076  -7.146  0.00  0.00    -0.251 OA
ATOM     35  C   UNL     1      -8.848  -3.875  -8.243  0.00  0.00    +0.136 C 
ENDBRANCH  32  33
ENDBRANCH  16  32
BRANCH   2  36
ATOM     36  O   UNL     1       0.284   1.199  -0.264  0.00  0.00    -0.458 OA
BRANCH  36  37
ATOM     37  C   UNL     1       1.556   1.615  -0.364  0.00  0.00    +0.304 C 
ATOM     38  O   UNL     1       2.450   0.807  -0.455  0.00  0.00    -0.251 OA
ATOM     39  C   UNL     1       1.870   3.089  -0.364  0.00  0.00    +0.136 C 
ENDBRANCH  36  37
ENDBRANCH   2  36
TORSDOF 9
