REMARK  Name = ZINC40381117
REMARK  4 active torsions:
REMARK  status: ('A' for Active; 'I' for Inactive)
REMARK    1  A    between atoms: C_3  and  C_7
REMARK    2  A    between atoms: N_9  and  C_10
REMARK    3  A    between atoms: C_13  and  S_17
REMARK    4  A    between atoms: S_17  and  N_20
REMARK                            x       y       z     vdW  Elec       q    Type
REMARK                         _______ _______ _______ _____ _____    ______ ____
ROOT
ATOM      1  C   UNL     1       5.640  -0.466   0.035  0.00  0.00    +0.071 A 
ATOM      2  C   UNL     1       6.314   0.731  -0.177  0.00  0.00    +0.065 A 
ATOM      3  C   UNL     1       7.693   0.769  -0.100  0.00  0.00    +0.050 A 
ATOM      4  C   UNL     1       8.403  -0.382   0.186  0.00  0.00    +0.108 A 
ATOM      5  C   UNL     1       7.737  -1.575   0.397  0.00  0.00    +0.050 A 
ATOM      6  C   UNL     1       6.357  -1.619   0.328  0.00  0.00    +0.065 A 
ATOM      7 CL   UNL     1       5.521  -3.116   0.600  0.00  0.00    -0.082 Cl
ATOM      8 CL   UNL     1       5.423   2.177  -0.537  0.00  0.00    -0.082 Cl
ENDROOT
BRANCH   1  11
ATOM      9  C   UNL     1       3.501  -0.264   1.056  0.00  0.00    +0.265 C 
ATOM     10  O   UNL     1       4.043  -0.098   2.133  0.00  0.00    -0.268 OA
ATOM     11  N   UNL     1       4.244  -0.508  -0.042  0.00  0.00    -0.278 N 
ATOM     12  H   UNL     1       3.810  -0.712  -0.885  0.00  0.00    +0.155 HD
BRANCH   9  15
ATOM     13  C   UNL     1      -0.129   0.015   1.444  0.00  0.00    +0.020 A 
ATOM     14  C   UNL     1       1.159   0.041   1.987  0.00  0.00    +0.032 A 
ATOM     15  C   UNL     1       2.040  -0.199   0.953  0.00  0.00    +0.102 A 
ATOM     16  N   UNL     1       1.296  -0.366  -0.193  0.00  0.00    -0.357 N 
ATOM     17  H   UNL     1       1.653  -0.548  -1.077  0.00  0.00    +0.165 HD
ATOM     18  C   UNL     1      -0.016  -0.234   0.118  0.00  0.00    +0.083 A 
ENDBRANCH   9  15
ENDBRANCH   1  11
BRANCH   4  19
ATOM     19  S   UNL     1      10.162  -0.329   0.283  0.00  0.00    +0.056 S 
ATOM     20  O   UNL     1      10.623  -1.649   0.025  0.00  0.00    -0.153 OA
ATOM     21  O   UNL     1      10.578   0.788  -0.491  0.00  0.00    -0.153 OA
BRANCH  19  22
ATOM     22  N   UNL     1      10.556   0.012   1.855  0.00  0.00    -0.204 NA
ATOM     23  H   UNL     1      11.386  -0.323   2.230  0.00  0.00    +0.144 HD
ATOM     24  H   UNL     1       9.957   0.546   2.400  0.00  0.00    +0.144 HD
ENDBRANCH  19  22
ENDBRANCH   4  19
TORSDOF 4
