REMARK  Name = ZINC01279668
REMARK  12 active torsions:
REMARK  status: ('A' for Active; 'I' for Inactive)
REMARK    1  A    between atoms: C_1  and  C_2
REMARK    2  A    between atoms: C_2  and  O_3
REMARK    3  A    between atoms: O_3  and  C_4
REMARK    4  A    between atoms: C_7  and  N_10
REMARK    5  A    between atoms: C_11  and  C_13
REMARK    6  A    between atoms: C_13  and  S_14
REMARK    7  A    between atoms: S_14  and  C_15
REMARK    8  A    between atoms: N_23  and  C_26
REMARK    9  A    between atoms: N_29  and  C_30
REMARK   10  A    between atoms: C_33  and  O_36
REMARK   11  A    between atoms: O_36  and  C_37
REMARK   12  A    between atoms: C_37  and  C_38
REMARK                            x       y       z     vdW  Elec       q    Type
REMARK                         _______ _______ _______ _____ _____    ______ ____
ROOT
ATOM      1  C   UNL     1      -5.193 -10.198   0.797  0.00  0.00    +0.178 A 
ATOM      2  N   UNL     1      -4.060 -10.872   0.791  0.00  0.00    -0.215 NA
ATOM      3  C   UNL     1      -4.046 -12.176   0.544  0.00  0.00    +0.117 A 
ATOM      4  C   UNL     1      -5.222 -12.900   0.278  0.00  0.00    +0.076 A 
ATOM      5  C   UNL     1      -5.045 -14.329   0.024  0.00  0.00    -0.020 A 
ATOM      6  C   UNL     1      -3.785 -14.810   0.069  0.00  0.00    +0.010 A 
ATOM      7  S   UNL     1      -2.771 -13.408   0.447  0.00  0.00    -0.072 S 
ATOM      8  C   UNL     1      -3.362 -16.230  -0.154  0.00  0.00    +0.126 C 
ATOM      9  N   UNL     1      -4.562 -17.085  -0.083  0.00  0.00    -0.300 NA
ATOM     10  C   UNL     1      -5.638 -16.540  -0.922  0.00  0.00    +0.089 C 
ATOM     11  C   UNL     1      -6.208 -15.269  -0.286  0.00  0.00    +0.052 C 
ATOM     12  C   UNL     1      -4.246 -18.468  -0.465  0.00  0.00    +0.105 C 
ATOM     13  C   UNL     1      -6.436 -12.143   0.290  0.00  0.00    +0.268 A 
ATOM     14  O   UNL     1      -7.505 -12.687   0.072  0.00  0.00    -0.267 OA
ATOM     15  N   UNL     1      -6.383 -10.825   0.553  0.00  0.00    -0.255 N 
ENDROOT
BRANCH  15  16
ATOM     16  C   UNL     1      -7.570 -10.078   0.573  0.00  0.00    +0.052 A 
ATOM     17  C   UNL     1      -8.362 -10.063   1.713  0.00  0.00    +0.030 A 
ATOM     18  C   UNL     1      -9.530  -9.328   1.732  0.00  0.00    +0.047 A 
ATOM     19  C   UNL     1      -9.914  -8.606   0.611  0.00  0.00    +0.121 A 
ATOM     20  C   UNL     1      -9.123  -8.621  -0.529  0.00  0.00    +0.047 A 
ATOM     21  C   UNL     1      -7.951  -9.350  -0.546  0.00  0.00    +0.030 A 
BRANCH  19  22
ATOM     22  O   UNL     1     -11.065  -7.883   0.630  0.00  0.00    -0.492 OA
BRANCH  22  23
ATOM     23  C   UNL     1     -11.399  -7.163  -0.559  0.00  0.00    +0.225 C 
ATOM     24  C   UNL     1     -12.717  -6.415  -0.349  0.00  0.00    +0.048 C 
ENDBRANCH  22  23
ENDBRANCH  19  22
ENDBRANCH  15  16
BRANCH   1  25
ATOM     25  S   UNL     1      -5.173  -8.468   1.129  0.00  0.00    -0.078 S 
BRANCH  25  26
ATOM     26  C   UNL     1      -3.417  -8.090   1.384  0.00  0.00    +0.173 C 
BRANCH  26  28
ATOM     27  N   UNL     1      -2.032  -6.109   1.906  0.00  0.00    -0.285 N 
ATOM     28  C   UNL     1      -3.258  -6.621   1.681  0.00  0.00    +0.227 C 
ATOM     29  O   UNL     1      -4.232  -5.900   1.718  0.00  0.00    -0.275 OA
ATOM     30  H   UNL     1      -1.246  -6.667   1.800  0.00  0.00    +0.155 HD
BRANCH  27  34
ATOM     31  C   UNL     1      -1.618  -2.124   3.064  0.00  0.00    +0.121 A 
ATOM     32  C   UNL     1      -2.767  -2.827   3.396  0.00  0.00    +0.047 A 
ATOM     33  C   UNL     1      -2.905  -4.146   3.013  0.00  0.00    +0.027 A 
ATOM     34  C   UNL     1      -1.893  -4.770   2.295  0.00  0.00    +0.034 A 
ATOM     35  C   UNL     1      -0.743  -4.066   1.963  0.00  0.00    +0.027 A 
ATOM     36  C   UNL     1      -0.609  -2.744   2.341  0.00  0.00    +0.047 A 
BRANCH  31  37
ATOM     37  O   UNL     1      -1.483  -0.825   3.441  0.00  0.00    -0.492 OA
BRANCH  37  39
ATOM     38  C   UNL     1      -2.230   1.207   4.515  0.00  0.00    +0.048 C 
ATOM     39  C   UNL     1      -2.561  -0.249   4.183  0.00  0.00    +0.225 C 
ENDBRANCH  37  39
ENDBRANCH  31  37
ENDBRANCH  27  34
ENDBRANCH  26  28
ENDBRANCH  25  26
ENDBRANCH   1  25
TORSDOF 9
