REMARK  Name = ZINC46695136
REMARK  8 active torsions:
REMARK  status: ('A' for Active; 'I' for Inactive)
REMARK    1  A    between atoms: C_1  and  C_2
REMARK    2  A    between atoms: C_2  and  C_3
REMARK    3  A    between atoms: N_5  and  C_6
REMARK    4  A    between atoms: C_9  and  C_12
REMARK    5  A    between atoms: C_12  and  C_14
REMARK    6  A    between atoms: C_12  and  N_15
REMARK    7  A    between atoms: N_18  and  N_19
REMARK    8  A    between atoms: C_20  and  C_22
REMARK                            x       y       z     vdW  Elec       q    Type
REMARK                         _______ _______ _______ _____ _____    ______ ____
ROOT
ATOM      1  N   UNL     1      -7.108  -4.776  -1.189  0.00  0.00    -0.292 N 
ATOM      2  C   UNL     1      -8.262  -5.067  -1.821  0.00  0.00    +0.316 C 
ATOM      3  O   UNL     1      -9.237  -4.356  -1.667  0.00  0.00    -0.251 OA
ATOM      4  N   UNL     1      -8.337  -6.148  -2.623  0.00  0.00    -0.218 N 
ATOM      5  H   UNL     1      -6.331  -5.343  -1.311  0.00  0.00    +0.151 HD
ATOM      6  H   UNL     1      -9.168  -6.358  -3.078  0.00  0.00    +0.174 HD
ENDROOT
BRANCH   4   7
ATOM      7  N   UNL     1      -7.215  -6.967  -2.800  0.00  0.00    -0.229 N 
ATOM      8  C   UNL     1      -7.289  -8.048  -3.603  0.00  0.00    +0.260 C 
ATOM      9  O   UNL     1      -8.330  -8.311  -4.173  0.00  0.00    -0.269 OA
ATOM     10  H   UNL     1      -6.384  -6.757  -2.345  0.00  0.00    +0.173 HD
BRANCH   8  11
ATOM     11  C   UNL     1      -6.105  -8.912  -3.790  0.00  0.00    +0.038 A 
ATOM     12  C   UNL     1      -4.910  -8.616  -3.132  0.00  0.00    +0.014 A 
ATOM     13  C   UNL     1      -3.808  -9.426  -3.311  0.00  0.00    +0.021 A 
ATOM     14  C   UNL     1      -3.886 -10.532  -4.141  0.00  0.00    +0.041 A 
ATOM     15  C   UNL     1      -5.069 -10.831  -4.796  0.00  0.00    +0.021 A 
ATOM     16  C   UNL     1      -6.179 -10.032  -4.621  0.00  0.00    +0.014 A 
ATOM     17 CL   UNL     1      -2.495 -11.547  -4.361  0.00  0.00    -0.084 Cl
ENDBRANCH   8  11
ENDBRANCH   4   7
BRANCH   1  18
ATOM     18  C   UNL     1      -7.027  -3.602  -0.316  0.00  0.00    +0.102 C 
ATOM     19  C   UNL     1      -7.529  -3.969   1.082  0.00  0.00    +0.033 C 
BRANCH  18  23
ATOM     20  C   UNL     1      -2.969  -2.285  -0.072  0.00  0.00    +0.033 A 
ATOM     21  C   UNL     1      -3.998  -1.356  -0.159  0.00  0.00    +0.023 A 
ATOM     22  C   UNL     1      -5.308  -1.785  -0.237  0.00  0.00    +0.007 A 
ATOM     23  C   UNL     1      -5.596  -3.137  -0.230  0.00  0.00    -0.027 A 
ATOM     24  C   UNL     1      -4.574  -4.065  -0.144  0.00  0.00    +0.007 A 
ATOM     25  C   UNL     1      -3.261  -3.643  -0.071  0.00  0.00    +0.023 A 
BRANCH  20  28
ATOM     26  C   UNL     1      -0.664  -2.565  -0.591  0.00  0.00    +0.217 C 
ATOM     27  O   UNL     1      -0.924  -3.621  -1.126  0.00  0.00    -0.275 OA
ATOM     28  N   UNL     1      -1.640  -1.854   0.008  0.00  0.00    -0.286 N 
ATOM     29  H   UNL     1      -1.421  -1.043   0.494  0.00  0.00    +0.155 HD
BRANCH  26  31
ATOM     30  C   UNL     1       1.655  -3.037  -1.332  0.00  0.00    +0.013 C 
ATOM     31  C   UNL     1       0.751  -2.047  -0.594  0.00  0.00    +0.093 C 
ENDBRANCH  26  31
ENDBRANCH  20  28
ENDBRANCH  18  23
ENDBRANCH   1  18
TORSDOF 6
