REMARK  Name = ZINC39708893
REMARK  7 active torsions:
REMARK  status: ('A' for Active; 'I' for Inactive)
REMARK    1  A    between atoms: C_4  and  N_7
REMARK    2  A    between atoms: C_8  and  C_10
REMARK    3  A    between atoms: C_12  and  N_21
REMARK    4  A    between atoms: C_22  and  C_24
REMARK    5  A    between atoms: N_26  and  C_27
REMARK    6  A    between atoms: C_27  and  C_28
REMARK    7  A    between atoms: C_28  and  C_29
REMARK                            x       y       z     vdW  Elec       q    Type
REMARK                         _______ _______ _______ _____ _____    ______ ____
ROOT
ATOM      1  N   UNL     1       4.853  -2.366  -2.301  0.00  0.00    -0.297 N 
ATOM      2  C   UNL     1       5.306  -1.744  -3.408  0.00  0.00    +0.300 C 
ATOM      3  O   UNL     1       6.460  -1.374  -3.467  0.00  0.00    -0.265 OA
ATOM      4  H   UNL     1       3.931  -2.662  -2.254  0.00  0.00    +0.150 HD
ENDROOT
BRANCH   1   6
ATOM      5  C   UNL     1       4.962  -2.721   0.153  0.00  0.00    +0.283 C 
ATOM      6  C   UNL     1       5.755  -2.594  -1.169  0.00  0.00    +0.157 C 
ATOM      7  C   UNL     1       6.417  -3.955  -1.269  0.00  0.00    +0.019 A 
ATOM      8  C   UNL     1       7.460  -4.422  -2.039  0.00  0.00    +0.009 A 
ATOM      9  C   UNL     1       7.872  -5.737  -1.919  0.00  0.00    +0.001 A 
ATOM     10  C   UNL     1       7.234  -6.578  -1.026  0.00  0.00    +0.004 A 
ATOM     11  C   UNL     1       6.188  -6.114  -0.257  0.00  0.00    +0.046 A 
ATOM     12  C   UNL     1       5.764  -4.792  -0.374  0.00  0.00    +0.127 A 
ATOM     13  O   UNL     1       4.754  -4.139   0.270  0.00  0.00    -0.477 OA
BRANCH   5  15
ATOM     14  N   UNL     1       3.622  -0.651  -0.037  0.00  0.00    -0.282 N 
ATOM     15  C   UNL     1       3.645  -1.995   0.057  0.00  0.00    +0.260 C 
ATOM     16  O   UNL     1       2.606  -2.620   0.064  0.00  0.00    -0.271 OA
ATOM     17  H   UNL     1       4.452  -0.156  -0.121  0.00  0.00    +0.155 HD
BRANCH  14  21
ATOM     18  C   UNL     1      -0.015   1.381   0.029  0.00  0.00    +0.000 A 
ATOM     19  C   UNL     1       0.140   0.218   0.763  0.00  0.00    +0.002 A 
ATOM     20  C   UNL     1       1.344  -0.457   0.743  0.00  0.00    +0.023 A 
ATOM     21  C   UNL     1       2.400   0.031  -0.015  0.00  0.00    +0.033 A 
ATOM     22  C   UNL     1       2.241   1.198  -0.751  0.00  0.00    +0.023 A 
ATOM     23  C   UNL     1       1.034   1.869  -0.727  0.00  0.00    +0.002 A 
ENDBRANCH  14  21
ENDBRANCH   5  15
ENDBRANCH   1   6
BRANCH   2  24
ATOM     24  C   UNL     1       4.386  -1.511  -4.563  0.00  0.00    +0.299 C 
ATOM     25  O   UNL     1       3.232  -1.882  -4.503  0.00  0.00    -0.265 OA
ATOM     26  N   UNL     1       4.838  -0.889  -5.670  0.00  0.00    -0.307 N 
ATOM     27  H   UNL     1       5.760  -0.593  -5.717  0.00  0.00    +0.149 HD
BRANCH  26  28
ATOM     28  C   UNL     1       3.936  -0.661  -6.802  0.00  0.00    +0.109 C 
BRANCH  28  29
ATOM     29  C   UNL     1       4.694   0.057  -7.920  0.00  0.00    +0.056 C 
BRANCH  29  30
ATOM     30  C   UNL     1       3.766   0.292  -9.085  0.00  0.00    -0.021 A 
ATOM     31  C   UNL     1       2.844   1.418  -9.251  0.00  0.00    +0.003 A 
ATOM     32  C   UNL     1       2.535   2.541  -8.481  0.00  0.00    +0.010 A 
ATOM     33  C   UNL     1       1.601   3.433  -8.927  0.00  0.00    +0.001 A 
ATOM     34  C   UNL     1       0.956   3.232 -10.139  0.00  0.00    +0.002 A 
ATOM     35  C   UNL     1       1.246   2.131 -10.915  0.00  0.00    +0.026 A 
ATOM     36  C   UNL     1       2.194   1.210 -10.481  0.00  0.00    +0.047 A 
ATOM     37  N   UNL     1       2.693   0.041 -11.011  0.00  0.00    -0.360 N 
ATOM     38  C   UNL     1       3.632  -0.488 -10.169  0.00  0.00    +0.087 A 
ATOM     39  H   UNL     1       2.422  -0.347 -11.858  0.00  0.00    +0.165 HD
ENDBRANCH  29  30
ENDBRANCH  28  29
ENDBRANCH  26  28
ENDBRANCH   2  24
TORSDOF 7
