REMARK  Name = ZINC38361493
REMARK  9 active torsions:
REMARK  status: ('A' for Active; 'I' for Inactive)
REMARK    1  A    between atoms: C_1  and  C_2
REMARK    2  A    between atoms: C_2  and  C_4
REMARK    3  A    between atoms: C_2  and  N_10
REMARK    4  A    between atoms: N_10  and  C_11
REMARK    5  A    between atoms: C_11  and  C_13
REMARK    6  A    between atoms: C_11  and  C_25
REMARK    7  A    between atoms: C_16  and  C_19
REMARK    8  A    between atoms: C_25  and  C_26
REMARK    9  A    between atoms: C_25  and  C_27
REMARK                            x       y       z     vdW  Elec       q    Type
REMARK                         _______ _______ _______ _____ _____    ______ ____
ROOT
ATOM      1  C   UNL     1      -1.779  -0.686   1.564  0.00  0.00    +0.087 C 
ENDROOT
BRANCH   1   2
ATOM      2  C   UNL     1      -2.725  -1.849   1.717  0.00  0.00    -0.030 A 
ATOM      3  C   UNL     1      -3.670  -2.105   0.741  0.00  0.00    +0.005 A 
ATOM      4  C   UNL     1      -4.537  -3.172   0.882  0.00  0.00    +0.004 A 
ATOM      5  C   UNL     1      -4.460  -3.983   1.998  0.00  0.00    -0.044 A 
ATOM      6  C   UNL     1      -3.514  -3.728   2.974  0.00  0.00    +0.004 A 
ATOM      7  C   UNL     1      -2.644  -2.664   2.831  0.00  0.00    +0.005 A 
BRANCH   5   8
ATOM      8  C   UNL     1      -5.407  -5.146   2.152  0.00  0.00    +0.019 C 
ATOM      9  C   UNL     1      -6.231  -4.967   3.429  0.00  0.00    +0.008 C 
ATOM     10  C   UNL     1      -7.192  -6.147   3.585  0.00  0.00    +0.001 C 
ATOM     11  C   UNL     1      -6.392  -7.448   3.673  0.00  0.00    +0.000 C 
ATOM     12  C   UNL     1      -5.567  -7.627   2.396  0.00  0.00    +0.001 C 
ATOM     13  C   UNL     1      -4.606  -6.447   2.240  0.00  0.00    +0.008 C 
ENDBRANCH   5   8
ENDBRANCH   1   2
BRANCH   1  14
ATOM     14  C   UNL     1      -2.488   0.606   1.975  0.00  0.00    +0.004 C 
ATOM     15  C   UNL     1      -3.033   0.458   3.397  0.00  0.00    +0.009 C 
ATOM     16  C   UNL     1      -1.496   1.770   1.927  0.00  0.00    +0.009 C 
ENDBRANCH   1  14
BRANCH   1  17
ATOM     17  N   UNL     1      -1.350  -0.585   0.163  0.00  0.00    -0.299 NA
ATOM     18  H   UNL     1      -1.119   0.367  -0.077  0.00  0.00    +0.123 HD
BRANCH  17  20
ATOM     19  C   UNL     1       1.089  -0.786   0.257  0.00  0.00    +0.034 C 
ATOM     20  C   UNL     1      -0.222  -1.486  -0.109  0.00  0.00    +0.138 C 
BRANCH  20  21
ATOM     21  C   UNL     1      -0.207  -1.846  -1.572  0.00  0.00    +0.237 C 
ATOM     22  O   UNL     1      -1.053  -1.397  -2.315  0.00  0.00    -0.274 OA
ATOM     23  N   UNL     1       0.747  -2.667  -2.055  0.00  0.00    -0.239 N 
ATOM     24  C   UNL     1       0.759  -2.989  -3.363  0.00  0.00    +0.303 C 
ATOM     25  O   UNL     1      -0.089  -2.539  -4.108  0.00  0.00    -0.253 OA
ATOM     26  N   UNL     1       1.713  -3.811  -3.846  0.00  0.00    -0.313 N 
ATOM     27  H   UNL     1       1.423  -3.026  -1.460  0.00  0.00    +0.159 HD
ATOM     28  H   UNL     1       2.390  -4.170  -3.251  0.00  0.00    +0.146 HD
ATOM     29  H   UNL     1       1.722  -4.043  -4.787  0.00  0.00    +0.146 HD
ENDBRANCH  20  21
ENDBRANCH  17  20
ENDBRANCH   1  17
TORSDOF 6
