REMARK  Name = ZINC00870344
REMARK  8 active torsions:
REMARK  status: ('A' for Active; 'I' for Inactive)
REMARK    1  A    between atoms: C_1  and  C_2
REMARK    2  A    between atoms: C_2  and  C_3
REMARK    3  A    between atoms: C_2  and  C_4
REMARK    4  A    between atoms: C_2  and  C_5
REMARK    5  A    between atoms: C_14  and  N_23
REMARK    6  A    between atoms: C_16  and  S_18
REMARK    7  A    between atoms: S_18  and  C_19
REMARK    8  A    between atoms: C_19  and  C_20
REMARK                            x       y       z     vdW  Elec       q    Type
REMARK                         _______ _______ _______ _____ _____    ______ ____
ROOT
ATOM      1  C   UNL     1       0.422  -0.164  -1.848  0.00  0.00    -0.000 C 
ATOM      2  C   UNL     1       0.462  -1.685  -1.679  0.00  0.00    +0.009 C 
ATOM      3  C   UNL     1       1.062  -2.330  -2.928  0.00  0.00    +0.037 C 
ATOM      4  C   UNL     1       2.405  -1.670  -3.228  0.00  0.00    -0.025 A 
ATOM      5  C   UNL     1       2.712  -0.465  -2.700  0.00  0.00    -0.004 A 
ATOM      6  S   UNL     1       4.339  -0.089  -3.303  0.00  0.00    -0.073 S 
ATOM      7  C   UNL     1       4.608  -1.545  -4.261  0.00  0.00    +0.115 A 
ATOM      8  C   UNL     1       3.412  -2.285  -4.080  0.00  0.00    +0.051 A 
ATOM      9  C   UNL     1       3.322  -3.542  -4.745  0.00  0.00    +0.129 A 
ATOM     10  N   UNL     1       4.380  -3.893  -5.472  0.00  0.00    -0.207 NA
ATOM     11  C   UNL     1       5.469  -3.150  -5.598  0.00  0.00    +0.191 A 
ATOM     12  N   UNL     1       5.615  -1.964  -5.002  0.00  0.00    -0.214 NA
ATOM     13  C   UNL     1       1.858   0.377  -1.800  0.00  0.00    +0.046 C 
ENDROOT
BRANCH   1  15
ATOM     14  C   UNL     1      -0.429   1.978  -0.883  0.00  0.00    +0.011 C 
ATOM     15  C   UNL     1      -0.398   0.457  -0.715  0.00  0.00    -0.035 C 
ATOM     16  C   UNL     1       0.240   0.105   0.629  0.00  0.00    +0.011 C 
ATOM     17  C   UNL     1      -1.826  -0.089  -0.761  0.00  0.00    +0.011 C 
ENDBRANCH   1  15
BRANCH   9  18
ATOM     18  N   UNL     1       2.204  -4.349  -4.640  0.00  0.00    -0.343 N 
ATOM     19  H   UNL     1       1.367  -3.978  -4.318  0.00  0.00    +0.144 HD
ATOM     20  H   UNL     1       2.256  -5.285  -4.888  0.00  0.00    +0.144 HD
ENDBRANCH   9  18
BRANCH  11  21
ATOM     21  S   UNL     1       6.787  -3.754  -6.599  0.00  0.00    -0.077 S 
BRANCH  21  22
ATOM     22  C   UNL     1       6.183  -5.355  -7.201  0.00  0.00    +0.172 C 
BRANCH  22  23
ATOM     23  C   UNL     1       7.229  -5.988  -8.082  0.00  0.00    +0.221 C 
ATOM     24  O   UNL     1       8.279  -5.415  -8.284  0.00  0.00    -0.275 OA
ATOM     25  N   UNL     1       6.998  -7.191  -8.645  0.00  0.00    -0.329 N 
ATOM     26  H   UNL     1       6.159  -7.649  -8.483  0.00  0.00    +0.145 HD
ATOM     27  H   UNL     1       7.672  -7.598  -9.212  0.00  0.00    +0.145 HD
ENDBRANCH  22  23
ENDBRANCH  21  22
ENDBRANCH  11  21
TORSDOF 5
