REMARK  Name = ZINC44516747
REMARK  8 active torsions:
REMARK  status: ('A' for Active; 'I' for Inactive)
REMARK    1  A    between atoms: C_1  and  N_2
REMARK    2  A    between atoms: N_2  and  S_3
REMARK    3  A    between atoms: S_3  and  C_6
REMARK    4  A    between atoms: C_9  and  N_13
REMARK    5  A    between atoms: C_10  and  N_12
REMARK    6  A    between atoms: N_13  and  C_14
REMARK    7  A    between atoms: C_14  and  C_15
REMARK    8  A    between atoms: N_18  and  C_21
REMARK                            x       y       z     vdW  Elec       q    Type
REMARK                         _______ _______ _______ _____ _____    ______ ____
ROOT
ATOM      1  C   UNL     1       2.438  -0.437  -1.202  0.00  0.00    +0.107 A 
ATOM      2  C   UNL     1       2.924   0.657  -1.894  0.00  0.00    +0.030 A 
ATOM      3  C   UNL     1       4.272   0.959  -1.860  0.00  0.00    +0.026 A 
ATOM      4  C   UNL     1       5.143   0.165  -1.128  0.00  0.00    +0.048 A 
ATOM      5  C   UNL     1       4.653  -0.938  -0.429  0.00  0.00    +0.048 A 
ATOM      6  C   UNL     1       3.298  -1.231  -0.465  0.00  0.00    +0.053 A 
ENDROOT
BRANCH   1   7
ATOM      7  S   UNL     1       0.718  -0.816  -1.251  0.00  0.00    +0.058 S 
ATOM      8  O   UNL     1       0.599  -2.201  -0.959  0.00  0.00    -0.153 OA
ATOM      9  O   UNL     1       0.211  -0.243  -2.449  0.00  0.00    -0.153 OA
BRANCH   7  11
ATOM     10  C   UNL     1      -0.018   1.461   0.010  0.00  0.00    +0.127 C 
ATOM     11  N   UNL     1       0.002  -0.004   0.002  0.00  0.00    -0.193 NA
ATOM     12  H   UNL     1      -0.404  -0.499   0.731  0.00  0.00    +0.148 HD
ENDBRANCH   7  11
ENDBRANCH   1   7
BRANCH   5  13
ATOM     13  N   UNL     1       5.526  -1.744   0.311  0.00  0.00    -0.356 N 
ATOM     14  H   UNL     1       6.473  -1.536   0.338  0.00  0.00    +0.142 HD
ATOM     15  H   UNL     1       5.184  -2.511   0.797  0.00  0.00    +0.142 HD
ENDBRANCH   5  13
BRANCH   4  16
ATOM     16  N   UNL     1       6.509   0.470  -1.092  0.00  0.00    -0.342 N 
ATOM     17  H   UNL     1       7.116  -0.087  -0.580  0.00  0.00    +0.146 HD
BRANCH  16  18
ATOM     18  C   UNL     1       7.021   1.629  -1.827  0.00  0.00    +0.105 C 
BRANCH  18  19
ATOM     19  C   UNL     1       8.533   1.735  -1.622  0.00  0.00    +0.003 C 
ATOM     20  C   UNL     1       8.830   2.038  -0.151  0.00  0.00    -0.014 C 
ATOM     21  C   UNL     1      10.338   2.222   0.032  0.00  0.00    -0.079 C 
ATOM     22  N   UNL     1      10.804   3.337  -0.801  0.00  0.00    +0.378 N 
ATOM     23  C   UNL     1      10.587   3.022  -2.219  0.00  0.00    -0.079 C 
ATOM     24  C   UNL     1       9.089   2.869  -2.489  0.00  0.00    -0.014 C 
ATOM     25  C   UNL     1      12.236   3.559  -0.564  0.00  0.00    -0.096 C 
ATOM     26  H   UNL     1      10.291   4.172  -0.561  0.00  0.00    -0.082 HD
ENDBRANCH  18  19
ENDBRANCH  16  18
ENDBRANCH   4  16
TORSDOF 6
