REMARK  Name = ZINC16991652
REMARK  6 active torsions:
REMARK  status: ('A' for Active; 'I' for Inactive)
REMARK    1  A    between atoms: C_1  and  C_2
REMARK    2  A    between atoms: C_3  and  C_13
REMARK    3  A    between atoms: C_5  and  C_7
REMARK    4  A    between atoms: C_13  and  S_14
REMARK    5  A    between atoms: S_14  and  C_15
REMARK    6  A    between atoms: N_25  and  C_26
REMARK                            x       y       z     vdW  Elec       q    Type
REMARK                         _______ _______ _______ _____ _____    ______ ____
ROOT
ATOM      1  C   UNL     1      -2.683   0.692   0.018  0.00  0.00    +0.136 C 
ENDROOT
BRANCH   1   4
ATOM      2  C   UNL     1      -4.446   1.284  -2.495  0.00  0.00    +0.088 C 
ATOM      3  C   UNL     1      -4.872   1.417  -1.055  0.00  0.00    +0.127 A 
ATOM      4  C   UNL     1      -4.114   1.163   0.028  0.00  0.00    +0.093 A 
ATOM      5  N   UNL     1      -4.861   1.399   1.117  0.00  0.00    -0.213 NA
ATOM      6  C   UNL     1      -6.051   1.797   0.731  0.00  0.00    +0.228 A 
ATOM      7  O   UNL     1      -6.082   1.813  -0.613  0.00  0.00    -0.440 OA
BRANCH   6   8
ATOM      8  C   UNL     1      -7.171   2.161   1.625  0.00  0.00    +0.037 A 
ATOM      9  C   UNL     1      -7.012   2.096   3.010  0.00  0.00    +0.013 A 
ATOM     10  C   UNL     1      -8.059   2.442   3.838  0.00  0.00    +0.001 A 
ATOM     11  C   UNL     1      -9.269   2.841   3.299  0.00  0.00    +0.000 A 
ATOM     12  C   UNL     1      -9.435   2.902   1.926  0.00  0.00    +0.001 A 
ATOM     13  C   UNL     1      -8.394   2.565   1.087  0.00  0.00    +0.013 A 
ENDBRANCH   6   8
ENDBRANCH   1   4
BRANCH   1  14
ATOM     14  S   UNL     1      -1.576   2.125   0.021  0.00  0.00    -0.081 S 
BRANCH  14  15
ATOM     15  C   UNL     1      -0.016   1.306   0.009  0.00  0.00    +0.172 A 
ATOM     16  N   UNL     1       0.002  -0.004   0.002  0.00  0.00    -0.223 NA
ATOM     17  C   UNL     1       1.160  -0.695  -0.013  0.00  0.00    +0.079 A 
ATOM     18  C   UNL     1       1.179  -2.093  -0.020  0.00  0.00    +0.028 A 
ATOM     19  C   UNL     1       2.375  -2.753  -0.034  0.00  0.00    +0.002 A 
ATOM     20  C   UNL     1       3.576  -2.055  -0.043  0.00  0.00    +0.001 A 
ATOM     21  C   UNL     1       3.590  -0.688  -0.036  0.00  0.00    +0.015 A 
ATOM     22  C   UNL     1       2.384   0.011  -0.021  0.00  0.00    +0.065 A 
ATOM     23  C   UNL     1       2.338   1.480  -0.012  0.00  0.00    +0.262 A 
ATOM     24  O   UNL     1       3.358   2.144  -0.019  0.00  0.00    -0.267 OA
ATOM     25  N   UNL     1       1.119   2.067   0.003  0.00  0.00    -0.290 N 
ATOM     26  C   UNL     1       1.015   3.528   0.011  0.00  0.00    +0.154 C 
ENDBRANCH  14  15
ENDBRANCH   1  14
TORSDOF 4
