REMARK  Name = ZINC09880668
REMARK  10 active torsions:
REMARK  status: ('A' for Active; 'I' for Inactive)
REMARK    1  A    between atoms: C_1  and  C_2
REMARK    2  A    between atoms: C_2  and  C_4
REMARK    3  A    between atoms: C_2  and  S_16
REMARK    4  A    between atoms: N_6  and  C_7
REMARK    5  A    between atoms: C_10  and  C_13
REMARK    6  A    between atoms: C_13  and  C_15
REMARK    7  A    between atoms: S_16  and  C_17
REMARK    8  A    between atoms: C_20  and  C_29
REMARK    9  A    between atoms: N_21  and  C_22
REMARK   10  A    between atoms: C_29  and  N_62
REMARK                            x       y       z     vdW  Elec       q    Type
REMARK                         _______ _______ _______ _____ _____    ______ ____
ROOT
ATOM      1  C   UNL     1       4.521  -5.955   0.908  0.00  0.00    +0.197 A 
ATOM      2  N   UNL     1       3.489  -6.729   0.665  0.00  0.00    -0.122 NA
ATOM      3  N   UNL     1       3.793  -7.954   0.909  0.00  0.00    -0.135 NA
ATOM      4  C   UNL     1       5.027  -8.036   1.319  0.00  0.00    +0.122 A 
ATOM      5  N   UNL     1       5.539  -6.766   1.328  0.00  0.00    -0.276 N 
ENDROOT
BRANCH   5   6
ATOM      6  C   UNL     1       6.836  -6.376   1.695  0.00  0.00    +0.050 A 
ATOM      7  C   UNL     1       7.926  -6.795   0.944  0.00  0.00    +0.029 A 
ATOM      8  C   UNL     1       9.201  -6.407   1.304  0.00  0.00    +0.040 A 
ATOM      9  C   UNL     1       9.395  -5.610   2.419  0.00  0.00    +0.124 A 
ATOM     10  C   UNL     1       8.310  -5.195   3.173  0.00  0.00    +0.040 A 
ATOM     11  C   UNL     1       7.032  -5.577   2.813  0.00  0.00    +0.029 A 
ATOM     12  F   UNL     1      10.644  -5.236   2.773  0.00  0.00    -0.205 F 
ENDBRANCH   5   6
BRANCH   1  13
ATOM     13  S   UNL     1       4.584  -4.204   0.720  0.00  0.00    -0.073 S 
BRANCH  13  15
ATOM     14  C   UNL     1       2.704  -4.544  -1.232  0.00  0.00    +0.029 C 
ATOM     15  C   UNL     1       2.900  -3.889   0.136  0.00  0.00    +0.137 C 
BRANCH  15  16
ATOM     16  C   UNL     1       2.679  -2.403   0.019  0.00  0.00    +0.230 C 
ATOM     17  O   UNL     1       3.623  -1.661  -0.150  0.00  0.00    -0.274 OA
ATOM     18  N   UNL     1       1.432  -1.899   0.100  0.00  0.00    -0.285 N 
ATOM     19  H   UNL     1       0.670  -2.496   0.157  0.00  0.00    +0.155 HD
BRANCH  18  20
ATOM     20  C   UNL     1       1.237  -0.519   0.104  0.00  0.00    +0.033 A 
ATOM     21  C   UNL     1       0.114   0.025  -0.514  0.00  0.00    +0.024 A 
ATOM     22  C   UNL     1      -0.082   1.382  -0.512  0.00  0.00    +0.013 A 
ATOM     23  C   UNL     1       0.850   2.221   0.111  0.00  0.00    +0.017 A 
ATOM     24  C   UNL     1       1.978   1.669   0.732  0.00  0.00    +0.013 A 
ATOM     25  C   UNL     1       2.166   0.311   0.726  0.00  0.00    +0.024 A 
BRANCH  23  26
ATOM     26  C   UNL     1       0.645   3.675   0.115  0.00  0.00    +0.160 C 
ATOM     27  O   UNL     1      -0.377   4.144  -0.339  0.00  0.00    -0.292 OA
ATOM     28  C   UNL     1       1.704   4.584   0.683  0.00  0.00    +0.091 C 
ENDBRANCH  23  26
ENDBRANCH  18  20
ENDBRANCH  15  16
ENDBRANCH  13  15
ENDBRANCH   1  13
BRANCH   4  29
ATOM     29  C   UNL     1       5.758  -9.296   1.706  0.00  0.00    -0.001 C 
BRANCH  29  35
ATOM     30  C   UNL     1       5.432 -10.313  -0.467  0.00  0.00    -0.078 C 
ATOM     31  C   UNL     1       6.153 -10.760  -1.741  0.00  0.00    -0.019 C 
ATOM     32  C   UNL     1       7.121 -11.896  -1.402  0.00  0.00    -0.004 C 
ATOM     33  C   UNL     1       8.108 -11.415  -0.335  0.00  0.00    -0.019 C 
ATOM     34  C   UNL     1       7.331 -10.950   0.898  0.00  0.00    -0.078 C 
ATOM     35  N   UNL     1       6.436  -9.839   0.511  0.00  0.00    +0.384 N 
ATOM     36  H   UNL     1       6.996  -9.095   0.078  0.00  0.00    -0.081 HD
ENDBRANCH  29  35
ENDBRANCH   4  29
TORSDOF 8
