REMARK  Name = ZINC35926340
REMARK  10 active torsions:
REMARK  status: ('A' for Active; 'I' for Inactive)
REMARK    1  A    between atoms: C_1  and  C_2
REMARK    2  A    between atoms: C_2  and  C_3
REMARK    3  A    between atoms: C_3  and  C_4
REMARK    4  A    between atoms: C_4  and  C_5
REMARK    5  A    between atoms: C_5  and  C_6
REMARK    6  A    between atoms: C_6  and  C_7
REMARK    7  A    between atoms: C_21  and  C_23
REMARK    8  A    between atoms: C_23  and  N_24
REMARK    9  A    between atoms: N_27  and  C_30
REMARK   10  A    between atoms: C_30  and  C_31
REMARK                            x       y       z     vdW  Elec       q    Type
REMARK                         _______ _______ _______ _____ _____    ______ ____
ROOT
ATOM      1  C   UNL     1       0.018  -4.599  -4.759  0.00  0.00    +0.216 C 
ATOM      2  O   UNL     1      -0.373  -4.202  -3.682  0.00  0.00    -0.276 OA
ATOM      3  N   UNL     1       0.157  -5.921  -4.981  0.00  0.00    -0.298 N 
ATOM      4  C   UNL     1       0.635  -6.415  -6.280  0.00  0.00    +0.126 C 
ATOM      5  C   UNL     1       1.860  -7.307  -6.043  0.00  0.00    +0.127 C 
ATOM      6  N   UNL     1       1.536  -8.280  -4.991  0.00  0.00    -0.298 N 
ATOM      7  C   UNL     1       1.058  -7.786  -3.692  0.00  0.00    +0.127 C 
ATOM      8  C   UNL     1      -0.162  -6.894  -3.926  0.00  0.00    +0.126 C 
ATOM      9  C   UNL     1       1.678  -9.623  -5.216  0.00  0.00    +0.198 A 
ATOM     10  N   UNL     1       2.234 -10.050  -6.381  0.00  0.00    -0.295 N 
ATOM     11  H   UNL     1       2.528  -9.407  -7.045  0.00  0.00    +0.172 HD
ATOM     12  C   UNL     1       2.377 -11.373  -6.611  0.00  0.00    +0.253 A 
ATOM     13  O   UNL     1       2.875 -11.774  -7.650  0.00  0.00    -0.268 OA
ATOM     14  C   UNL     1       1.942 -12.280  -5.628  0.00  0.00    +0.091 A 
ATOM     15  C   UNL     1       1.392 -11.793  -4.478  0.00  0.00    +0.034 A 
ATOM     16  N   UNL     1       1.277 -10.479  -4.297  0.00  0.00    -0.223 NA
ENDROOT
BRANCH   1  17
ATOM     17  C   UNL     1       0.348  -3.613  -5.850  0.00  0.00    +0.096 C 
BRANCH  17  18
ATOM     18  C   UNL     1       0.105  -2.190  -5.342  0.00  0.00    +0.009 C 
BRANCH  18  19
ATOM     19  C   UNL     1       0.440  -1.189  -6.450  0.00  0.00    +0.000 C 
BRANCH  19  20
ATOM     20  C   UNL     1       0.198   0.234  -5.942  0.00  0.00    -0.000 C 
BRANCH  20  22
ATOM     21  C   UNL     1       0.290   2.657  -6.542  0.00  0.00    +0.004 C 
ATOM     22  C   UNL     1       0.533   1.234  -7.050  0.00  0.00    -0.003 C 
ENDBRANCH  20  22
ENDBRANCH  19  20
ENDBRANCH  18  19
ENDBRANCH  17  18
ENDBRANCH   1  17
BRANCH  15  23
ATOM     23  C   UNL     1       0.917 -12.744  -3.410  0.00  0.00    -0.022 C 
BRANCH  23  24
ATOM     24  N   UNL     1       1.734 -12.568  -2.201  0.00  0.00    +0.385 N 
ATOM     25  C   UNL     1       3.120 -12.961  -2.485  0.00  0.00    -0.063 C 
ATOM     26  C   UNL     1       3.975 -12.760  -1.232  0.00  0.00    +0.066 C 
ATOM     27  N   UNL     1       3.431 -13.575  -0.136  0.00  0.00    -0.302 NA
ATOM     28  C   UNL     1       2.035 -13.211   0.143  0.00  0.00    +0.066 C 
ATOM     29  C   UNL     1       1.197 -13.408  -1.122  0.00  0.00    -0.063 C 
ATOM     30  H   UNL     1       1.710 -11.600  -1.917  0.00  0.00    -0.081 HD
BRANCH  27  31
ATOM     31  C   UNL     1       4.259 -13.454   1.071  0.00  0.00    +0.119 C 
BRANCH  31  32
ATOM     32  C   UNL     1       3.822 -14.479   2.085  0.00  0.00    -0.033 A 
ATOM     33  C   UNL     1       2.837 -14.168   3.003  0.00  0.00    +0.005 A 
ATOM     34  C   UNL     1       2.436 -15.108   3.933  0.00  0.00    +0.000 A 
ATOM     35  C   UNL     1       3.021 -16.361   3.945  0.00  0.00    +0.000 A 
ATOM     36  C   UNL     1       4.005 -16.673   3.027  0.00  0.00    +0.000 A 
ATOM     37  C   UNL     1       4.403 -15.734   2.094  0.00  0.00    +0.005 A 
ENDBRANCH  31  32
ENDBRANCH  27  31
ENDBRANCH  23  24
ENDBRANCH  15  23
TORSDOF 9
