REMARK  Name = ZINC06134420
REMARK  14 active torsions:
REMARK  status: ('A' for Active; 'I' for Inactive)
REMARK    1  A    between atoms: C_1  and  C_2
REMARK    2  A    between atoms: C_2  and  C_3
REMARK    3  A    between atoms: C_3  and  C_4
REMARK    4  A    between atoms: C_4  and  N_5
REMARK    5  A    between atoms: N_5  and  S_6
REMARK    6  A    between atoms: S_6  and  C_9
REMARK    7  A    between atoms: C_16  and  S_22
REMARK    8  A    between atoms: N_17  and  C_18
REMARK    9  A    between atoms: C_18  and  C_19
REMARK   10  A    between atoms: C_19  and  C_20
REMARK   11  A    between atoms: C_20  and  C_21
REMARK   12  A    between atoms: S_22  and  C_23
REMARK   13  A    between atoms: C_23  and  C_24
REMARK   14  A    between atoms: C_34  and  C_36
REMARK                            x       y       z     vdW  Elec       q    Type
REMARK                         _______ _______ _______ _____ _____    ______ ____
ROOT
ATOM      1  C   UNL     1      -1.571   2.658  -1.502  0.00  0.00    +0.107 A 
ATOM      2  C   UNL     1      -2.151   2.053  -2.607  0.00  0.00    +0.030 A 
ATOM      3  C   UNL     1      -2.248   2.732  -3.804  0.00  0.00    +0.030 A 
ATOM      4  C   UNL     1      -1.763   4.027  -3.905  0.00  0.00    +0.070 A 
ATOM      5  C   UNL     1      -1.175   4.644  -2.788  0.00  0.00    +0.092 A 
ATOM      6  C   UNL     1      -1.089   3.945  -1.582  0.00  0.00    +0.058 A 
ATOM      7  N   UNL     1      -0.797   5.891  -3.173  0.00  0.00    -0.222 NA
ATOM      8  C   UNL     1      -1.110   6.077  -4.432  0.00  0.00    +0.170 A 
ATOM      9  N   UNL     1      -1.709   4.955  -4.932  0.00  0.00    -0.319 N 
ENDROOT
BRANCH   1  10
ATOM     10  S   UNL     1      -1.456   1.774   0.019  0.00  0.00    +0.058 S 
ATOM     11  O   UNL     1      -2.475   0.784  -0.009  0.00  0.00    -0.153 OA
ATOM     12  O   UNL     1      -1.369   2.749   1.049  0.00  0.00    -0.153 OA
BRANCH  10  13
ATOM     13  N   UNL     1      -0.011   0.966   0.007  0.00  0.00    -0.190 NA
ATOM     14  H   UNL     1       0.002  -0.004   0.002  0.00  0.00    +0.148 HD
BRANCH  13  15
ATOM     15  C   UNL     1       1.248   1.716  -0.001  0.00  0.00    +0.106 C 
BRANCH  15  16
ATOM     16  C   UNL     1       2.402   0.777   0.357  0.00  0.00    +0.017 C 
BRANCH  16  18
ATOM     17  C   UNL     1       4.871   0.622   0.706  0.00  0.00    +0.004 C 
ATOM     18  C   UNL     1       3.717   1.560   0.348  0.00  0.00    -0.002 C 
ENDBRANCH  16  18
ENDBRANCH  15  16
ENDBRANCH  13  15
ENDBRANCH  10  13
ENDBRANCH   1  10
BRANCH   9  19
ATOM     19  C   UNL     1      -2.202   4.769  -6.298  0.00  0.00    +0.124 C 
BRANCH  19  20
ATOM     20  C   UNL     1      -3.663   5.216  -6.379  0.00  0.00    +0.021 C 
BRANCH  20  21
ATOM     21  C   UNL     1      -4.178   5.021  -7.806  0.00  0.00    -0.002 C 
ATOM     22  C   UNL     1      -5.639   5.468  -7.887  0.00  0.00    +0.004 C 
ENDBRANCH  20  21
ENDBRANCH  19  20
ENDBRANCH   9  19
BRANCH   8  23
ATOM     23  S   UNL     1      -0.803   7.553  -5.345  0.00  0.00    -0.078 S 
BRANCH  23  24
ATOM     24  C   UNL     1      -0.011   8.556  -4.063  0.00  0.00    +0.173 C 
BRANCH  24  25
ATOM     25  C   UNL     1       0.350   9.904  -4.632  0.00  0.00    +0.230 C 
ATOM     26  O   UNL     1       0.097  10.161  -5.790  0.00  0.00    -0.274 OA
ATOM     27  N   UNL     1       0.954  10.824  -3.854  0.00  0.00    -0.267 N 
ATOM     28  C   UNL     1       1.294  10.639  -2.510  0.00  0.00    +0.040 A 
ATOM     29  C   UNL     1       1.100   9.523  -1.694  0.00  0.00    +0.024 A 
ATOM     30  C   UNL     1       1.513   9.543  -0.379  0.00  0.00    +0.002 A 
ATOM     31  C   UNL     1       2.122  10.670   0.142  0.00  0.00    +0.000 A 
ATOM     32  C   UNL     1       2.316  11.779  -0.660  0.00  0.00    +0.005 A 
ATOM     33  C   UNL     1       1.904  11.763  -1.978  0.00  0.00    -0.024 A 
ATOM     34  C   UNL     1       1.993  12.819  -3.058  0.00  0.00    +0.059 C 
ATOM     35  C   UNL     1       1.358  12.162  -4.294  0.00  0.00    +0.083 C 
ATOM     36  C   UNL     1       0.135  12.962  -4.748  0.00  0.00    +0.029 C 
ENDBRANCH  24  25
ENDBRANCH  23  24
ENDBRANCH   8  23
TORSDOF 11
