REMARK  Name = ZINC01382553
REMARK  11 active torsions:
REMARK  status: ('A' for Active; 'I' for Inactive)
REMARK    1  A    between atoms: C_1  and  C_2
REMARK    2  A    between atoms: C_4  and  C_42
REMARK    3  A    between atoms: C_7  and  C_14
REMARK    4  A    between atoms: C_14  and  C_16
REMARK    5  A    between atoms: C_14  and  N_27
REMARK    6  A    between atoms: N_20  and  C_21
REMARK    7  A    between atoms: C_21  and  C_22
REMARK    8  A    between atoms: N_27  and  C_28
REMARK    9  A    between atoms: N_27  and  C_36
REMARK   10  A    between atoms: C_28  and  C_29
REMARK   11  A    between atoms: C_36  and  C_37
REMARK                            x       y       z     vdW  Elec       q    Type
REMARK                         _______ _______ _______ _____ _____    ______ ____
ROOT
ATOM      1  C   UNL     1       0.016  -5.600   0.947  0.00  0.00    +0.163 C 
ENDROOT
BRANCH   1   8
ATOM      2  C   UNL     1      -1.043   1.292  -2.926  0.00  0.00    +0.044 C 
ATOM      3  C   UNL     1      -0.913  -0.111  -2.393  0.00  0.00    -0.048 A 
ATOM      4  C   UNL     1      -1.224  -1.188  -3.211  0.00  0.00    +0.007 A 
ATOM      5  C   UNL     1      -1.113  -2.469  -2.748  0.00  0.00    -0.041 A 
ATOM      6  C   UNL     1      -0.682  -2.696  -1.436  0.00  0.00    +0.002 A 
ATOM      7  C   UNL     1      -0.552  -4.055  -0.907  0.00  0.00    +0.021 A 
ATOM      8  C   UNL     1      -0.129  -4.214   0.371  0.00  0.00    +0.042 A 
ATOM      9  C   UNL     1       0.176  -3.088   1.165  0.00  0.00    +0.254 A 
ATOM     10  O   UNL     1       0.555  -3.254   2.311  0.00  0.00    -0.268 OA
ATOM     11  N   UNL     1       0.059  -1.836   0.688  0.00  0.00    -0.322 N 
ATOM     12  H   UNL     1       0.278  -1.084   1.260  0.00  0.00    +0.169 HD
ATOM     13  C   UNL     1      -0.365  -1.606  -0.604  0.00  0.00    +0.050 A 
ATOM     14  C   UNL     1      -0.481  -0.312  -1.100  0.00  0.00    +0.029 A 
ATOM     15  C   UNL     1      -1.455  -3.631  -3.644  0.00  0.00    +0.044 C 
ENDBRANCH   1   8
BRANCH   1  16
ATOM     16  C   UNL     1       1.471  -5.880   1.221  0.00  0.00    +0.174 A 
ATOM     17  N   UNL     1       2.002  -6.208   2.374  0.00  0.00    -0.111 NA
ATOM     18  N   UNL     1       3.268  -6.364   2.199  0.00  0.00    -0.023 NA
ATOM     19  N   UNL     1       3.560  -6.145   0.965  0.00  0.00    -0.043 NA
ATOM     20  N   UNL     1       2.478  -5.849   0.328  0.00  0.00    -0.220 N 
BRANCH  20  21
ATOM     21  C   UNL     1       2.366  -5.534  -1.099  0.00  0.00    +0.221 C 
BRANCH  21  22
ATOM     22  C   UNL     1       2.452  -4.042  -1.292  0.00  0.00    +0.126 A 
ATOM     23  C   UNL     1       3.580  -3.340  -1.500  0.00  0.00    +0.046 A 
ATOM     24  C   UNL     1       3.201  -1.984  -1.627  0.00  0.00    +0.041 A 
ATOM     25  C   UNL     1       1.863  -1.938  -1.489  0.00  0.00    +0.195 A 
ATOM     26  O   UNL     1       1.415  -3.189  -1.292  0.00  0.00    -0.466 OA
ENDBRANCH  21  22
ENDBRANCH  20  21
ENDBRANCH   1  16
BRANCH   1  27
ATOM     27  N   UNL     1      -0.744  -5.691   2.200  0.00  0.00    -0.277 NA
BRANCH  27  28
ATOM     28  C   UNL     1      -0.569  -4.479   3.012  0.00  0.00    +0.122 C 
BRANCH  28  29
ATOM     29  C   UNL     1       0.848  -4.416   3.521  0.00  0.00    -0.015 A 
ATOM     30  C   UNL     1       1.104  -4.551   4.872  0.00  0.00    +0.006 A 
ATOM     31  C   UNL     1       2.404  -4.493   5.339  0.00  0.00    +0.000 A 
ATOM     32  C   UNL     1       3.449  -4.300   4.454  0.00  0.00    +0.001 A 
ATOM     33  C   UNL     1       3.194  -4.164   3.103  0.00  0.00    +0.020 A 
ATOM     34  C   UNL     1       1.893  -4.228   2.634  0.00  0.00    +0.045 A 
ATOM     35 CL   UNL     1       1.573  -4.065   0.936  0.00  0.00    -0.083 Cl
ENDBRANCH  28  29
ENDBRANCH  27  28
BRANCH  27  36
ATOM     36  C   UNL     1      -2.167  -5.946   1.935  0.00  0.00    +0.160 C 
BRANCH  36  37
ATOM     37  C   UNL     1      -2.339  -7.357   1.435  0.00  0.00    +0.119 A 
ATOM     38  C   UNL     1      -2.656  -8.425   2.188  0.00  0.00    +0.046 A 
ATOM     39  C   UNL     1      -2.714  -9.538   1.318  0.00  0.00    +0.041 A 
ATOM     40  C   UNL     1      -2.429  -9.083   0.085  0.00  0.00    +0.195 A 
ATOM     41  O   UNL     1      -2.209  -7.760   0.161  0.00  0.00    -0.467 OA
ENDBRANCH  36  37
ENDBRANCH  27  36
ENDBRANCH   1  27
TORSDOF 9
