REMARK  Name = ZINC38889520
REMARK  10 active torsions:
REMARK  status: ('A' for Active; 'I' for Inactive)
REMARK    1  A    between atoms: C_1  and  C_2
REMARK    2  A    between atoms: C_5  and  N_9
REMARK    3  A    between atoms: C_7  and  C_8
REMARK    4  A    between atoms: N_9  and  C_10
REMARK    5  A    between atoms: C_10  and  C_11
REMARK    6  A    between atoms: C_23  and  C_25
REMARK    7  A    between atoms: C_28  and  C_31
REMARK    8  A    between atoms: C_31  and  C_32
REMARK    9  A    between atoms: C_31  and  C_33
REMARK   10  A    between atoms: C_31  and  C_34
REMARK                            x       y       z     vdW  Elec       q    Type
REMARK                         _______ _______ _______ _____ _____    ______ ____
ROOT
ATOM      1  N   UNL     1      -0.467  -3.947   0.131  0.00  0.00    -0.266 N 
ATOM      2  C   UNL     1      -0.442  -4.717   1.237  0.00  0.00    +0.251 C 
ATOM      3  O   UNL     1       0.184  -4.357   2.214  0.00  0.00    -0.270 OA
ENDROOT
BRANCH   1   8
ATOM      4  C   UNL     1       1.758   1.269   0.258  0.00  0.00    +0.044 C 
ATOM      5  C   UNL     1       1.167  -0.117   0.224  0.00  0.00    -0.047 A 
ATOM      6  C   UNL     1       0.719  -0.647  -0.972  0.00  0.00    +0.005 A 
ATOM      7  C   UNL     1       0.177  -1.916  -1.006  0.00  0.00    +0.024 A 
ATOM      8  C   UNL     1       0.082  -2.661   0.162  0.00  0.00    +0.037 A 
ATOM      9  C   UNL     1       0.532  -2.126   1.362  0.00  0.00    +0.027 A 
ATOM     10  C   UNL     1       1.079  -0.857   1.388  0.00  0.00    -0.046 A 
ATOM     11  C   UNL     1       1.574  -0.278   2.688  0.00  0.00    +0.044 C 
ENDBRANCH   1   8
BRANCH   2  12
ATOM     12  C   UNL     1      -1.176  -6.000   1.260  0.00  0.00    +0.037 A 
ATOM     13  C   UNL     1      -1.231  -6.798   0.116  0.00  0.00    +0.013 A 
ATOM     14  C   UNL     1      -1.918  -7.994   0.145  0.00  0.00    +0.005 A 
ATOM     15  C   UNL     1      -2.551  -8.403   1.305  0.00  0.00    -0.042 A 
ATOM     16  C   UNL     1      -2.500  -7.618   2.443  0.00  0.00    +0.005 A 
ATOM     17  C   UNL     1      -1.812  -6.422   2.429  0.00  0.00    +0.013 A 
BRANCH  15  18
ATOM     18  C   UNL     1      -3.300  -9.711   1.329  0.00  0.00    -0.013 C 
ATOM     19  C   UNL     1      -2.337 -10.856   1.007  0.00  0.00    +0.015 C 
ATOM     20  C   UNL     1      -3.903  -9.928   2.718  0.00  0.00    +0.015 C 
ATOM     21  C   UNL     1      -4.419  -9.677   0.287  0.00  0.00    +0.015 C 
ENDBRANCH  15  18
ENDBRANCH   2  12
BRANCH   1  22
ATOM     22  C   UNL     1      -1.069  -4.457  -1.103  0.00  0.00    +0.131 C 
BRANCH  22  23
ATOM     23  C   UNL     1       0.019  -4.646  -2.162  0.00  0.00    +0.116 C 
ATOM     24  C   UNL     1      -0.662  -4.960  -3.479  0.00  0.00    -0.003 C 
ATOM     25  C   UNL     1      -0.332  -6.133  -4.090  0.00  0.00    -0.007 A 
ATOM     26  C   UNL     1      -0.943  -6.514  -5.364  0.00  0.00    +0.009 A 
ATOM     27  C   UNL     1      -0.584  -7.692  -5.936  0.00  0.00    +0.001 A 
ATOM     28  C   UNL     1       0.349  -8.538  -5.333  0.00  0.00    +0.002 A 
ATOM     29  C   UNL     1       0.951  -8.242  -4.152  0.00  0.00    +0.024 A 
ATOM     30  C   UNL     1       0.650  -7.044  -3.477  0.00  0.00    +0.040 A 
ATOM     31  N   UNL     1       1.247  -6.764  -2.319  0.00  0.00    -0.284 N 
ATOM     32  C   UNL     1       1.009  -5.660  -1.633  0.00  0.00    +0.226 C 
ATOM     33  O   UNL     1       1.585  -5.459  -0.581  0.00  0.00    -0.275 OA
ATOM     34  H   UNL     1       1.886  -7.401  -1.963  0.00  0.00    +0.155 HD
ENDBRANCH  22  23
ENDBRANCH   1  22
TORSDOF 5
