REMARK  Name = ZINC05072233
REMARK  4 active torsions:
REMARK  status: ('A' for Active; 'I' for Inactive)
REMARK    1  A    between atoms: C_9  and  O_30
REMARK    2  A    between atoms: C_10  and  C_11
REMARK    3  A    between atoms: N_12  and  N_13
REMARK    4  A    between atoms: C_21  and  C_24
REMARK                            x       y       z     vdW  Elec       q    Type
REMARK                         _______ _______ _______ _____ _____    ______ ____
ROOT
ATOM      1  N   UNL     1       7.322   0.148  -0.067  0.00  0.00    -0.219 N 
ATOM      2  C   UNL     1       8.520  -0.540  -0.082  0.00  0.00    +0.168 A 
ATOM      3  C   UNL     1       9.746   0.165  -0.084  0.00  0.00    +0.027 A 
ATOM      4  C   UNL     1       9.819   1.561  -0.072  0.00  0.00    +0.012 A 
ATOM      5  C   UNL     1      11.041   2.167  -0.075  0.00  0.00    +0.001 A 
ATOM      6  C   UNL     1      12.215   1.418  -0.090  0.00  0.00    +0.001 A 
ATOM      7  C   UNL     1      12.178   0.054  -0.102  0.00  0.00    +0.011 A 
ATOM      8  C   UNL     1      10.942  -0.597  -0.099  0.00  0.00    +0.016 A 
ATOM      9  C   UNL     1      10.812  -2.054  -0.111  0.00  0.00    +0.136 A 
ATOM     10  N   UNL     1       9.592  -2.574  -0.107  0.00  0.00    -0.144 NA
ATOM     11  N   UNL     1       8.528  -1.862  -0.088  0.00  0.00    -0.131 NA
ATOM     12  H   UNL     1       7.319   1.118  -0.062  0.00  0.00    +0.176 HD
ENDROOT
BRANCH   9  13
ATOM     13  C   UNL     1      12.005  -2.921  -0.127  0.00  0.00    +0.159 A 
ATOM     14  N   UNL     1      12.001  -4.286  -0.144  0.00  0.00    -0.343 N 
ATOM     15  H   UNL     1      11.220  -4.861  -0.148  0.00  0.00    +0.167 HD
ATOM     16  C   UNL     1      13.309  -4.689  -0.155  0.00  0.00    +0.104 A 
ATOM     17  C   UNL     1      14.067  -3.573  -0.144  0.00  0.00    +0.130 A 
ATOM     18  N   UNL     1      13.256  -2.511  -0.133  0.00  0.00    -0.234 NA
ENDBRANCH   9  13
BRANCH   1  20
ATOM     19  C   UNL     1       4.982   0.092  -0.045  0.00  0.00    +0.142 C 
ATOM     20  N   UNL     1       6.110  -0.555  -0.059  0.00  0.00    -0.188 NA
BRANCH  19  30
ATOM     21  C   UNL     1      -0.016   1.357   0.009  0.00  0.00    +0.001 A 
ATOM     22  C   UNL     1       1.167   2.091   0.002  0.00  0.00    +0.001 A 
ATOM     23  C   UNL     1       2.379   1.466  -0.013  0.00  0.00    +0.009 A 
ATOM     24  C   UNL     1       2.435   0.067  -0.021  0.00  0.00    -0.006 A 
ATOM     25  C   UNL     1       1.233  -0.683  -0.013  0.00  0.00    -0.017 A 
ATOM     26  C   UNL     1       0.002  -0.004   0.002  0.00  0.00    +0.008 A 
ATOM     27  C   UNL     1       1.292  -2.087  -0.021  0.00  0.00    +0.012 A 
ATOM     28  C   UNL     1       2.488  -2.733  -0.035  0.00  0.00    +0.046 A 
ATOM     29  C   UNL     1       3.697  -2.040  -0.043  0.00  0.00    +0.126 A 
ATOM     30  C   UNL     1       3.711  -0.645  -0.036  0.00  0.00    +0.044 A 
BRANCH  29  31
ATOM     31  O   UNL     1       4.868  -2.727  -0.057  0.00  0.00    -0.506 OA
ATOM     32  H   UNL     1       5.199  -2.922  -0.944  0.00  0.00    +0.292 HD
ENDBRANCH  29  31
ENDBRANCH  19  30
ENDBRANCH   1  20
TORSDOF 4
