REMARK  Name = ZINC12601287
REMARK  14 active torsions:
REMARK  status: ('A' for Active; 'I' for Inactive)
REMARK    1  A    between atoms: C_1  and  C_2
REMARK    2  A    between atoms: C_2  and  C_3
REMARK    3  A    between atoms: C_3  and  C_5
REMARK    4  A    between atoms: C_3  and  C_6
REMARK    5  A    between atoms: C_9  and  S_12
REMARK    6  A    between atoms: S_12  and  N_15
REMARK    7  A    between atoms: N_18  and  C_21
REMARK    8  A    between atoms: C_21  and  C_22
REMARK    9  A    between atoms: N_24  and  C_25
REMARK   10  A    between atoms: C_25  and  C_26
REMARK   11  A    between atoms: N_29  and  C_33
REMARK   12  A    between atoms: C_33  and  C_34
REMARK   13  A    between atoms: C_34  and  C_35
REMARK   14  A    between atoms: C_34  and  C_36
REMARK                            x       y       z     vdW  Elec       q    Type
REMARK                         _______ _______ _______ _____ _____    ______ ____
ROOT
ATOM      1  N   UNL     1      -3.332   4.228  -1.558  0.00  0.00    -0.180 NA
ATOM      2  C   UNL     1      -2.868   5.433  -2.263  0.00  0.00    +0.091 C 
ATOM      3  C   UNL     1      -2.253   4.999  -3.603  0.00  0.00    -0.061 C 
ATOM      4  N   UNL     1      -3.226   4.183  -4.342  0.00  0.00    +0.387 N 
ATOM      5  C   UNL     1      -3.540   2.944  -3.619  0.00  0.00    -0.061 C 
ATOM      6  C   UNL     1      -4.203   3.290  -2.281  0.00  0.00    +0.091 C 
ATOM      7  H   UNL     1      -4.155   4.766  -4.426  0.00  0.00    -0.081 HD
ENDROOT
BRANCH   1   8
ATOM      8  S   UNL     1      -2.891   3.940   0.012  0.00  0.00    +0.061 S 
ATOM      9  O   UNL     1      -3.887   3.091   0.565  0.00  0.00    -0.153 OA
ATOM     10  O   UNL     1      -2.565   5.201   0.581  0.00  0.00    -0.153 OA
BRANCH   8  14
ATOM     11  C   UNL     1       0.945   1.539  -0.093  0.00  0.00    -0.044 A 
ATOM     12  C   UNL     1      -0.277   0.891  -0.084  0.00  0.00    +0.006 A 
ATOM     13  C   UNL     1      -1.448   1.625  -0.057  0.00  0.00    +0.029 A 
ATOM     14  C   UNL     1      -1.398   3.006  -0.029  0.00  0.00    +0.105 A 
ATOM     15  C   UNL     1      -0.177   3.654  -0.037  0.00  0.00    +0.029 A 
ATOM     16  C   UNL     1       0.994   2.920  -0.069  0.00  0.00    +0.006 A 
BRANCH  11  17
ATOM     17  C   UNL     1       2.222   0.740  -0.128  0.00  0.00    +0.016 C 
ATOM     18  C   UNL     1       3.016   1.102  -1.384  0.00  0.00    +0.012 C 
BRANCH  17  20
ATOM     19  C   UNL     1       4.293   0.157   1.142  0.00  0.00    +0.004 C 
ATOM     20  C   UNL     1       3.057   1.058   1.113  0.00  0.00    +0.004 C 
ENDBRANCH  17  20
ENDBRANCH  11  17
ENDBRANCH   8  14
ENDBRANCH   1   8
BRANCH   4  21
ATOM     21  C   UNL     1      -2.748   3.894  -5.700  0.00  0.00    +0.019 C 
BRANCH  21  22
ATOM     22  C   UNL     1      -2.671   5.176  -6.489  0.00  0.00    +0.197 C 
ATOM     23  O   UNL     1      -2.983   6.227  -5.971  0.00  0.00    -0.278 OA
ATOM     24  N   UNL     1      -2.254   5.154  -7.771  0.00  0.00    -0.314 N 
ATOM     25  H   UNL     1      -1.970   4.201  -8.241  0.00  0.00    +0.149 HD
BRANCH  24  26
ATOM     26  C   UNL     1      -2.179   6.400  -8.538  0.00  0.00    +0.137 C 
BRANCH  26  27
ATOM     27  C   UNL     1      -1.681   6.098  -9.953  0.00  0.00    +0.149 C 
ATOM     28  C   UNL     1      -1.483   7.411 -10.716  0.00  0.00    +0.117 C 
ATOM     29  N   UNL     1      -1.079   7.113 -12.097  0.00  0.00    -0.297 NA
ATOM     30  C   UNL     1      -2.092   6.287 -12.770  0.00  0.00    +0.112 C 
ATOM     31  C   UNL     1      -2.283   4.985 -11.986  0.00  0.00    +0.175 C 
ATOM     32  O   UNL     1      -2.646   5.295 -10.638  0.00  0.00    -0.372 OA
BRANCH  29  33
ATOM     33  C   UNL     1      -0.823   8.348 -12.849  0.00  0.00    +0.087 C 
BRANCH  33  34
ATOM     34  C   UNL     1      -0.500   8.002 -14.304  0.00  0.00    -0.003 C 
ATOM     35  C   UNL     1      -0.292   9.292 -15.101  0.00  0.00    +0.008 C 
ATOM     36  C   UNL     1       0.775   7.159 -14.357  0.00  0.00    +0.008 C 
ENDBRANCH  33  34
ENDBRANCH  29  33
ENDBRANCH  26  27
ENDBRANCH  24  26
ENDBRANCH  21  22
ENDBRANCH   4  21
TORSDOF 10
