REMARK  Name = ZINC12246730
REMARK  13 active torsions:
REMARK  status: ('A' for Active; 'I' for Inactive)
REMARK    1  A    between atoms: C_1  and  C_2
REMARK    2  A    between atoms: C_5  and  C_9
REMARK    3  A    between atoms: C_6  and  C_8
REMARK    4  A    between atoms: N_11  and  C_12
REMARK    5  A    between atoms: C_16  and  C_25
REMARK    6  A    between atoms: C_20  and  C_21
REMARK    7  A    between atoms: C_21  and  O_23
REMARK    8  A    between atoms: O_23  and  C_24
REMARK    9  A    between atoms: C_25  and  N_60
REMARK   10  A    between atoms: C_26  and  N_60
REMARK   11  A    between atoms: C_27  and  C_29
REMARK   12  A    between atoms: C_27  and  C_30
REMARK   13  A    between atoms: C_27  and  N_60
REMARK                            x       y       z     vdW  Elec       q    Type
REMARK                         _______ _______ _______ _____ _____    ______ ____
ROOT
ATOM      1  C   UNL     1       0.847  -1.666   0.357  0.00  0.00    +0.064 A 
ATOM      2  C   UNL     1       1.188  -3.073   0.491  0.00  0.00    +0.030 A 
ATOM      3  C   UNL     1       0.332  -4.201   0.430  0.00  0.00    +0.014 A 
ATOM      4  C   UNL     1       0.872  -5.456   0.584  0.00  0.00    +0.022 A 
ATOM      5  C   UNL     1       2.234  -5.613   0.797  0.00  0.00    +0.026 A 
ATOM      6  N   UNL     1       3.027  -4.561   0.853  0.00  0.00    -0.246 NA
ATOM      7  C   UNL     1       2.559  -3.340   0.711  0.00  0.00    +0.111 A 
ATOM      8  S   UNL     1       3.310  -1.731   0.728  0.00  0.00    -0.060 S 
ATOM      9  C   UNL     1       1.859  -0.736   0.447  0.00  0.00    +0.120 A 
ENDROOT
BRANCH   1  12
ATOM     10  C   UNL     1      -1.236  -1.941  -0.743  0.00  0.00    +0.249 C 
ATOM     11  O   UNL     1      -0.811  -2.947  -1.277  0.00  0.00    -0.270 OA
ATOM     12  N   UNL     1      -0.468  -1.269   0.138  0.00  0.00    -0.280 N 
ATOM     13  H   UNL     1      -0.832  -0.509   0.618  0.00  0.00    +0.155 HD
BRANCH  10  18
ATOM     14  C   UNL     1      -6.529  -0.048  -1.972  0.00  0.00    +0.044 C 
ATOM     15  C   UNL     1      -5.143  -0.544  -1.650  0.00  0.00    -0.050 A 
ATOM     16  C   UNL     1      -4.415   0.055  -0.636  0.00  0.00    +0.004 A 
ATOM     17  C   UNL     1      -3.144  -0.390  -0.341  0.00  0.00    +0.013 A 
ATOM     18  C   UNL     1      -2.595  -1.454  -1.059  0.00  0.00    +0.040 A 
ATOM     19  C   UNL     1      -3.337  -2.057  -2.076  0.00  0.00    -0.038 A 
ATOM     20  C   UNL     1      -4.606  -1.599  -2.365  0.00  0.00    +0.007 A 
ATOM     21  C   UNL     1      -2.753  -3.207  -2.857  0.00  0.00    +0.044 C 
ENDBRANCH  10  18
ENDBRANCH   1  12
BRANCH   9  22
ATOM     22  C   UNL     1       1.768   0.675   0.343  0.00  0.00    +0.348 C 
ATOM     23  O   UNL     1       0.679   1.209   0.242  0.00  0.00    -0.244 OA
BRANCH  22  24
ATOM     24  O   UNL     1       2.889   1.426   0.356  0.00  0.00    -0.464 OA
ATOM     25  C   UNL     1       2.723   2.841   0.248  0.00  0.00    +0.280 C 
ENDBRANCH  22  24
ENDBRANCH   9  22
BRANCH   5  26
ATOM     26  C   UNL     1       2.810  -6.995   0.965  0.00  0.00    -0.022 C 
BRANCH  26  28
ATOM     27  C   UNL     1       4.455  -6.674  -0.783  0.00  0.00    -0.095 C 
ATOM     28  N   UNL     1       3.290  -7.474  -0.348  0.00  0.00    +0.387 N 
ATOM     29  H   UNL     1       2.537  -7.369  -1.038  0.00  0.00    -0.081 HD
BRANCH  28  30
ATOM     30  C   UNL     1       3.663  -8.902  -0.260  0.00  0.00    -0.018 C 
ATOM     31  C   UNL     1       4.248  -9.348  -1.601  0.00  0.00    -0.007 C 
BRANCH  30  32
ATOM     32  C   UNL     1       2.428  -9.710   0.043  0.00  0.00    +0.070 A 
ATOM     33  C   UNL     1       2.378 -10.990   0.642  0.00  0.00    +0.065 A 
ATOM     34  C   UNL     1       1.055 -11.275   0.696  0.00  0.00    +0.230 A 
ATOM     35  O   UNL     1       0.418 -10.227   0.156  0.00  0.00    -0.363 OA
ATOM     36  N   UNL     1       1.194  -9.370  -0.200  0.00  0.00    -0.085 NA
ENDBRANCH  30  32
ENDBRANCH  28  30
ENDBRANCH  26  28
ENDBRANCH   5  26
TORSDOF 8
