REMARK  Name = ZINC35130596
REMARK  14 active torsions:
REMARK  status: ('A' for Active; 'I' for Inactive)
REMARK    1  A    between atoms: C_1  and  C_2
REMARK    2  A    between atoms: C_7  and  N_8
REMARK    3  A    between atoms: C_9  and  N_17
REMARK    4  A    between atoms: C_11  and  C_13
REMARK    5  A    between atoms: C_13  and  C_14
REMARK    6  A    between atoms: C_13  and  C_15
REMARK    7  A    between atoms: C_13  and  C_16
REMARK    8  A    between atoms: C_18  and  C_20
REMARK    9  A    between atoms: C_20  and  N_21
REMARK   10  A    between atoms: N_21  and  C_22
REMARK   11  A    between atoms: C_22  and  C_23
REMARK   12  A    between atoms: C_23  and  C_24
REMARK   13  A    between atoms: C_23  and  C_25
REMARK   14  A    between atoms: C_26  and  C_28
REMARK                            x       y       z     vdW  Elec       q    Type
REMARK                         _______ _______ _______ _____ _____    ______ ____
ROOT
ATOM      1  N   UNL     1      -0.076  -0.371   2.183  0.00  0.00    -0.218 N 
ATOM      2  C   UNL     1       0.169  -0.766   3.462  0.00  0.00    +0.129 A 
ATOM      3  C   UNL     1       0.068   0.336   4.255  0.00  0.00    +0.069 A 
ATOM      4  C   UNL     1      -0.246   1.425   3.439  0.00  0.00    +0.071 A 
ATOM      5  N   UNL     1      -0.327   1.007   2.201  0.00  0.00    -0.169 NA
ENDROOT
BRANCH   1  12
ATOM      6  C   UNL     1      -2.285  -0.208   0.395  0.00  0.00    +0.046 C 
ATOM      7  C   UNL     1      -1.131  -1.146   0.151  0.00  0.00    -0.025 A 
ATOM      8  C   UNL     1      -1.122  -1.955  -0.969  0.00  0.00    +0.005 A 
ATOM      9  C   UNL     1      -0.064  -2.816  -1.193  0.00  0.00    +0.000 A 
ATOM     10  C   UNL     1       0.989  -2.871  -0.297  0.00  0.00    +0.002 A 
ATOM     11  C   UNL     1       0.985  -2.065   0.824  0.00  0.00    +0.028 A 
ATOM     12  C   UNL     1      -0.073  -1.194   1.049  0.00  0.00    +0.070 A 
ENDBRANCH   1  12
BRANCH   4  13
ATOM     13  C   UNL     1      -0.451   2.844   3.904  0.00  0.00    +0.006 C 
ATOM     14  C   UNL     1       0.904   3.474   4.232  0.00  0.00    +0.017 C 
ATOM     15  C   UNL     1      -1.133   3.650   2.797  0.00  0.00    +0.017 C 
ATOM     16  C   UNL     1      -1.332   2.848   5.155  0.00  0.00    +0.017 C 
ENDBRANCH   4  13
BRANCH   2  17
ATOM     17  N   UNL     1       0.468  -2.061   3.882  0.00  0.00    -0.269 N 
ATOM     18  C   UNL     1       0.556  -2.339   5.198  0.00  0.00    +0.236 C 
ATOM     19  O   UNL     1       0.376  -1.462   6.017  0.00  0.00    -0.274 OA
ATOM     20  H   UNL     1       0.613  -2.762   3.228  0.00  0.00    +0.156 HD
BRANCH  18  21
ATOM     21  C   UNL     1       0.880  -3.739   5.652  0.00  0.00    +0.203 C 
BRANCH  21  22
ATOM     22  N   UNL     1       0.918  -3.781   7.117  0.00  0.00    -0.292 N 
ATOM     23  C   UNL     1       2.074  -3.544   7.767  0.00  0.00    +0.219 C 
ATOM     24  O   UNL     1       3.067  -3.231   7.146  0.00  0.00    -0.275 OA
BRANCH  23  25
ATOM     25  C   UNL     1       2.133  -3.668   9.268  0.00  0.00    +0.075 C 
ATOM     26  C   UNL     1       1.608  -2.428  10.010  0.00  0.00    +0.013 C 
ATOM     27  C   UNL     1       2.769  -2.625  10.999  0.00  0.00    +0.001 C 
ATOM     28  C   UNL     1       3.514  -3.341   9.860  0.00  0.00    +0.013 C 
ENDBRANCH  23  25
BRANCH  22  29
ATOM     29  C   UNL     1      -0.300  -4.080   7.873  0.00  0.00    +0.111 C 
BRANCH  29  30
ATOM     30  C   UNL     1      -0.509  -5.595   7.926  0.00  0.00    +0.000 C 
ATOM     31  C   UNL     1       0.626  -6.238   8.724  0.00  0.00    +0.009 C 
ATOM     32  C   UNL     1      -1.847  -5.902   8.602  0.00  0.00    +0.009 C 
ENDBRANCH  29  30
ENDBRANCH  22  29
ENDBRANCH  21  22
ENDBRANCH  18  21
ENDBRANCH   2  17
TORSDOF 8
