REMARK  Name = ZINC40756150
REMARK  6 active torsions:
REMARK  status: ('A' for Active; 'I' for Inactive)
REMARK    1  A    between atoms: C_4  and  N_8
REMARK    2  A    between atoms: C_10  and  N_24
REMARK    3  A    between atoms: C_11  and  N_15
REMARK    4  A    between atoms: N_15  and  C_16
REMARK    5  A    between atoms: C_16  and  C_17
REMARK    6  A    between atoms: C_17  and  C_18
REMARK                            x       y       z     vdW  Elec       q    Type
REMARK                         _______ _______ _______ _____ _____    ______ ____
ROOT
ATOM      1  N   UNL     1       3.623  -0.652  -0.037  0.00  0.00    -0.296 N 
ATOM      2  C   UNL     1       3.647  -2.038   0.060  0.00  0.00    +0.149 A 
ATOM      3  C   UNL     1       4.861  -2.721   0.155  0.00  0.00    +0.105 A 
ATOM      4  C   UNL     1       4.828  -4.114   0.251  0.00  0.00    +0.145 A 
ATOM      5  N   UNL     1       3.650  -4.732   0.248  0.00  0.00    -0.219 NA
ATOM      6  C   UNL     1       2.526  -4.050   0.156  0.00  0.00    +0.225 A 
ATOM      7  N   UNL     1       2.513  -2.735   0.069  0.00  0.00    -0.219 NA
ATOM      8  H   UNL     1       4.453  -0.157  -0.127  0.00  0.00    +0.154 HD
ENDROOT
BRANCH   1  12
ATOM      9  C   UNL     1      -0.015   1.383   0.054  0.00  0.00    +0.041 A 
ATOM     10  C   UNL     1       1.082   1.958  -0.561  0.00  0.00    +0.043 A 
ATOM     11  C   UNL     1       2.290   1.287  -0.594  0.00  0.00    +0.145 A 
ATOM     12  C   UNL     1       2.402   0.031  -0.006  0.00  0.00    +0.071 A 
ATOM     13  C   UNL     1       1.300  -0.544   0.611  0.00  0.00    +0.064 A 
ATOM     14  C   UNL     1       0.093   0.133   0.640  0.00  0.00    +0.125 A 
ATOM     15  F   UNL     1      -0.980  -0.426   1.240  0.00  0.00    -0.205 F 
ATOM     16  F   UNL     1       3.361   1.849  -1.196  0.00  0.00    -0.204 F 
ENDBRANCH   1  12
BRANCH   3  17
ATOM     17  N   UNL     1       6.081  -2.027   0.154  0.00  0.00    -0.353 N 
ATOM     18  H   UNL     1       6.089  -1.059   0.087  0.00  0.00    +0.143 HD
ATOM     19  H   UNL     1       6.917  -2.515   0.221  0.00  0.00    +0.143 HD
ENDBRANCH   3  17
BRANCH   4  20
ATOM     20  N   UNL     1       6.008  -4.842   0.348  0.00  0.00    -0.327 N 
ATOM     21  H   UNL     1       6.862  -4.384   0.349  0.00  0.00    +0.148 HD
BRANCH  20  22
ATOM     22  C   UNL     1       5.960  -6.303   0.448  0.00  0.00    +0.107 C 
BRANCH  22  23
ATOM     23  C   UNL     1       7.384  -6.854   0.542  0.00  0.00    +0.049 C 
BRANCH  23  24
ATOM     24  C   UNL     1       7.335  -8.357   0.645  0.00  0.00    -0.072 C 
ATOM     25  C   UNL     1       7.464  -9.045  -0.444  0.00  0.00    -0.028 C 
ATOM     26  C   UNL     1       7.426 -10.544  -0.502  0.00  0.00    +0.027 C 
ATOM     27  C   UNL     1       7.643 -11.130   0.894  0.00  0.00    +0.004 C 
ATOM     28  C   UNL     1       6.696 -10.422   1.871  0.00  0.00    +0.005 C 
ATOM     29  C   UNL     1       7.146  -8.963   2.004  0.00  0.00    +0.030 C 
ENDBRANCH  23  24
ENDBRANCH  22  23
ENDBRANCH  20  22
ENDBRANCH   4  20
TORSDOF 6
