REMARK  Name = ZINC40688512
REMARK  8 active torsions:
REMARK  status: ('A' for Active; 'I' for Inactive)
REMARK    1  A    between atoms: C_1  and  C_2
REMARK    2  A    between atoms: C_2  and  C_3
REMARK    3  A    between atoms: C_6  and  N_9
REMARK    4  A    between atoms: C_11  and  N_25
REMARK    5  A    between atoms: C_12  and  N_16
REMARK    6  A    between atoms: N_16  and  C_17
REMARK    7  A    between atoms: C_17  and  C_18
REMARK    8  A    between atoms: C_21  and  C_24
REMARK                            x       y       z     vdW  Elec       q    Type
REMARK                         _______ _______ _______ _____ _____    ______ ____
ROOT
ATOM      1  N   UNL     1       2.745  -1.884   4.596  0.00  0.00    -0.298 N 
ATOM      2  C   UNL     1       2.063  -2.038   5.798  0.00  0.00    +0.149 A 
ATOM      3  C   UNL     1       2.749  -2.395   6.961  0.00  0.00    +0.105 A 
ATOM      4  C   UNL     1       2.016  -2.536   8.141  0.00  0.00    +0.145 A 
ATOM      5  N   UNL     1       0.702  -2.326   8.113  0.00  0.00    -0.219 NA
ATOM      6  C   UNL     1       0.094  -1.991   6.994  0.00  0.00    +0.225 A 
ATOM      7  N   UNL     1       0.748  -1.843   5.860  0.00  0.00    -0.219 NA
ATOM      8  H   UNL     1       3.688  -2.103   4.542  0.00  0.00    +0.154 HD
ENDROOT
BRANCH   1  12
ATOM      9  C   UNL     1       0.736  -0.483   1.228  0.00  0.00    -0.048 A 
ATOM     10  C   UNL     1       0.369  -0.039   2.485  0.00  0.00    +0.005 A 
ATOM     11  C   UNL     1       1.033  -0.501   3.604  0.00  0.00    +0.023 A 
ATOM     12  C   UNL     1       2.071  -1.414   3.466  0.00  0.00    +0.032 A 
ATOM     13  C   UNL     1       2.437  -1.859   2.202  0.00  0.00    +0.023 A 
ATOM     14  C   UNL     1       1.765  -1.396   1.087  0.00  0.00    +0.005 A 
BRANCH   9  16
ATOM     15  C   UNL     1      -1.182  -0.887  -0.291  0.00  0.00    +0.009 C 
ATOM     16  C   UNL     1       0.010   0.024   0.009  0.00  0.00    +0.032 C 
ENDBRANCH   9  16
ENDBRANCH   1  12
BRANCH   3  17
ATOM     17  N   UNL     1       4.137  -2.607   6.944  0.00  0.00    -0.353 N 
ATOM     18  H   UNL     1       4.633  -2.506   6.117  0.00  0.00    +0.143 HD
ATOM     19  H   UNL     1       4.600  -2.854   7.760  0.00  0.00    +0.143 HD
ENDBRANCH   3  17
BRANCH   4  20
ATOM     20  N   UNL     1       2.649  -2.890   9.327  0.00  0.00    -0.323 N 
ATOM     21  H   UNL     1       3.607  -3.041   9.339  0.00  0.00    +0.148 HD
BRANCH  20  22
ATOM     22  C   UNL     1       1.869  -3.035  10.559  0.00  0.00    +0.138 C 
BRANCH  22  23
ATOM     23  C   UNL     1       2.786  -3.421  11.691  0.00  0.00    -0.030 A 
ATOM     24  C   UNL     1       3.031  -4.755  11.957  0.00  0.00    +0.005 A 
ATOM     25  C   UNL     1       3.871  -5.110  12.995  0.00  0.00    +0.003 A 
ATOM     26  C   UNL     1       4.467  -4.130  13.768  0.00  0.00    -0.050 A 
ATOM     27  C   UNL     1       4.223  -2.796  13.501  0.00  0.00    +0.003 A 
ATOM     28  C   UNL     1       3.385  -2.441  12.460  0.00  0.00    +0.005 A 
ATOM     29  C   UNL     1       5.383  -4.517  14.900  0.00  0.00    +0.044 C 
ENDBRANCH  22  23
ENDBRANCH  20  22
ENDBRANCH   4  20
TORSDOF 6
