REMARK  Name = ZINC09354468
REMARK  17 active torsions:
REMARK  status: ('A' for Active; 'I' for Inactive)
REMARK    1  A    between atoms: C_1  and  C_2
REMARK    2  A    between atoms: C_2  and  C_3
REMARK    3  A    between atoms: C_3  and  C_4
REMARK    4  A    between atoms: C_4  and  O_5
REMARK    5  A    between atoms: O_5  and  C_6
REMARK    6  A    between atoms: C_9  and  C_12
REMARK    7  A    between atoms: C_15  and  C_16
REMARK    8  A    between atoms: C_15  and  O_27
REMARK    9  A    between atoms: C_23  and  C_26
REMARK   10  A    between atoms: N_32  and  C_33
REMARK   11  A    between atoms: C_33  and  C_34
REMARK   12  A    between atoms: C_34  and  C_35
REMARK   13  A    between atoms: C_35  and  N_78
REMARK   14  A    between atoms: C_36  and  C_37
REMARK   15  A    between atoms: C_36  and  N_78
REMARK   16  A    between atoms: C_38  and  C_39
REMARK   17  A    between atoms: C_38  and  N_78
REMARK                            x       y       z     vdW  Elec       q    Type
REMARK                         _______ _______ _______ _____ _____    ______ ____
ROOT
ATOM      1  C   UNL     1       0.656   0.061  -5.417  0.00  0.00    +0.144 C 
ATOM      2  C   UNL     1       0.239  -1.352  -5.753  0.00  0.00    +0.071 C 
ATOM      3  C   UNL     1      -1.049  -1.814  -5.944  0.00  0.00    +0.133 C 
ATOM      4  C   UNL     1       1.423  -2.100  -5.830  0.00  0.00    +0.249 C 
ATOM      5  O   UNL     1       1.501  -3.289  -6.080  0.00  0.00    -0.282 OA
ATOM      6  C   UNL     1       2.566  -1.190  -5.551  0.00  0.00    +0.288 C 
ATOM      7  O   UNL     1       3.733  -1.523  -5.539  0.00  0.00    -0.266 OA
ATOM      8  N   UNL     1       2.118   0.054  -5.314  0.00  0.00    -0.284 N 
ENDROOT
BRANCH   3   9
ATOM      9  C   UNL     1      -1.276  -3.200  -6.380  0.00  0.00    +0.017 A 
ATOM     10  C   UNL     1      -2.207  -4.006  -5.714  0.00  0.00    +0.015 A 
ATOM     11  C   UNL     1      -2.420  -5.300  -6.125  0.00  0.00    +0.046 A 
ATOM     12  C   UNL     1      -1.710  -5.825  -7.207  0.00  0.00    +0.124 A 
ATOM     13  C   UNL     1      -0.780  -5.021  -7.863  0.00  0.00    -0.002 A 
ATOM     14  C   UNL     1      -0.566  -3.724  -7.468  0.00  0.00    +0.019 A 
ATOM     15  C   UNL     1      -0.170  -5.861  -8.969  0.00  0.00    +0.083 C 
ATOM     16  C   UNL     1      -0.591  -7.290  -8.553  0.00  0.00    +0.175 C 
ATOM     17  O   UNL     1      -1.777  -7.059  -7.773  0.00  0.00    -0.488 OA
ATOM     18  C   UNL     1      -0.910  -8.140  -9.784  0.00  0.00    +0.052 C 
ENDBRANCH   3   9
BRANCH   1  22
ATOM     19  C   UNL     1      -1.069   1.251  -1.693  0.00  0.00    +0.121 A 
ATOM     20  C   UNL     1       0.037   0.413  -1.710  0.00  0.00    +0.046 A 
ATOM     21  C   UNL     1       0.589   0.026  -2.916  0.00  0.00    +0.009 A 
ATOM     22  C   UNL     1       0.048   0.481  -4.104  0.00  0.00    -0.022 A 
ATOM     23  C   UNL     1      -1.051   1.321  -4.089  0.00  0.00    +0.009 A 
ATOM     24  C   UNL     1      -1.610   1.707  -2.886  0.00  0.00    +0.046 A 
BRANCH  19  25
ATOM     25  O   UNL     1      -1.617   1.629  -0.508  0.00  0.00    -0.492 OA
BRANCH  25  26
ATOM     26  C   UNL     1      -1.008   1.122   0.680  0.00  0.00    +0.229 C 
BRANCH  26  27
ATOM     27  C   UNL     1      -1.757   1.652   1.904  0.00  0.00    +0.041 C 
BRANCH  27  29
ATOM     28  C   UNL     1      -1.854   1.639   4.401  0.00  0.00    +0.004 C 
ATOM     29  C   UNL     1      -1.105   1.109   3.177  0.00  0.00    -0.000 C 
ENDBRANCH  27  29
ENDBRANCH  26  27
ENDBRANCH  25  26
ENDBRANCH  19  25
ENDBRANCH   1  22
BRANCH   3  30
ATOM     30  O   UNL     1      -2.099  -0.993  -5.732  0.00  0.00    -0.506 OA
ATOM     31  H   UNL     1      -2.950  -1.485  -5.916  0.00  0.00    +0.292 HD
ENDBRANCH   3  30
BRANCH   8  32
ATOM     32  C   UNL     1       2.955   1.216  -5.003  0.00  0.00    +0.107 C 
BRANCH  32  33
ATOM     33  C   UNL     1       3.146   1.316  -3.489  0.00  0.00    +0.000 C 
BRANCH  33  34
ATOM     34  C   UNL     1       4.020   2.529  -3.164  0.00  0.00    -0.077 C 
BRANCH  34  35
ATOM     35  N   UNL     1       4.212   2.601  -1.700  0.00  0.00    +0.379 N 
ATOM     36  H   UNL     1       4.542   1.689  -1.363  0.00  0.00    -0.082 HD
BRANCH  35  37
ATOM     37  C   UNL     1       5.222   3.629  -1.373  0.00  0.00    -0.082 C 
ATOM     38  C   UNL     1       6.612   3.058  -1.659  0.00  0.00    -0.017 C 
ENDBRANCH  35  37
BRANCH  35  39
ATOM     39  C   UNL     1       2.930   2.923  -1.038  0.00  0.00    -0.082 C 
ATOM     40  C   UNL     1       3.061   2.622   0.457  0.00  0.00    -0.017 C 
ENDBRANCH  35  39
ENDBRANCH  34  35
ENDBRANCH  33  34
ENDBRANCH  32  33
ENDBRANCH   8  32
TORSDOF 13
