REMARK  Name = ZINC39088796
REMARK  0 active torsions:
REMARK  status: ('A' for Active; 'I' for Inactive)
REMARK                            x       y       z     vdW  Elec       q    Type
REMARK                         _______ _______ _______ _____ _____    ______ ____
ROOT
ATOM      1  C   UNL     1      -0.019   1.541   0.011  0.00  0.00    +0.072 C 
ATOM      2  C   UNL     1       1.474   1.937  -0.002  0.00  0.00    +0.166 C 
ATOM      3  O   UNL     1       2.163   0.795   0.553  0.00  0.00    -0.345 OA
ATOM      4  C   UNL     1       1.506  -0.359  -0.014  0.00  0.00    +0.333 C 
ATOM      5  C   UNL     1       0.002  -0.004   0.002  0.00  0.00    +0.175 C 
ATOM      6 CL   UNL     1      -0.813  -0.639  -1.476  0.00  0.00    -0.095 Cl
ATOM      7 CL   UNL     1      -0.785  -0.655   1.488  0.00  0.00    -0.095 Cl
ATOM      8  F   UNL     1       1.749  -1.492   0.769  0.00  0.00    -0.211 F 
ENDROOT
TORSDOF 0
