REMARK  Name = ZINC01218903
REMARK  6 active torsions:
REMARK  status: ('A' for Active; 'I' for Inactive)
REMARK    1  A    between atoms: C_1  and  O_2
REMARK    2  A    between atoms: O_2  and  C_3
REMARK    3  A    between atoms: C_8  and  N_9
REMARK    4  A    between atoms: C_10  and  C_12
REMARK    5  A    between atoms: C_18  and  C_25
REMARK    6  A    between atoms: C_20  and  C_21
REMARK                            x       y       z     vdW  Elec       q    Type
REMARK                         _______ _______ _______ _____ _____    ______ ____
ROOT
ATOM      1  C   UNL     1      -2.203  -4.415   0.016  0.00  0.00    +0.101 A 
ATOM      2  C   UNL     1      -3.580  -4.705   0.032  0.00  0.00    +0.150 A 
ATOM      3  N   UNL     1      -4.246  -3.582   0.056  0.00  0.00    -0.172 NA
ATOM      4  N   UNL     1      -3.350  -2.506   0.056  0.00  0.00    -0.209 N 
ATOM      5  C   UNL     1      -2.080  -3.011   0.032  0.00  0.00    +0.169 A 
ATOM      6  N   UNL     1      -1.022  -2.204   0.026  0.00  0.00    -0.224 NA
ATOM      7  C   UNL     1      -1.175  -0.885   0.044  0.00  0.00    +0.110 A 
ATOM      8  C   UNL     1      -2.474  -0.329   0.076  0.00  0.00    +0.064 A 
ATOM      9  C   UNL     1      -3.546  -1.153   0.076  0.00  0.00    +0.149 A 
ENDROOT
BRANCH   7  10
ATOM     10  C   UNL     1       0.005  -0.005   0.038  0.00  0.00    +0.153 A 
ATOM     11  C   UNL     1       1.306  -0.411   0.014  0.00  0.00    +0.051 A 
ATOM     12  C   UNL     1       2.094   0.754   0.016  0.00  0.00    +0.042 A 
ATOM     13  C   UNL     1       1.247   1.805   0.041  0.00  0.00    +0.196 A 
ATOM     14  O   UNL     1      -0.012   1.343   0.054  0.00  0.00    -0.461 OA
ENDBRANCH   7  10
BRANCH   1  16
ATOM     15  N   UNL     1      -1.377  -6.707  -0.024  0.00  0.00    -0.278 N 
ATOM     16  C   UNL     1      -1.107  -5.387  -0.012  0.00  0.00    +0.253 C 
ATOM     17  O   UNL     1       0.048  -5.002  -0.024  0.00  0.00    -0.270 OA
ATOM     18  H   UNL     1      -2.294  -7.016   0.050  0.00  0.00    +0.155 HD
BRANCH  15  24
ATOM     19  C   UNL     1      -0.533  -8.823  -0.844  0.00  0.00    +0.143 A 
ATOM     20  C   UNL     1       0.503  -9.734  -0.967  0.00  0.00    +0.067 A 
ATOM     21  C   UNL     1       1.730  -9.468  -0.384  0.00  0.00    +0.045 A 
ATOM     22  C   UNL     1       1.927  -8.290   0.315  0.00  0.00    +0.022 A 
ATOM     23  C   UNL     1       0.899  -7.374   0.435  0.00  0.00    +0.028 A 
ATOM     24  C   UNL     1      -0.334  -7.635  -0.145  0.00  0.00    +0.076 A 
ATOM     25 CL   UNL     1       3.026 -10.614  -0.532  0.00  0.00    -0.083 Cl
BRANCH  19  27
ATOM     26  C   UNL     1      -1.874 -10.324  -2.112  0.00  0.00    +0.277 C 
ATOM     27  O   UNL     1      -1.741  -9.086  -1.410  0.00  0.00    -0.493 OA
ENDBRANCH  19  27
ENDBRANCH  15  24
ENDBRANCH   1  16
BRANCH   9  28
ATOM     28  C   UNL     1      -4.942  -0.587   0.103  0.00  0.00    +0.434 C 
ATOM     29  F   UNL     1      -5.355  -0.428   1.430  0.00  0.00    -0.164 F 
ATOM     30  F   UNL     1      -4.954   0.655  -0.541  0.00  0.00    -0.164 F 
ATOM     31  F   UNL     1      -5.814  -1.462  -0.555  0.00  0.00    -0.164 F 
ENDBRANCH   9  28
TORSDOF 5
