REMARK  Name = ZINC13498918
REMARK  15 active torsions:
REMARK  status: ('A' for Active; 'I' for Inactive)
REMARK    1  A    between atoms: C_1  and  C_2
REMARK    2  A    between atoms: C_2  and  O_3
REMARK    3  A    between atoms: O_3  and  C_4
REMARK    4  A    between atoms: C_4  and  C_6
REMARK    5  A    between atoms: C_6  and  N_7
REMARK    6  A    between atoms: C_8  and  C_12
REMARK    7  A    between atoms: C_12  and  C_14
REMARK    8  A    between atoms: C_12  and  N_74
REMARK    9  A    between atoms: C_14  and  C_15
REMARK   10  A    between atoms: C_14  and  C_16
REMARK   11  A    between atoms: C_17  and  C_18
REMARK   12  A    between atoms: C_17  and  N_74
REMARK   13  A    between atoms: C_22  and  C_31
REMARK   14  A    between atoms: C_23  and  C_30
REMARK   15  A    between atoms: C_32  and  N_74
REMARK                            x       y       z     vdW  Elec       q    Type
REMARK                         _______ _______ _______ _____ _____    ______ ____
ROOT
ATOM      1  N   UNL     1      -5.397   4.021  -1.381  0.00  0.00    +0.391 N 
ATOM      2  H   UNL     1      -4.536   4.395  -1.796  0.00  0.00    -0.080 HD
ENDROOT
BRANCH   1   3
ATOM      3  C   UNL     1      -5.764   2.772  -2.081  0.00  0.00    -0.067 C 
ATOM      4  C   UNL     1      -4.490   2.137  -2.642  0.00  0.00    -0.015 C 
ATOM      5  C   UNL     1      -4.847   0.847  -3.384  0.00  0.00    -0.002 C 
ATOM      6  C   UNL     1      -5.806   1.167  -4.532  0.00  0.00    -0.000 C 
ATOM      7  C   UNL     1      -7.080   1.802  -3.970  0.00  0.00    -0.002 C 
ATOM      8  C   UNL     1      -6.723   3.092  -3.229  0.00  0.00    -0.015 C 
ENDBRANCH   1   3
BRANCH   1   9
ATOM      9  C   UNL     1      -6.476   5.020  -1.532  0.00  0.00    +0.006 C 
BRANCH   9  11
ATOM     10  N   UNL     1      -8.822   4.838  -0.546  0.00  0.00    -0.220 N 
ATOM     11  C   UNL     1      -7.482   4.878  -0.419  0.00  0.00    +0.139 A 
ATOM     12  N   UNL     1      -7.223   4.776   0.862  0.00  0.00    -0.115 NA
ATOM     13  N   UNL     1      -8.345   4.673   1.488  0.00  0.00    -0.023 NA
ATOM     14  N   UNL     1      -9.312   4.707   0.640  0.00  0.00    -0.043 NA
BRANCH  10  15
ATOM     15  C   UNL     1      -9.579   4.924  -1.797  0.00  0.00    +0.267 C 
BRANCH  15  16
ATOM     16  C   UNL     1      -9.785   3.540  -2.356  0.00  0.00    +0.329 C 
ATOM     17  O   UNL     1      -9.343   2.580  -1.770  0.00  0.00    -0.249 OA
BRANCH  16  18
ATOM     18  O   UNL     1     -10.458   3.373  -3.505  0.00  0.00    -0.464 OA
BRANCH  18  20
ATOM     19  C   UNL     1     -11.405   2.021  -5.296  0.00  0.00    +0.048 C 
ATOM     20  C   UNL     1     -10.618   2.011  -3.984  0.00  0.00    +0.229 C 
ENDBRANCH  18  20
ENDBRANCH  16  18
ENDBRANCH  15  16
ENDBRANCH  10  15
ENDBRANCH   9  11
BRANCH   9  21
ATOM     21  C   UNL     1      -5.856   6.418  -1.484  0.00  0.00    -0.024 C 
ATOM     22  C   UNL     1      -5.058   6.577  -0.189  0.00  0.00    +0.006 C 
ATOM     23  C   UNL     1      -4.925   6.604  -2.684  0.00  0.00    +0.006 C 
ENDBRANCH   9  21
ENDBRANCH   1   9
BRANCH   1  24
ATOM     24  C   UNL     1      -5.160   3.746   0.052  0.00  0.00    -0.036 C 
BRANCH  24  25
ATOM     25  C   UNL     1      -3.861   2.995   0.192  0.00  0.00    +0.001 A 
ATOM     26  C   UNL     1      -2.705   3.675   0.393  0.00  0.00    +0.017 A 
ATOM     27  C   UNL     1      -1.460   2.916   0.526  0.00  0.00    -0.001 A 
ATOM     28  C   UNL     1      -0.237   3.562   0.733  0.00  0.00    +0.013 A 
ATOM     29  C   UNL     1       0.906   2.825   0.853  0.00  0.00    -0.047 A 
ATOM     30  C   UNL     1       0.866   1.440   0.770  0.00  0.00    -0.046 A 
ATOM     31  C   UNL     1      -0.328   0.782   0.566  0.00  0.00    +0.030 A 
ATOM     32  C   UNL     1      -1.505   1.512   0.435  0.00  0.00    +0.049 A 
ATOM     33  N   UNL     1      -2.714   0.880   0.236  0.00  0.00    -0.322 N 
ATOM     34  H   UNL     1      -2.743  -0.088   0.179  0.00  0.00    +0.169 HD
ATOM     35  C   UNL     1      -3.852   1.586   0.116  0.00  0.00    +0.251 A 
ATOM     36  O   UNL     1      -4.902   0.994  -0.065  0.00  0.00    -0.268 OA
ATOM     37  C   UNL     1       2.140   0.647   0.906  0.00  0.00    +0.044 C 
ATOM     38  C   UNL     1       2.224   3.522   1.076  0.00  0.00    +0.044 C 
ENDBRANCH  24  25
ENDBRANCH   1  24
TORSDOF 10
