REMARK  Name = ZINC64080877
REMARK  8 active torsions:
REMARK  status: ('A' for Active; 'I' for Inactive)
REMARK    1  A    between atoms: C_7  and  C_11
REMARK    2  A    between atoms: C_11  and  C_12
REMARK    3  A    between atoms: C_12  and  C_13
REMARK    4  A    between atoms: N_15  and  N_16
REMARK    5  A    between atoms: N_16  and  C_17
REMARK    6  A    between atoms: C_17  and  N_19
REMARK    7  A    between atoms: N_19  and  C_20
REMARK    8  A    between atoms: C_20  and  C_21
REMARK                            x       y       z     vdW  Elec       q    Type
REMARK                         _______ _______ _______ _____ _____    ______ ____
ROOT
ATOM      1  C   UNL     1      -0.701  -4.769  -1.452  0.00  0.00    +0.229 C 
ATOM      2  O   UNL     1      -0.996  -5.307  -0.405  0.00  0.00    -0.274 OA
ATOM      3  N   UNL     1      -1.212  -5.228  -2.612  0.00  0.00    -0.235 N 
ATOM      4  H   UNL     1      -0.976  -4.798  -3.449  0.00  0.00    +0.173 HD
ENDROOT
BRANCH   3   5
ATOM      5  N   UNL     1      -2.083  -6.325  -2.609  0.00  0.00    -0.246 N 
ATOM      6  H   UNL     1      -2.319  -6.755  -1.772  0.00  0.00    +0.172 HD
BRANCH   5   7
ATOM      7  C   UNL     1      -2.594  -6.783  -3.769  0.00  0.00    +0.147 C 
ATOM      8  S   UNL     1      -3.658  -8.124  -3.765  0.00  0.00    -0.017 S 
BRANCH   7   9
ATOM      9  N   UNL     1      -2.266  -6.186  -4.932  0.00  0.00    -0.317 N 
ATOM     10  H   UNL     1      -1.663  -5.426  -4.934  0.00  0.00    +0.148 HD
BRANCH   9  11
ATOM     11  C   UNL     1      -2.821  -6.684  -6.193  0.00  0.00    +0.216 C 
BRANCH  11  12
ATOM     12  C   UNL     1      -2.294  -5.837  -7.352  0.00  0.00    +0.405 C 
ATOM     13  F   UNL     1      -0.898  -5.918  -7.393  0.00  0.00    -0.169 F 
ATOM     14  F   UNL     1      -2.824  -6.312  -8.556  0.00  0.00    -0.169 F 
ATOM     15  F   UNL     1      -2.678  -4.504  -7.168  0.00  0.00    -0.169 F 
ENDBRANCH  11  12
ENDBRANCH   9  11
ENDBRANCH   7   9
ENDBRANCH   5   7
ENDBRANCH   3   5
BRANCH   1  16
ATOM     16  C   UNL     1       0.236  -3.589  -1.455  0.00  0.00    +0.102 C 
BRANCH  16  17
ATOM     17  C   UNL     1       0.666  -3.275  -0.021  0.00  0.00    +0.046 C 
BRANCH  17  24
ATOM     18  C   UNL     1      -0.017   1.362   0.009  0.00  0.00    +0.001 A 
ATOM     19  C   UNL     1       1.170   2.083   0.002  0.00  0.00    +0.002 A 
ATOM     20  C   UNL     1       2.386   1.436  -0.013  0.00  0.00    +0.026 A 
ATOM     21  C   UNL     1       2.428   0.046  -0.021  0.00  0.00    +0.047 A 
ATOM     22  C   UNL     1       1.223  -0.681  -0.013  0.00  0.00    +0.003 A 
ATOM     23  C   UNL     1       0.002  -0.004   0.002  0.00  0.00    +0.010 A 
ATOM     24  C   UNL     1       1.604  -2.095  -0.025  0.00  0.00    -0.022 A 
ATOM     25  C   UNL     1       2.945  -2.141  -0.038  0.00  0.00    +0.087 A 
ATOM     26  N   UNL     1       3.455  -0.871  -0.036  0.00  0.00    -0.360 N 
ATOM     27  H   UNL     1       4.399  -0.650  -0.044  0.00  0.00    +0.165 HD
ENDBRANCH  17  24
ENDBRANCH  16  17
ENDBRANCH   1  16
TORSDOF 8
