REMARK  Name = ZINC01743804
REMARK  0 active torsions:
REMARK  status: ('A' for Active; 'I' for Inactive)
REMARK                            x       y       z     vdW  Elec       q    Type
REMARK                         _______ _______ _______ _____ _____    ______ ____
ROOT
ATOM      1  C   UNL     1       0.552   6.379  -0.387  0.00  0.00    +0.005 C 
ATOM      2  C   UNL     1      -0.721   6.356   0.466  0.00  0.00    +0.005 C 
ATOM      3  C   UNL     1      -1.579   5.162   0.045  0.00  0.00    +0.043 C 
ATOM      4  C   UNL     1      -0.714   3.912   0.030  0.00  0.00    +0.004 A 
ATOM      5  C   UNL     1       0.612   3.930   0.018  0.00  0.00    +0.004 A 
ATOM      6  S   UNL     1       1.314   2.311   0.002  0.00  0.00    -0.044 S 
ATOM      7  C   UNL     1      -0.015   1.214   0.009  0.00  0.00    +0.255 A 
ATOM      8  O   UNL     1       0.002  -0.004   0.002  0.00  0.00    -0.272 OA
ATOM      9  S   UNL     1      -1.372   2.275   0.020  0.00  0.00    -0.044 S 
ATOM     10  C   UNL     1       1.442   5.203   0.018  0.00  0.00    +0.043 C 
ENDROOT
TORSDOF 0
