REMARK  Name = ZINC57317208
REMARK  12 active torsions:
REMARK  status: ('A' for Active; 'I' for Inactive)
REMARK    1  A    between atoms: C_1  and  C_2
REMARK    2  A    between atoms: C_2  and  C_3
REMARK    3  A    between atoms: C_3  and  C_5
REMARK    4  A    between atoms: C_3  and  C_6
REMARK    5  A    between atoms: C_9  and  O_12
REMARK    6  A    between atoms: O_12  and  C_13
REMARK    7  A    between atoms: C_13  and  C_14
REMARK    8  A    between atoms: N_16  and  C_17
REMARK    9  A    between atoms: C_20  and  N_23
REMARK   10  A    between atoms: C_29  and  C_31
REMARK   11  A    between atoms: C_34  and  O_37
REMARK   12  A    between atoms: O_37  and  C_38
REMARK                            x       y       z     vdW  Elec       q    Type
REMARK                         _______ _______ _______ _____ _____    ______ ____
ROOT
ATOM      1  C   UNL     1      -1.943 -10.483  -2.581  0.00  0.00    +0.034 A 
ATOM      2  C   UNL     1      -1.207 -11.042  -1.545  0.00  0.00    +0.025 A 
ATOM      3  C   UNL     1      -1.050 -12.412  -1.471  0.00  0.00    +0.025 A 
ATOM      4  C   UNL     1      -1.627 -13.230  -2.433  0.00  0.00    +0.030 A 
ATOM      5  C   UNL     1      -2.363 -12.671  -3.469  0.00  0.00    +0.025 A 
ATOM      6  C   UNL     1      -2.525 -11.301  -3.540  0.00  0.00    +0.025 A 
ENDROOT
BRANCH   4   7
ATOM      7  N   UNL     1      -1.467 -14.618  -2.358  0.00  0.00    -0.327 N 
ATOM      8  C   UNL     1      -1.957 -15.486  -3.438  0.00  0.00    +0.124 C 
ATOM      9  C   UNL     1      -0.793 -16.349  -3.939  0.00  0.00    +0.127 C 
ATOM     10  N   UNL     1      -0.131 -16.965  -2.780  0.00  0.00    -0.295 N 
ATOM     11  C   UNL     1       0.359 -16.096  -1.701  0.00  0.00    +0.127 C 
ATOM     12  C   UNL     1      -0.801 -15.233  -1.202  0.00  0.00    +0.124 C 
ATOM     13  C   UNL     1       0.023 -18.302  -2.708  0.00  0.00    +0.247 C 
ATOM     14  O   UNL     1       0.639 -18.794  -1.783  0.00  0.00    -0.270 OA
BRANCH  13  15
ATOM     15  C   UNL     1      -0.556 -19.169  -3.753  0.00  0.00    +0.037 A 
ATOM     16  C   UNL     1      -0.390 -18.846  -5.103  0.00  0.00    +0.016 A 
ATOM     17  C   UNL     1      -0.931 -19.657  -6.074  0.00  0.00    +0.046 A 
ATOM     18  C   UNL     1      -1.643 -20.796  -5.715  0.00  0.00    +0.120 A 
ATOM     19  C   UNL     1      -1.810 -21.121  -4.374  0.00  0.00    +0.046 A 
ATOM     20  C   UNL     1      -1.267 -20.318  -3.396  0.00  0.00    +0.016 A 
BRANCH  18  21
ATOM     21  O   UNL     1      -2.175 -21.593  -6.676  0.00  0.00    -0.495 OA
ATOM     22  C   UNL     1      -2.894 -22.747  -6.236  0.00  0.00    +0.277 C 
ENDBRANCH  18  21
ENDBRANCH  13  15
ENDBRANCH   4   7
BRANCH   1  25
ATOM     23  C   UNL     1      -3.261  -8.571  -3.106  0.00  0.00    +0.255 C 
ATOM     24  O   UNL     1      -4.134  -9.302  -3.525  0.00  0.00    -0.272 OA
ATOM     25  N   UNL     1      -2.103  -9.093  -2.656  0.00  0.00    -0.283 N 
ATOM     26  H   UNL     1      -1.380  -8.506  -2.384  0.00  0.00    +0.155 HD
BRANCH  23  27
ATOM     27  C   UNL     1      -3.473  -7.079  -3.088  0.00  0.00    +0.324 C 
BRANCH  27  28
ATOM     28  O   UNL     1      -4.768  -6.775  -3.610  0.00  0.00    -0.483 OA
BRANCH  28  32
ATOM     29  C   UNL     1      -5.836  -2.794  -3.772  0.00  0.00    -0.044 A 
ATOM     30  C   UNL     1      -6.717  -3.763  -4.214  0.00  0.00    +0.007 A 
ATOM     31  C   UNL     1      -6.362  -5.097  -4.160  0.00  0.00    +0.046 A 
ATOM     32  C   UNL     1      -5.120  -5.464  -3.664  0.00  0.00    +0.121 A 
ATOM     33  C   UNL     1      -4.237  -4.489  -3.223  0.00  0.00    +0.046 A 
ATOM     34  C   UNL     1      -4.595  -3.156  -3.283  0.00  0.00    +0.007 A 
BRANCH  29  35
ATOM     35  C   UNL     1      -6.226  -1.339  -3.831  0.00  0.00    +0.016 C 
ATOM     36  C   UNL     1      -7.476  -1.112  -2.979  0.00  0.00    +0.012 C 
BRANCH  35  38
ATOM     37  C   UNL     1      -6.794   0.555  -5.358  0.00  0.00    +0.004 C 
ATOM     38  C   UNL     1      -6.520  -0.948  -5.281  0.00  0.00    +0.004 C 
ENDBRANCH  35  38
ENDBRANCH  29  35
ENDBRANCH  28  32
ENDBRANCH  27  28
ENDBRANCH  23  27
ENDBRANCH   1  25
TORSDOF 9
