REMARK  Name = ZINC24138471
REMARK  11 active torsions:
REMARK  status: ('A' for Active; 'I' for Inactive)
REMARK    1  A    between atoms: C_1  and  C_2
REMARK    2  A    between atoms: C_7  and  N_8
REMARK    3  A    between atoms: C_9  and  C_27
REMARK    4  A    between atoms: C_12  and  S_13
REMARK    5  A    between atoms: S_13  and  C_14
REMARK    6  A    between atoms: C_14  and  C_15
REMARK    7  A    between atoms: C_21  and  C_24
REMARK    8  A    between atoms: C_30  and  C_33
REMARK    9  A    between atoms: C_33  and  C_34
REMARK   10  A    between atoms: C_33  and  C_35
REMARK   11  A    between atoms: C_33  and  C_36
REMARK                            x       y       z     vdW  Elec       q    Type
REMARK                         _______ _______ _______ _____ _____    ______ ____
ROOT
ATOM      1  N   UNL     1       1.325  -0.390  -0.013  0.00  0.00    -0.270 N 
ATOM      2  C   UNL     1       0.002  -0.004   0.002  0.00  0.00    +0.169 A 
ATOM      3  N   UNL     1      -0.016   1.309   0.009  0.00  0.00    -0.128 NA
ATOM      4  N   UNL     1       1.185   1.765   0.000  0.00  0.00    -0.122 NA
ATOM      5  C   UNL     1       2.047   0.772  -0.013  0.00  0.00    +0.197 A 
ENDROOT
BRANCH   1  12
ATOM      6  C   UNL     1       1.842  -1.655   2.484  0.00  0.00    +0.046 C 
ATOM      7  C   UNL     1       2.091  -2.352   1.172  0.00  0.00    -0.026 A 
ATOM      8  C   UNL     1       2.579  -3.644   1.158  0.00  0.00    +0.005 A 
ATOM      9  C   UNL     1       2.814  -4.283  -0.046  0.00  0.00    +0.000 A 
ATOM     10  C   UNL     1       2.556  -3.633  -1.239  0.00  0.00    +0.002 A 
ATOM     11  C   UNL     1       2.063  -2.343  -1.231  0.00  0.00    +0.026 A 
ATOM     12  C   UNL     1       1.826  -1.699  -0.024  0.00  0.00    +0.053 A 
ENDBRANCH   1  12
BRANCH   2  13
ATOM     13  C   UNL     1      -1.174  -0.899   0.009  0.00  0.00    +0.020 A 
ATOM     14  C   UNL     1      -1.022  -2.254   0.308  0.00  0.00    +0.012 A 
ATOM     15  C   UNL     1      -2.125  -3.083   0.316  0.00  0.00    +0.005 A 
ATOM     16  C   UNL     1      -3.378  -2.576   0.021  0.00  0.00    -0.042 A 
ATOM     17  C   UNL     1      -3.535  -1.234  -0.280  0.00  0.00    +0.005 A 
ATOM     18  C   UNL     1      -2.441  -0.394  -0.288  0.00  0.00    +0.012 A 
BRANCH  16  19
ATOM     19  C   UNL     1      -4.577  -3.488   0.028  0.00  0.00    -0.013 C 
ATOM     20  C   UNL     1      -5.223  -3.492  -1.360  0.00  0.00    +0.015 C 
ATOM     21  C   UNL     1      -4.136  -4.908   0.389  0.00  0.00    +0.015 C 
ATOM     22  C   UNL     1      -5.591  -2.991   1.060  0.00  0.00    +0.015 C 
ENDBRANCH  16  19
ENDBRANCH   2  13
BRANCH   5  23
ATOM     23  S   UNL     1       3.803   0.912  -0.029  0.00  0.00    -0.076 S 
BRANCH  23  24
ATOM     24  C   UNL     1       3.975   2.713  -0.021  0.00  0.00    +0.173 C 
BRANCH  24  25
ATOM     25  C   UNL     1       5.437   3.079  -0.033  0.00  0.00    +0.226 C 
ATOM     26  O   UNL     1       6.280   2.206  -0.046  0.00  0.00    -0.275 OA
ATOM     27  N   UNL     1       5.809   4.374  -0.030  0.00  0.00    -0.300 N 
ATOM     28  C   UNL     1       4.799   5.442  -0.015  0.00  0.00    +0.108 C 
ATOM     29  C   UNL     1       5.097   6.385   1.156  0.00  0.00    +0.020 C 
ATOM     30  C   UNL     1       6.539   6.885   1.049  0.00  0.00    +0.016 C 
ATOM     31  C   UNL     1       7.500   5.696   1.129  0.00  0.00    +0.092 C 
ATOM     32  C   UNL     1       7.230   4.746  -0.035  0.00  0.00    +0.120 C 
BRANCH  31  33
ATOM     33  C   UNL     1       8.921   6.193   1.057  0.00  0.00    +0.215 C 
ATOM     34  O   UNL     1       9.144   7.380   0.950  0.00  0.00    -0.276 OA
ATOM     35  N   UNL     1       9.944   5.317   1.109  0.00  0.00    -0.329 N 
ATOM     36  H   UNL     1      10.982   5.679   1.056  0.00  0.00    +0.145 HD
ATOM     37  H   UNL     1       9.742   4.240   1.206  0.00  0.00    +0.145 HD
ENDBRANCH  31  33
ENDBRANCH  24  25
ENDBRANCH  23  24
ENDBRANCH   5  23
TORSDOF 7
