REMARK  Name = ZINC35945015
REMARK  15 active torsions:
REMARK  status: ('A' for Active; 'I' for Inactive)
REMARK    1  A    between atoms: C_1  and  C_2
REMARK    2  A    between atoms: C_2  and  C_3
REMARK    3  A    between atoms: C_2  and  C_4
REMARK    4  A    between atoms: C_4  and  N_5
REMARK    5  A    between atoms: N_5  and  C_6
REMARK    6  A    between atoms: C_6  and  C_7
REMARK    7  A    between atoms: C_9  and  N_22
REMARK    8  A    between atoms: C_12  and  N_13
REMARK    9  A    between atoms: N_13  and  C_14
REMARK   10  A    between atoms: N_13  and  C_15
REMARK   11  A    between atoms: N_18  and  C_21
REMARK   12  A    between atoms: C_23  and  C_25
REMARK   13  A    between atoms: C_30  and  C_32
REMARK   14  A    between atoms: C_35  and  O_38
REMARK   15  A    between atoms: O_38  and  C_39
REMARK                            x       y       z     vdW  Elec       q    Type
REMARK                         _______ _______ _______ _____ _____    ______ ____
ROOT
ATOM      1  C   UNL     1      -2.309  -1.235  -3.195  0.00  0.00    -0.007 A 
ATOM      2  C   UNL     1      -2.449  -2.608  -3.144  0.00  0.00    +0.030 A 
ATOM      3  C   UNL     1      -3.552  -3.215  -3.728  0.00  0.00    +0.034 A 
ATOM      4  C   UNL     1      -4.515  -2.442  -4.364  0.00  0.00    +0.025 A 
ATOM      5  C   UNL     1      -4.375  -1.070  -4.415  0.00  0.00    +0.025 A 
ATOM      6  C   UNL     1      -3.274  -0.462  -3.826  0.00  0.00    +0.035 A 
ENDROOT
BRANCH   3   7
ATOM      7  N   UNL     1      -3.695  -4.609  -3.677  0.00  0.00    -0.285 N 
ATOM      8  C   UNL     1      -4.262  -5.267  -4.707  0.00  0.00    +0.220 C 
ATOM      9  O   UNL     1      -4.573  -4.665  -5.714  0.00  0.00    -0.275 OA
ATOM     10  H   UNL     1      -3.385  -5.099  -2.900  0.00  0.00    +0.155 HD
BRANCH   8  11
ATOM     11  C   UNL     1      -4.509  -6.750  -4.609  0.00  0.00    +0.075 C 
ATOM     12  C   UNL     1      -3.170  -7.501  -4.463  0.00  0.00    +0.013 C 
ATOM     13  C   UNL     1      -3.369  -8.797  -5.287  0.00  0.00    +0.001 C 
ATOM     14  C   UNL     1      -4.195  -8.307  -6.502  0.00  0.00    +0.001 C 
ATOM     15  C   UNL     1      -5.161  -7.262  -5.905  0.00  0.00    +0.013 C 
ENDBRANCH   8  11
ENDBRANCH   3   7
BRANCH   6  16
ATOM     16  N   UNL     1      -3.135   0.929  -3.872  0.00  0.00    -0.330 N 
ATOM     17  C   UNL     1      -3.581   1.748  -2.742  0.00  0.00    +0.129 C 
BRANCH  16  18
ATOM     18  C   UNL     1      -2.544   1.568  -5.051  0.00  0.00    +0.070 C 
ATOM     19  C   UNL     1      -1.246   2.277  -4.652  0.00  0.00    +0.004 C 
ATOM     20  C   UNL     1      -0.676   3.007  -5.870  0.00  0.00    -0.077 C 
ATOM     21  N   UNL     1      -1.648   3.996  -6.352  0.00  0.00    +0.378 N 
ATOM     22  C   UNL     1      -2.868   3.316  -6.803  0.00  0.00    -0.077 C 
ATOM     23  C   UNL     1      -3.523   2.598  -5.621  0.00  0.00    +0.004 C 
ATOM     24  C   UNL     1      -1.066   4.748  -7.471  0.00  0.00    -0.096 C 
ATOM     25  H   UNL     1      -1.877   4.634  -5.604  0.00  0.00    -0.082 HD
ENDBRANCH  16  18
ENDBRANCH   6  16
BRANCH   1  26
ATOM     26  C   UNL     1      -1.111  -0.576  -2.561  0.00  0.00    +0.145 C 
BRANCH  26  27
ATOM     27  N   UNL     1      -0.195  -1.605  -2.062  0.00  0.00    -0.293 N 
ATOM     28  C   UNL     1      -0.096  -1.835  -0.738  0.00  0.00    +0.247 C 
ATOM     29  O   UNL     1       0.711  -2.642  -0.319  0.00  0.00    -0.270 OA
BRANCH  28  30
ATOM     30  C   UNL     1      -0.968  -1.106   0.205  0.00  0.00    +0.037 A 
ATOM     31  C   UNL     1      -2.217  -0.641  -0.213  0.00  0.00    +0.016 A 
ATOM     32  C   UNL     1      -3.028   0.038   0.669  0.00  0.00    +0.046 A 
ATOM     33  C   UNL     1      -2.604   0.262   1.974  0.00  0.00    +0.120 A 
ATOM     34  C   UNL     1      -1.362  -0.199   2.393  0.00  0.00    +0.046 A 
ATOM     35  C   UNL     1      -0.548  -0.884   1.519  0.00  0.00    +0.016 A 
BRANCH  33  36
ATOM     36  O   UNL     1      -3.405   0.932   2.840  0.00  0.00    -0.495 OA
ATOM     37  C   UNL     1      -2.908   1.127   4.165  0.00  0.00    +0.277 C 
ENDBRANCH  33  36
ENDBRANCH  28  30
BRANCH  27  38
ATOM     38  C   UNL     1       0.614  -2.384  -3.003  0.00  0.00    +0.111 C 
BRANCH  38  40
ATOM     39  C   UNL     1       2.719  -1.527  -1.964  0.00  0.00    +0.009 C 
ATOM     40  C   UNL     1       1.931  -1.652  -3.269  0.00  0.00    +0.000 C 
ATOM     41  C   UNL     1       2.756  -2.441  -4.289  0.00  0.00    +0.009 C 
ENDBRANCH  38  40
ENDBRANCH  27  38
ENDBRANCH  26  27
ENDBRANCH   1  26
TORSDOF 10
