REMARK  Name = ZINC09414994
REMARK  9 active torsions:
REMARK  status: ('A' for Active; 'I' for Inactive)
REMARK    1  A    between atoms: C_5  and  O_7
REMARK    2  A    between atoms: O_7  and  C_8
REMARK    3  A    between atoms: C_8  and  C_9
REMARK    4  A    between atoms: C_12  and  S_17
REMARK    5  A    between atoms: N_13  and  C_14
REMARK    6  A    between atoms: S_17  and  C_18
REMARK    7  A    between atoms: C_18  and  C_19
REMARK    8  A    between atoms: N_21  and  C_22
REMARK    9  A    between atoms: C_24  and  N_29
REMARK                            x       y       z     vdW  Elec       q    Type
REMARK                         _______ _______ _______ _____ _____    ______ ____
ROOT
ATOM      1  C   UNL     1       0.833  -1.390  -0.416  0.00  0.00    +0.172 A 
ATOM      2  N   UNL     1      -0.296  -0.756  -0.267  0.00  0.00    -0.130 NA
ATOM      3  N   UNL     1      -0.144   0.488  -0.548  0.00  0.00    -0.122 NA
ATOM      4  C   UNL     1       1.101   0.718  -0.894  0.00  0.00    +0.192 A 
ATOM      5  N   UNL     1       1.764  -0.474  -0.821  0.00  0.00    -0.300 N 
ENDROOT
BRANCH   5   6
ATOM      6  C   UNL     1       3.178  -0.720  -1.115  0.00  0.00    +0.091 C 
ATOM      7  C   UNL     1       4.116   0.488  -1.133  0.00  0.00    +0.027 C 
ATOM      8  C   UNL     1       3.724  -0.196  -2.445  0.00  0.00    +0.027 C 
ENDBRANCH   5   6
BRANCH   1   9
ATOM      9  C   UNL     1       1.069  -2.860  -0.184  0.00  0.00    +0.305 C 
BRANCH   9  10
ATOM     10  O   UNL     1       0.832  -3.578  -1.397  0.00  0.00    -0.483 OA
BRANCH  10  15
ATOM     11  C   UNL     1       1.561  -6.915  -0.145  0.00  0.00    +0.004 A 
ATOM     12  C   UNL     1       1.348  -7.670  -1.284  0.00  0.00    +0.002 A 
ATOM     13  C   UNL     1       0.963  -7.056  -2.462  0.00  0.00    +0.023 A 
ATOM     14  C   UNL     1       0.789  -5.685  -2.502  0.00  0.00    +0.083 A 
ATOM     15  C   UNL     1       1.002  -4.926  -1.360  0.00  0.00    +0.139 A 
ATOM     16  C   UNL     1       1.394  -5.544  -0.182  0.00  0.00    +0.047 A 
ATOM     17 CL   UNL     1       0.306  -4.914  -3.981  0.00  0.00    -0.080 Cl
ENDBRANCH  10  15
ENDBRANCH   9  10
ENDBRANCH   1   9
BRANCH   4  18
ATOM     18  S   UNL     1       1.788   2.271  -1.366  0.00  0.00    -0.077 S 
BRANCH  18  19
ATOM     19  C   UNL     1       0.322   3.321  -1.216  0.00  0.00    +0.173 C 
BRANCH  19  20
ATOM     20  C   UNL     1       0.680   4.739  -1.582  0.00  0.00    +0.228 C 
ATOM     21  O   UNL     1       1.815   5.012  -1.911  0.00  0.00    -0.275 OA
ATOM     22  N   UNL     1      -0.260   5.703  -1.543  0.00  0.00    -0.284 N 
ATOM     23  H   UNL     1      -1.143   5.506  -1.193  0.00  0.00    +0.155 HD
BRANCH  22  24
ATOM     24  C   UNL     1       0.037   6.990  -2.006  0.00  0.00    +0.054 A 
ATOM     25  C   UNL     1       1.091   7.186  -2.889  0.00  0.00    +0.057 A 
ATOM     26  C   UNL     1       1.379   8.456  -3.348  0.00  0.00    +0.128 A 
ATOM     27  C   UNL     1       0.626   9.535  -2.922  0.00  0.00    +0.034 A 
ATOM     28  C   UNL     1      -0.422   9.345  -2.040  0.00  0.00    +0.024 A 
ATOM     29  C   UNL     1      -0.719   8.076  -1.580  0.00  0.00    +0.062 A 
ATOM     30 CL   UNL     1      -2.034   7.838  -0.472  0.00  0.00    -0.082 Cl
BRANCH  26  31
ATOM     31  N   UNL     1       2.500   8.664  -4.292  0.00  0.00    +0.056 N 
ATOM     32  O   UNL     1       2.758   9.785  -4.694  0.00  0.00    -0.126 OA
ATOM     33  O   UNL     1       3.164   7.715  -4.667  0.00  0.00    -0.126 OA
ENDBRANCH  26  31
ENDBRANCH  22  24
ENDBRANCH  19  20
ENDBRANCH  18  19
ENDBRANCH   4  18
TORSDOF 9
