REMARK  Name = ZINC37631715
REMARK  0 active torsions:
REMARK  status: ('A' for Active; 'I' for Inactive)
REMARK                            x       y       z     vdW  Elec       q    Type
REMARK                         _______ _______ _______ _____ _____    ______ ____
ROOT
ATOM      1  C   UNL     1      -0.019   1.524   0.010  0.00  0.00    +0.008 C 
ATOM      2  C   UNL     1       1.402   2.112   0.000  0.00  0.00    +0.005 C 
ATOM      3  C   UNL     1       2.095   1.615  -1.248  0.00  0.00    +0.010 C 
ATOM      4  C   UNL     1       3.470   2.201  -1.567  0.00  0.00    +0.059 C 
ATOM      5  C   UNL     1       4.526   1.294  -0.894  0.00  0.00    +0.011 C 
ATOM      6  C   UNL     1       4.634  -0.018  -1.686  0.00  0.00    +0.005 C 
ATOM      7  C   UNL     1       3.217  -0.365  -2.223  0.00  0.00    +0.007 C 
ATOM      8  C   UNL     1       2.283   0.096  -1.134  0.00  0.00    +0.062 C 
ATOM      9  C   UNL     1       0.919  -0.519  -1.099  0.00  0.00    +0.137 C 
ATOM     10  O   UNL     1       0.571  -1.363  -1.889  0.00  0.00    -0.297 OA
ATOM     11  C   UNL     1       0.002  -0.004   0.002  0.00  0.00    +0.074 C 
ATOM     12  C   UNL     1       3.036   0.543  -3.465  0.00  0.00    +0.078 C 
ATOM     13  C   UNL     1       3.616   1.912  -3.076  0.00  0.00    +0.137 C 
ATOM     14  O   UNL     1       4.139   2.671  -3.855  0.00  0.00    -0.297 OA
ENDROOT
TORSDOF 0
