REMARK  Name = ZINC25511734
REMARK  9 active torsions:
REMARK  status: ('A' for Active; 'I' for Inactive)
REMARK    1  A    between atoms: C_1  and  C_2
REMARK    2  A    between atoms: C_5  and  C_8
REMARK    3  A    between atoms: N_10  and  N_11
REMARK    4  A    between atoms: C_12  and  C_14
REMARK    5  A    between atoms: C_14  and  S_15
REMARK    6  A    between atoms: S_15  and  C_16
REMARK    7  A    between atoms: C_19  and  C_27
REMARK    8  A    between atoms: N_20  and  C_21
REMARK    9  A    between atoms: C_21  and  C_22
REMARK                            x       y       z     vdW  Elec       q    Type
REMARK                         _______ _______ _______ _____ _____    ______ ____
ROOT
ATOM      1  C   UNL     1       7.506   1.290  -0.123  0.00  0.00    +0.193 A 
ATOM      2  N   UNL     1       7.423  -0.018  -0.222  0.00  0.00    -0.122 NA
ATOM      3  N   UNL     1       8.599  -0.537  -0.206  0.00  0.00    -0.128 NA
ATOM      4  C   UNL     1       9.504   0.407  -0.087  0.00  0.00    +0.165 A 
ATOM      5  N   UNL     1       8.831   1.606  -0.030  0.00  0.00    -0.295 N 
ENDROOT
BRANCH   4   6
ATOM      6  C   UNL     1      10.968   0.218  -0.025  0.00  0.00    +0.019 A 
ATOM      7  C   UNL     1      11.537  -0.989  -0.435  0.00  0.00    +0.013 A 
ATOM      8  C   UNL     1      12.905  -1.158  -0.381  0.00  0.00    +0.021 A 
ATOM      9  C   UNL     1      13.713  -0.137   0.090  0.00  0.00    +0.041 A 
ATOM     10  C   UNL     1      13.154   1.061   0.504  0.00  0.00    +0.021 A 
ATOM     11  C   UNL     1      11.788   1.243   0.449  0.00  0.00    +0.013 A 
ATOM     12 CL   UNL     1      15.433  -0.360   0.163  0.00  0.00    -0.084 Cl
ENDBRANCH   4   6
BRANCH   1  13
ATOM     13  S   UNL     1       6.157   2.424  -0.106  0.00  0.00    -0.077 S 
BRANCH  13  14
ATOM     14  C   UNL     1       4.773   1.268  -0.267  0.00  0.00    +0.174 C 
BRANCH  14  16
ATOM     15  N   UNL     1       2.305   1.379  -0.386  0.00  0.00    -0.233 N 
ATOM     16  C   UNL     1       3.476   2.036  -0.275  0.00  0.00    +0.239 C 
ATOM     17  O   UNL     1       3.486   3.245  -0.182  0.00  0.00    -0.273 OA
ATOM     18  H   UNL     1       2.295   0.282  -0.471  0.00  0.00    +0.173 HD
BRANCH  15  21
ATOM     19  C   UNL     1      -0.072   1.435  -0.505  0.00  0.00    +0.260 C 
ATOM     20  O   UNL     1      -0.083   0.223  -0.599  0.00  0.00    -0.269 OA
ATOM     21  N   UNL     1       1.099   2.092  -0.394  0.00  0.00    -0.230 N 
ATOM     22  H   UNL     1       1.109   3.189  -0.309  0.00  0.00    +0.173 HD
BRANCH  19  27
ATOM     23  C   UNL     1      -5.023   4.367  -0.560  0.00  0.00    +0.044 C 
ATOM     24  C   UNL     1      -3.727   3.599  -0.545  0.00  0.00    -0.050 A 
ATOM     25  C   UNL     1      -3.742   2.220  -0.652  0.00  0.00    +0.004 A 
ATOM     26  C   UNL     1      -2.559   1.511  -0.640  0.00  0.00    +0.013 A 
ATOM     27  C   UNL     1      -1.344   2.188  -0.519  0.00  0.00    +0.038 A 
ATOM     28  C   UNL     1      -1.336   3.579  -0.406  0.00  0.00    +0.013 A 
ATOM     29  C   UNL     1      -2.526   4.277  -0.425  0.00  0.00    +0.004 A 
ENDBRANCH  19  27
ENDBRANCH  15  21
ENDBRANCH  14  16
ENDBRANCH  13  14
ENDBRANCH   1  13
BRANCH   5  30
ATOM     30  C   UNL     1       9.415   2.943   0.102  0.00  0.00    +0.200 C 
BRANCH  30  31
ATOM     31  C   UNL     1       9.390   3.361   1.550  0.00  0.00    +0.125 A 
ATOM     32  C   UNL     1      10.411   3.249   2.419  0.00  0.00    +0.046 A 
ATOM     33  C   UNL     1       9.954   3.762   3.655  0.00  0.00    +0.041 A 
ATOM     34  C   UNL     1       8.679   4.148   3.470  0.00  0.00    +0.195 A 
ATOM     35  O   UNL     1       8.343   3.904   2.193  0.00  0.00    -0.466 OA
ENDBRANCH  30  31
ENDBRANCH   5  30
TORSDOF 8
