REMARK  Name = ZINC59819215
REMARK  9 active torsions:
REMARK  status: ('A' for Active; 'I' for Inactive)
REMARK    1  A    between atoms: C_1  and  C_2
REMARK    2  A    between atoms: C_2  and  N_3
REMARK    3  A    between atoms: C_4  and  C_6
REMARK    4  A    between atoms: C_6  and  C_7
REMARK    5  A    between atoms: C_7  and  S_8
REMARK    6  A    between atoms: S_8  and  C_9
REMARK    7  A    between atoms: N_14  and  N_15
REMARK    8  A    between atoms: C_16  and  C_17
REMARK    9  A    between atoms: C_22  and  O_23
REMARK                            x       y       z     vdW  Elec       q    Type
REMARK                         _______ _______ _______ _____ _____    ______ ____
ROOT
ATOM      1  C   UNL     1       2.343  -6.155  -4.029  0.00  0.00    +0.210 A 
ATOM      2  N   UNL     1       2.856  -7.021  -4.910  0.00  0.00    -0.186 NA
ATOM      3  C   UNL     1       2.636  -8.252  -4.500  0.00  0.00    +0.232 A 
ATOM      4  N   UNL     1       1.967  -8.189  -3.330  0.00  0.00    -0.245 N 
ATOM      5  N   UNL     1       1.794  -6.825  -3.044  0.00  0.00    -0.144 NA
ATOM      6  N   UNL     1       3.022  -9.408  -5.155  0.00  0.00    -0.205 N 
ATOM      7  H   UNL     1       2.813 -10.274  -4.772  0.00  0.00    +0.177 HD
ATOM      8  H   UNL     1       1.667  -8.938  -2.791  0.00  0.00    +0.192 HD
ENDROOT
BRANCH   6   9
ATOM      9  N   UNL     1       3.714  -9.327  -6.370  0.00  0.00    -0.187 NA
ATOM     10  C   UNL     1       4.077 -10.412  -6.984  0.00  0.00    +0.142 C 
BRANCH  10  11
ATOM     11  C   UNL     1       4.805 -10.327  -8.262  0.00  0.00    +0.038 A 
ATOM     12  C   UNL     1       5.192 -11.492  -8.929  0.00  0.00    +0.028 A 
ATOM     13  C   UNL     1       5.874 -11.405 -10.126  0.00  0.00    +0.020 A 
ATOM     14  C   UNL     1       6.177 -10.168 -10.668  0.00  0.00    +0.034 A 
ATOM     15  C   UNL     1       5.800  -9.007 -10.017  0.00  0.00    +0.061 A 
ATOM     16  C   UNL     1       5.109  -9.077  -8.818  0.00  0.00    +0.139 A 
ATOM     17 BR   UNL     1       6.221  -7.324 -10.768  0.00  0.00    -0.046 Br
ATOM     18 BR   UNL     1       6.396 -12.983 -11.028  0.00  0.00    -0.050 Br
BRANCH  16  19
ATOM     19  O   UNL     1       4.732  -7.937  -8.181  0.00  0.00    -0.505 OA
ATOM     20  H   UNL     1       5.390  -7.599  -7.558  0.00  0.00    +0.292 HD
ENDBRANCH  16  19
ENDBRANCH  10  11
ENDBRANCH   6   9
BRANCH   1  21
ATOM     21  S   UNL     1       2.402  -4.399  -4.166  0.00  0.00    -0.084 S 
BRANCH  21  22
ATOM     22  C   UNL     1       1.553  -3.814  -2.673  0.00  0.00    +0.086 C 
BRANCH  22  23
ATOM     23  C   UNL     1       1.532  -2.285  -2.665  0.00  0.00    +0.107 C 
BRANCH  23  25
ATOM     24  N   UNL     1       0.688  -0.476  -1.203  0.00  0.00    -0.316 N 
ATOM     25  C   UNL     1       0.827  -1.799  -1.425  0.00  0.00    +0.214 C 
ATOM     26  O   UNL     1       0.384  -2.597  -0.627  0.00  0.00    -0.276 OA
ATOM     27  H   UNL     1       1.042   0.162  -1.842  0.00  0.00    +0.149 HD
BRANCH  24  29
ATOM     28  C   UNL     1      -0.019   1.526   0.010  0.00  0.00    +0.024 C 
ATOM     29  C   UNL     1       0.002  -0.004   0.002  0.00  0.00    +0.101 C 
ENDBRANCH  24  29
ENDBRANCH  23  25
ENDBRANCH  22  23
ENDBRANCH  21  22
ENDBRANCH   1  21
TORSDOF 8
