REMARK  Name = ZINC30983397
REMARK  8 active torsions:
REMARK  status: ('A' for Active; 'I' for Inactive)
REMARK    1  A    between atoms: C_1  and  C_2
REMARK    2  A    between atoms: C_6  and  C_8
REMARK    3  A    between atoms: C_8  and  C_10
REMARK    4  A    between atoms: C_8  and  N_16
REMARK    5  A    between atoms: C_17  and  C_19
REMARK    6  A    between atoms: N_22  and  C_25
REMARK    7  A    between atoms: C_25  and  C_26
REMARK    8  A    between atoms: C_28  and  C_31
REMARK                            x       y       z     vdW  Elec       q    Type
REMARK                         _______ _______ _______ _____ _____    ______ ____
ROOT
ATOM      1  C   UNL     1      -2.125   7.520   2.421  0.00  0.00    +0.072 C 
ATOM      2  C   UNL     1      -3.457   7.565   1.666  0.00  0.00    -0.006 C 
ATOM      3  C   UNL     1      -4.544   8.113   2.593  0.00  0.00    -0.077 C 
ATOM      4  N   UNL     1      -4.171   9.460   3.045  0.00  0.00    +0.386 N 
ATOM      5  C   UNL     1      -2.919   9.434   3.812  0.00  0.00    -0.077 C 
ATOM      6  C   UNL     1      -1.783   8.925   2.922  0.00  0.00    -0.006 C 
ATOM      7  H   UNL     1      -4.003  10.079   2.151  0.00  0.00    -0.081 HD
ENDROOT
BRANCH   1   9
ATOM      8  N   UNL     1      -1.127   5.816   0.930  0.00  0.00    -0.304 N 
ATOM      9  C   UNL     1      -1.038   7.037   1.495  0.00  0.00    +0.217 C 
ATOM     10  O   UNL     1      -0.084   7.746   1.259  0.00  0.00    -0.275 OA
ATOM     11  H   UNL     1      -1.993   5.173   1.144  0.00  0.00    +0.150 HD
BRANCH   8  12
ATOM     12  C   UNL     1      -0.070   5.347   0.030  0.00  0.00    +0.134 C 
BRANCH  12  18
ATOM     13  C   UNL     1       2.490   1.048  -0.016  0.00  0.00    +0.044 C 
ATOM     14  C   UNL     1       1.175   1.783   0.000  0.00  0.00    -0.050 A 
ATOM     15  C   UNL     1      -0.013   1.076   0.008  0.00  0.00    +0.003 A 
ATOM     16  C   UNL     1      -1.219   1.750   0.017  0.00  0.00    +0.001 A 
ATOM     17  C   UNL     1      -1.238   3.133   0.029  0.00  0.00    +0.006 A 
ATOM     18  C   UNL     1      -0.050   3.840   0.022  0.00  0.00    -0.023 A 
ATOM     19  C   UNL     1       1.157   3.165   0.008  0.00  0.00    +0.009 A 
ENDBRANCH  12  18
BRANCH  12  20
ATOM     20  C   UNL     1      -0.337   5.853  -1.364  0.00  0.00    -0.023 A 
ATOM     21  C   UNL     1      -1.627   5.867  -1.860  0.00  0.00    +0.006 A 
ATOM     22  C   UNL     1      -1.872   6.335  -3.137  0.00  0.00    +0.000 A 
ATOM     23  C   UNL     1      -0.825   6.781  -3.922  0.00  0.00    +0.000 A 
ATOM     24  C   UNL     1       0.466   6.762  -3.429  0.00  0.00    +0.000 A 
ATOM     25  C   UNL     1       0.710   6.298  -2.150  0.00  0.00    +0.006 A 
ENDBRANCH  12  20
ENDBRANCH   8  12
ENDBRANCH   1   9
BRANCH   4  26
ATOM     26  C   UNL     1      -5.254  10.073   3.825  0.00  0.00    +0.022 C 
BRANCH  26  27
ATOM     27  C   UNL     1      -6.446  10.306   2.932  0.00  0.00    +0.211 A 
ATOM     28  N   UNL     1      -7.429   9.469   2.713  0.00  0.00    -0.193 NA
ATOM     29  C   UNL     1      -8.261  10.102   1.855  0.00  0.00    +0.202 A 
ATOM     30  N   UNL     1      -7.739  11.275   1.606  0.00  0.00    -0.056 NA
ATOM     31  O   UNL     1      -6.701  11.408   2.220  0.00  0.00    -0.340 OA
BRANCH  29  32
ATOM     32  C   UNL     1      -9.528   9.566   1.299  0.00  0.00    +0.023 A 
ATOM     33  C   UNL     1      -9.959   8.288   1.650  0.00  0.00    +0.014 A 
ATOM     34  C   UNL     1     -11.140   7.795   1.135  0.00  0.00    +0.039 A 
ATOM     35  C   UNL     1     -11.892   8.565   0.261  0.00  0.00    +0.123 A 
ATOM     36  C   UNL     1     -11.463   9.833  -0.095  0.00  0.00    +0.039 A 
ATOM     37  C   UNL     1     -10.286  10.336   0.420  0.00  0.00    +0.014 A 
ATOM     38  F   UNL     1     -13.045   8.076  -0.245  0.00  0.00    -0.205 F 
ENDBRANCH  29  32
ENDBRANCH  26  27
ENDBRANCH   4  26
TORSDOF 7
