REMARK  Name = ZINC09331067
REMARK  9 active torsions:
REMARK  status: ('A' for Active; 'I' for Inactive)
REMARK    1  A    between atoms: C_1  and  C_2
REMARK    2  A    between atoms: C_2  and  C_4
REMARK    3  A    between atoms: C_2  and  S_16
REMARK    4  A    between atoms: N_6  and  C_7
REMARK    5  A    between atoms: C_10  and  N_13
REMARK    6  A    between atoms: S_16  and  C_17
REMARK    7  A    between atoms: C_20  and  C_29
REMARK    8  A    between atoms: N_21  and  C_22
REMARK    9  A    between atoms: C_22  and  C_23
REMARK                            x       y       z     vdW  Elec       q    Type
REMARK                         _______ _______ _______ _____ _____    ______ ____
ROOT
ATOM      1  C   UNL     1      -3.215   1.638   2.419  0.00  0.00    +0.193 A 
ATOM      2  N   UNL     1      -3.493   0.787   3.381  0.00  0.00    -0.122 NA
ATOM      3  N   UNL     1      -2.721  -0.237   3.302  0.00  0.00    -0.128 NA
ATOM      4  C   UNL     1      -1.906  -0.106   2.281  0.00  0.00    +0.168 A 
ATOM      5  N   UNL     1      -2.193   1.102   1.688  0.00  0.00    -0.298 N 
ENDROOT
BRANCH   4   6
ATOM      6  C   UNL     1      -0.872  -1.071   1.853  0.00  0.00    +0.054 A 
ATOM      7  C   UNL     1      -0.771  -1.441   0.511  0.00  0.00    +0.014 A 
ATOM      8  C   UNL     1       0.196  -2.342   0.117  0.00  0.00    +0.001 A 
ATOM      9  C   UNL     1       1.067  -2.880   1.049  0.00  0.00    +0.003 A 
ATOM     10  C   UNL     1       0.975  -2.519   2.380  0.00  0.00    +0.039 A 
ATOM     11  C   UNL     1       0.014  -1.613   2.788  0.00  0.00    +0.134 A 
ATOM     12  F   UNL     1      -0.073  -1.257   4.089  0.00  0.00    -0.205 F 
ENDBRANCH   4   6
BRANCH   1  13
ATOM     13  S   UNL     1      -4.011   3.182   2.127  0.00  0.00    -0.073 S 
BRANCH  13  15
ATOM     14  C   UNL     1      -6.215   2.036   3.265  0.00  0.00    +0.029 C 
ATOM     15  C   UNL     1      -5.216   3.175   3.478  0.00  0.00    +0.137 C 
BRANCH  15  16
ATOM     16  C   UNL     1      -5.951   4.490   3.502  0.00  0.00    +0.230 C 
ATOM     17  O   UNL     1      -6.046   5.151   2.490  0.00  0.00    -0.274 OA
ATOM     18  N   UNL     1      -6.503   4.933   4.649  0.00  0.00    -0.285 N 
ATOM     19  H   UNL     1      -6.368   4.441   5.474  0.00  0.00    +0.155 HD
BRANCH  18  20
ATOM     20  C   UNL     1      -7.272   6.102   4.651  0.00  0.00    +0.034 A 
ATOM     21  C   UNL     1      -7.272   6.934   5.763  0.00  0.00    +0.025 A 
ATOM     22  C   UNL     1      -8.027   8.090   5.758  0.00  0.00    +0.034 A 
ATOM     23  C   UNL     1      -8.793   8.414   4.653  0.00  0.00    +0.126 A 
ATOM     24  C   UNL     1      -8.799   7.584   3.546  0.00  0.00    +0.034 A 
ATOM     25  C   UNL     1      -8.041   6.430   3.542  0.00  0.00    +0.025 A 
BRANCH  23  26
ATOM     26  N   UNL     1      -9.606   9.650   4.654  0.00  0.00    +0.056 N 
ATOM     27  O   UNL     1     -10.280   9.937   3.680  0.00  0.00    -0.126 OA
ATOM     28  O   UNL     1      -9.601  10.382   5.628  0.00  0.00    -0.126 OA
ENDBRANCH  23  26
ENDBRANCH  18  20
ENDBRANCH  15  16
ENDBRANCH  13  15
ENDBRANCH   1  13
BRANCH   5  29
ATOM     29  C   UNL     1      -1.543   1.688   0.513  0.00  0.00    +0.161 C 
BRANCH  29  30
ATOM     30  C   UNL     1      -0.333   2.473   0.948  0.00  0.00    -0.028 A 
ATOM     31  C   UNL     1       0.882   1.834   1.114  0.00  0.00    +0.005 A 
ATOM     32  C   UNL     1       1.994   2.555   1.507  0.00  0.00    +0.000 A 
ATOM     33  C   UNL     1       1.890   3.914   1.739  0.00  0.00    +0.000 A 
ATOM     34  C   UNL     1       0.674   4.551   1.578  0.00  0.00    +0.000 A 
ATOM     35  C   UNL     1      -0.438   3.830   1.185  0.00  0.00    +0.005 A 
ENDBRANCH  29  30
ENDBRANCH   5  29
TORSDOF 8
