REMARK  Name = ZINC09509883
REMARK  5 active torsions:
REMARK  status: ('A' for Active; 'I' for Inactive)
REMARK    1  A    between atoms: C_4  and  C_7
REMARK    2  A    between atoms: C_9  and  C_18
REMARK    3  A    between atoms: C_18  and  O_20
REMARK    4  A    between atoms: O_20  and  C_21
REMARK    5  A    between atoms: C_21  and  C_22
REMARK                            x       y       z     vdW  Elec       q    Type
REMARK                         _______ _______ _______ _____ _____    ______ ____
ROOT
ATOM      1  C   UNL     1       1.163  -2.112  -0.119  0.00  0.00    +0.072 A 
ATOM      2  C   UNL     1       1.192  -0.709  -0.117  0.00  0.00    +0.044 A 
ATOM      3  C   UNL     1       0.002  -0.004   0.002  0.00  0.00    +0.070 A 
ATOM      4  C   UNL     1      -1.231  -0.783   0.125  0.00  0.00    +0.015 A 
ATOM      5  C   UNL     1      -2.478  -0.162   0.255  0.00  0.00    +0.026 A 
ATOM      6  C   UNL     1      -3.602  -0.926   0.367  0.00  0.00    +0.019 A 
ATOM      7  C   UNL     1      -3.524  -2.318   0.354  0.00  0.00    +0.017 A 
ATOM      8  C   UNL     1      -2.328  -2.953   0.219  0.00  0.00    +0.029 A 
ATOM      9  C   UNL     1      -1.146  -2.198   0.106  0.00  0.00    +0.073 A 
ATOM     10  N   UNL     1       0.042  -2.793  -0.012  0.00  0.00    -0.247 NA
ATOM     11 BR   UNL     1      -5.288  -0.087   0.542  0.00  0.00    -0.050 Br
ENDROOT
BRANCH   1  15
ATOM     12  C   UNL     1       4.827  -4.238  -0.484  0.00  0.00    +0.000 A 
ATOM     13  C   UNL     1       3.636  -4.932  -0.370  0.00  0.00    +0.001 A 
ATOM     14  C   UNL     1       2.444  -4.248  -0.252  0.00  0.00    +0.010 A 
ATOM     15  C   UNL     1       2.441  -2.854  -0.246  0.00  0.00    +0.000 A 
ATOM     16  C   UNL     1       3.644  -2.159  -0.366  0.00  0.00    +0.010 A 
ATOM     17  C   UNL     1       4.830  -2.855  -0.479  0.00  0.00    +0.001 A 
ENDBRANCH   1  15
BRANCH   3  18
ATOM     18  C   UNL     1      -0.018   1.474   0.010  0.00  0.00    +0.340 C 
ATOM     19  O   UNL     1      -1.078   2.067   0.011  0.00  0.00    -0.245 OA
BRANCH  18  20
ATOM     20  O   UNL     1       1.139   2.163   0.011  0.00  0.00    -0.452 OA
BRANCH  20  21
ATOM     21  C   UNL     1       1.044   3.612   0.019  0.00  0.00    +0.328 C 
BRANCH  21  22
ATOM     22  C   UNL     1       2.429   4.207   0.019  0.00  0.00    +0.258 C 
ATOM     23  O   UNL     1       3.400   3.481   0.012  0.00  0.00    -0.272 OA
ATOM     24  N   UNL     1       2.587   5.545   0.026  0.00  0.00    -0.238 N 
ATOM     25  C   UNL     1       3.825   6.077   0.025  0.00  0.00    +0.303 C 
ATOM     26  O   UNL     1       4.799   5.350   0.019  0.00  0.00    -0.253 OA
ATOM     27  N   UNL     1       3.984   7.415   0.032  0.00  0.00    -0.313 N 
ATOM     28  H   UNL     1       1.810   6.125   0.031  0.00  0.00    +0.159 HD
ATOM     29  H   UNL     1       3.207   7.996   0.037  0.00  0.00    +0.146 HD
ATOM     30  H   UNL     1       4.875   7.798   0.032  0.00  0.00    +0.146 HD
ENDBRANCH  21  22
ENDBRANCH  20  21
ENDBRANCH  18  20
ENDBRANCH   3  18
TORSDOF 5
