REMARK  Name = ZINC08846306
REMARK  12 active torsions:
REMARK  status: ('A' for Active; 'I' for Inactive)
REMARK    1  A    between atoms: C_1  and  C_2
REMARK    2  A    between atoms: C_2  and  O_3
REMARK    3  A    between atoms: O_3  and  C_4
REMARK    4  A    between atoms: C_9  and  C_10
REMARK    5  A    between atoms: C_10  and  C_11
REMARK    6  A    between atoms: C_10  and  C_24
REMARK    7  A    between atoms: C_12  and  C_23
REMARK    8  A    between atoms: N_14  and  C_17
REMARK    9  A    between atoms: C_15  and  O_16
REMARK   10  A    between atoms: C_25  and  C_36
REMARK   11  A    between atoms: N_27  and  C_30
REMARK   12  A    between atoms: C_28  and  O_29
REMARK                            x       y       z     vdW  Elec       q    Type
REMARK                         _______ _______ _______ _____ _____    ______ ____
ROOT
ATOM      1  C   UNL     1      -0.137   1.152   0.045  0.00  0.00    +0.096 C 
ENDROOT
BRANCH   1   7
ATOM      2  C   UNL     1      -1.301   0.397   2.134  0.00  0.00    +0.125 A 
ATOM      3  C   UNL     1      -1.996   0.666   3.304  0.00  0.00    +0.046 A 
ATOM      4  C   UNL     1      -2.291   1.971   3.646  0.00  0.00    +0.004 A 
ATOM      5  C   UNL     1      -1.890   3.009   2.825  0.00  0.00    +0.001 A 
ATOM      6  C   UNL     1      -1.194   2.744   1.661  0.00  0.00    +0.008 A 
ATOM      7  C   UNL     1      -0.896   1.440   1.315  0.00  0.00    +0.006 A 
BRANCH   2   8
ATOM      8  O   UNL     1      -1.014  -0.887   1.793  0.00  0.00    -0.492 OA
BRANCH   8  10
ATOM      9  C   UNL     1      -1.049  -3.279   2.137  0.00  0.00    +0.048 C 
ATOM     10  C   UNL     1      -1.462  -1.911   2.683  0.00  0.00    +0.225 C 
ENDBRANCH   8  10
ENDBRANCH   2   8
ENDBRANCH   1   7
BRANCH   1  11
ATOM     11  C   UNL     1       1.131   1.966   0.022  0.00  0.00    +0.049 A 
ATOM     12  C   UNL     1       1.868   2.310  -1.116  0.00  0.00    +0.068 A 
ATOM     13  N   UNL     1       2.900   3.023  -0.741  0.00  0.00    -0.168 NA
ATOM     14  N   UNL     1       2.865   3.152   0.653  0.00  0.00    -0.200 N 
ATOM     15  C   UNL     1       1.764   2.492   1.104  0.00  0.00    +0.220 A 
ATOM     16  C   UNL     1       1.529   1.927  -2.533  0.00  0.00    +0.068 C 
BRANCH  14  17
ATOM     17  C   UNL     1       3.797   3.839   1.443  0.00  0.00    +0.069 A 
ATOM     18  C   UNL     1       3.379   4.522   2.577  0.00  0.00    +0.028 A 
ATOM     19  C   UNL     1       4.301   5.194   3.355  0.00  0.00    +0.002 A 
ATOM     20  C   UNL     1       5.637   5.196   3.000  0.00  0.00    +0.000 A 
ATOM     21  C   UNL     1       6.056   4.521   1.869  0.00  0.00    +0.002 A 
ATOM     22  C   UNL     1       5.139   3.842   1.089  0.00  0.00    +0.028 A 
ENDBRANCH  14  17
BRANCH  15  23
ATOM     23  O   UNL     1       1.371   2.379   2.398  0.00  0.00    -0.492 OA
ATOM     24  H   UNL     1       1.700   1.585   2.842  0.00  0.00    +0.294 HD
ENDBRANCH  15  23
ENDBRANCH   1  11
BRANCH   1  25
ATOM     25  C   UNL     1      -0.989   1.515  -1.143  0.00  0.00    +0.049 A 
ATOM     26  C   UNL     1      -1.543   0.619  -2.063  0.00  0.00    +0.068 A 
ATOM     27  N   UNL     1      -2.220   1.303  -2.950  0.00  0.00    -0.168 NA
ATOM     28  N   UNL     1      -2.115   2.663  -2.633  0.00  0.00    -0.200 N 
ATOM     29  C   UNL     1      -1.350   2.772  -1.514  0.00  0.00    +0.220 A 
ATOM     30  C   UNL     1      -1.389  -0.879  -2.036  0.00  0.00    +0.068 C 
BRANCH  28  31
ATOM     31  C   UNL     1      -2.695   3.724  -3.343  0.00  0.00    +0.069 A 
ATOM     32  C   UNL     1      -3.166   4.840  -2.665  0.00  0.00    +0.028 A 
ATOM     33  C   UNL     1      -3.732   5.886  -3.368  0.00  0.00    +0.002 A 
ATOM     34  C   UNL     1      -3.841   5.816  -4.745  0.00  0.00    +0.000 A 
ATOM     35  C   UNL     1      -3.378   4.703  -5.423  0.00  0.00    +0.002 A 
ATOM     36  C   UNL     1      -2.806   3.657  -4.726  0.00  0.00    +0.028 A 
ENDBRANCH  28  31
BRANCH  29  37
ATOM     37  O   UNL     1      -1.010   3.925  -0.883  0.00  0.00    -0.492 OA
ATOM     38  H   UNL     1      -0.245   4.373  -1.269  0.00  0.00    +0.294 HD
ENDBRANCH  29  37
ENDBRANCH   1  25
TORSDOF 9
