REMARK  Name = ZINC15065167
REMARK  11 active torsions:
REMARK  status: ('A' for Active; 'I' for Inactive)
REMARK    1  A    between atoms: C_1  and  C_2
REMARK    2  A    between atoms: C_4  and  N_28
REMARK    3  A    between atoms: N_5  and  C_7
REMARK    4  A    between atoms: C_7  and  C_8
REMARK    5  A    between atoms: N_10  and  C_11
REMARK    6  A    between atoms: C_17  and  C_18
REMARK    7  A    between atoms: C_17  and  N_61
REMARK    8  A    between atoms: C_21  and  C_24
REMARK    9  A    between atoms: C_24  and  C_25
REMARK   10  A    between atoms: C_25  and  C_26
REMARK   11  A    between atoms: C_25  and  C_27
REMARK                            x       y       z     vdW  Elec       q    Type
REMARK                         _______ _______ _______ _____ _____    ______ ____
ROOT
ATOM      1  C   UNL     1      -0.927   1.718   3.671  0.00  0.00    +0.056 C 
ATOM      2  C   UNL     1      -2.063   0.754   4.024  0.00  0.00    +0.018 C 
ATOM      3  C   UNL     1      -2.736   1.222   5.318  0.00  0.00    -0.017 C 
ATOM      4  C   UNL     1      -1.690   1.295   6.433  0.00  0.00    -0.078 C 
ATOM      5  C   UNL     1       0.066   1.777   4.834  0.00  0.00    -0.056 C 
ATOM      6  N   UNL     1      -0.638   2.258   6.042  0.00  0.00    +0.384 N 
ATOM      7  H   UNL     1      -1.075   3.163   5.835  0.00  0.00    -0.081 HD
ENDROOT
BRANCH   1  10
ATOM      8  C   UNL     1      -0.718   1.572   1.248  0.00  0.00    +0.235 C 
ATOM      9  O   UNL     1      -1.714   2.256   1.150  0.00  0.00    -0.274 OA
ATOM     10  N   UNL     1      -0.242   1.246   2.466  0.00  0.00    -0.313 N 
ATOM     11  H   UNL     1       0.555   0.699   2.544  0.00  0.00    +0.149 HD
BRANCH   8  12
ATOM     12  C   UNL     1      -0.013   1.086   0.008  0.00  0.00    +0.241 C 
BRANCH  12  17
ATOM     13  C   UNL     1      -3.233   1.313  -3.836  0.00  0.00    +0.067 C 
ATOM     14  C   UNL     1      -2.139   1.651  -2.856  0.00  0.00    +0.062 A 
ATOM     15  C   UNL     1      -1.356   2.808  -2.870  0.00  0.00    +0.067 A 
ATOM     16  C   UNL     1      -0.487   2.736  -1.825  0.00  0.00    +0.115 A 
ATOM     17  N   UNL     1      -0.721   1.571  -1.179  0.00  0.00    -0.242 N 
ATOM     18  N   UNL     1      -1.757   0.908  -1.849  0.00  0.00    -0.174 NA
BRANCH  16  19
ATOM     19  N   UNL     1       0.469   3.688  -1.482  0.00  0.00    -0.343 N 
ATOM     20  H   UNL     1       1.044   3.544  -0.715  0.00  0.00    +0.144 HD
ATOM     21  H   UNL     1       0.560   4.496  -2.012  0.00  0.00    +0.144 HD
ENDBRANCH  16  19
ENDBRANCH  12  17
ENDBRANCH   8  12
ENDBRANCH   1  10
BRANCH   6  22
ATOM     22  C   UNL     1       0.324   2.432   7.150  0.00  0.00    -0.043 C 
BRANCH  22  23
ATOM     23  C   UNL     1      -0.436   2.655   8.432  0.00  0.00    -0.064 A 
ATOM     24  C   UNL     1      -0.786   3.937   8.814  0.00  0.00    +0.002 A 
ATOM     25  C   UNL     1      -1.487   4.142   9.988  0.00  0.00    +0.004 A 
ATOM     26  C   UNL     1      -1.830   3.065  10.785  0.00  0.00    -0.047 A 
ATOM     27  C   UNL     1      -1.475   1.784  10.406  0.00  0.00    +0.004 A 
ATOM     28  C   UNL     1      -0.778   1.579   9.230  0.00  0.00    +0.002 A 
BRANCH  26  29
ATOM     29  C   UNL     1      -2.590   3.289  12.067  0.00  0.00    +0.038 C 
BRANCH  29  30
ATOM     30  C   UNL     1      -1.602   3.497  13.216  0.00  0.00    -0.013 C 
ATOM     31  C   UNL     1      -2.371   3.847  14.492  0.00  0.00    +0.007 C 
ATOM     32  C   UNL     1      -0.801   2.213  13.440  0.00  0.00    +0.007 C 
ENDBRANCH  29  30
ENDBRANCH  26  29
ENDBRANCH  22  23
ENDBRANCH   6  22
TORSDOF 8
