REMARK  Name = ZINC45557147
REMARK  7 active torsions:
REMARK  status: ('A' for Active; 'I' for Inactive)
REMARK    1  A    between atoms: C_1  and  C_2
REMARK    2  A    between atoms: C_2  and  C_4
REMARK    3  A    between atoms: C_2  and  N_15
REMARK    4  A    between atoms: N_6  and  C_7
REMARK    5  A    between atoms: C_8  and  C_12
REMARK    6  A    between atoms: N_18  and  C_21
REMARK    7  A    between atoms: C_24  and  N_27
REMARK                            x       y       z     vdW  Elec       q    Type
REMARK                         _______ _______ _______ _____ _____    ______ ____
ROOT
ATOM      1  C   UNL     1      -0.673   1.395   0.091  0.00  0.00    -0.004 C 
ATOM      2  C   UNL     1      -0.079  -0.013   0.016  0.00  0.00    +0.017 C 
ENDROOT
BRANCH   2   3
ATOM      3  N   UNL     1      -1.157  -0.989  -0.193  0.00  0.00    +0.389 N 
ATOM      4  C   UNL     1      -0.590  -2.343  -0.222  0.00  0.00    -0.059 C 
ATOM      5  C   UNL     1      -1.723  -3.369  -0.324  0.00  0.00    +0.086 C 
ATOM      6  N   UNL     1      -2.552  -3.033  -1.492  0.00  0.00    -0.333 N 
ATOM      7  C   UNL     1      -3.030  -1.648  -1.627  0.00  0.00    +0.086 C 
ATOM      8  C   UNL     1      -1.834  -0.703  -1.464  0.00  0.00    -0.059 C 
ATOM      9  H   UNL     1      -1.821  -0.921   0.564  0.00  0.00    -0.081 HD
BRANCH   6  10
ATOM     10  C   UNL     1      -2.877  -4.001  -2.445  0.00  0.00    +0.030 A 
ATOM     11  C   UNL     1      -2.523  -5.328  -2.237  0.00  0.00    +0.025 A 
ATOM     12  C   UNL     1      -2.846  -6.283  -3.181  0.00  0.00    +0.034 A 
ATOM     13  C   UNL     1      -3.521  -5.919  -4.332  0.00  0.00    +0.126 A 
ATOM     14  C   UNL     1      -3.876  -4.599  -4.541  0.00  0.00    +0.034 A 
ATOM     15  C   UNL     1      -3.560  -3.640  -3.599  0.00  0.00    +0.025 A 
BRANCH  13  16
ATOM     16  N   UNL     1      -3.866  -6.945  -5.341  0.00  0.00    +0.056 N 
ATOM     17  O   UNL     1      -3.556  -8.100  -5.160  0.00  0.00    -0.126 OA
ATOM     18  O   UNL     1      -4.456  -6.629  -6.348  0.00  0.00    -0.126 OA
ENDBRANCH  13  16
ENDBRANCH   6  10
ENDBRANCH   2   3
BRANCH   2  19
ATOM     19  C   UNL     1       0.639  -0.325   1.303  0.00  0.00    +0.204 C 
ATOM     20  O   UNL     1       0.052  -0.884   2.205  0.00  0.00    -0.277 OA
ATOM     21  N   UNL     1       1.934   0.018   1.453  0.00  0.00    -0.281 N 
ATOM     22  H   UNL     1       2.404   0.466   0.732  0.00  0.00    +0.155 HD
BRANCH  21  23
ATOM     23  C   UNL     1       2.595  -0.269   2.637  0.00  0.00    +0.084 A 
ATOM     24  C   UNL     1       3.913   0.011   2.969  0.00  0.00    +0.065 A 
ATOM     25  C   UNL     1       4.351  -0.401   4.282  0.00  0.00    +0.022 A 
ATOM     26  C   UNL     1       3.426  -1.015   5.043  0.00  0.00    +0.048 A 
ATOM     27  S   UNL     1       1.983  -1.029   4.002  0.00  0.00    -0.081 S 
BRANCH  24  28
ATOM     28  C   UNL     1       4.815   0.691   2.033  0.00  0.00    +0.244 C 
ATOM     29  O   UNL     1       4.413   1.024   0.934  0.00  0.00    -0.270 OA
ATOM     30  N   UNL     1       6.089   0.947   2.391  0.00  0.00    -0.325 N 
ATOM     31  H   UNL     1       6.409   0.681   3.267  0.00  0.00    +0.145 HD
ATOM     32  H   UNL     1       6.685   1.396   1.772  0.00  0.00    +0.145 HD
ENDBRANCH  24  28
ENDBRANCH  21  23
ENDBRANCH   2  19
TORSDOF 6
