REMARK  Name = ZINC23352718
REMARK  11 active torsions:
REMARK  status: ('A' for Active; 'I' for Inactive)
REMARK    1  A    between atoms: C_1  and  C_2
REMARK    2  A    between atoms: C_3  and  C_14
REMARK    3  A    between atoms: C_4  and  C_13
REMARK    4  A    between atoms: C_9  and  S_11
REMARK    5  A    between atoms: S_11  and  C_12
REMARK    6  A    between atoms: C_14  and  C_15
REMARK    7  A    between atoms: N_17  and  C_18
REMARK    8  A    between atoms: C_23  and  C_24
REMARK    9  A    between atoms: C_24  and  N_25
REMARK   10  A    between atoms: N_25  and  C_26
REMARK   11  A    between atoms: N_25  and  C_27
REMARK                            x       y       z     vdW  Elec       q    Type
REMARK                         _______ _______ _______ _____ _____    ______ ____
ROOT
ATOM      1  C   UNL     1       4.843  -3.268  -1.429  0.00  0.00    +0.222 C 
ATOM      2  O   UNL     1       4.993  -2.437  -2.299  0.00  0.00    -0.275 OA
ATOM      3  N   UNL     1       4.889  -4.580  -1.734  0.00  0.00    -0.285 N 
ATOM      4  H   UNL     1       4.845  -5.333  -0.934  0.00  0.00    +0.155 HD
ENDROOT
BRANCH   3   5
ATOM      5  C   UNL     1       4.993  -4.984  -3.070  0.00  0.00    +0.035 A 
ATOM      6  C   UNL     1       4.546  -4.150  -4.087  0.00  0.00    +0.023 A 
ATOM      7  C   UNL     1       4.650  -4.551  -5.404  0.00  0.00    +0.002 A 
ATOM      8  C   UNL     1       5.200  -5.783  -5.711  0.00  0.00    +0.000 A 
ATOM      9  C   UNL     1       5.646  -6.615  -4.702  0.00  0.00    +0.003 A 
ATOM     10  C   UNL     1       5.550  -6.217  -3.382  0.00  0.00    -0.043 A 
BRANCH  10  11
ATOM     11  C   UNL     1       6.042  -7.123  -2.283  0.00  0.00    -0.041 C 
BRANCH  11  12
ATOM     12  N   UNL     1       4.902  -7.830  -1.684  0.00  0.00    +0.382 N 
ATOM     13  C   UNL     1       4.289  -8.753  -2.649  0.00  0.00    -0.095 C 
ATOM     14  H   UNL     1       4.147  -7.080  -1.407  0.00  0.00    -0.081 HD
BRANCH  12  15
ATOM     15  C   UNL     1       5.306  -8.538  -0.462  0.00  0.00    -0.069 C 
ATOM     16  C   UNL     1       6.302  -9.643  -0.818  0.00  0.00    -0.015 C 
ATOM     17  C   UNL     1       6.722 -10.380   0.456  0.00  0.00    -0.002 C 
ATOM     18  C   UNL     1       5.489 -10.999   1.117  0.00  0.00    -0.000 C 
ATOM     19  C   UNL     1       4.493  -9.895   1.472  0.00  0.00    -0.002 C 
ATOM     20  C   UNL     1       4.073  -9.157   0.199  0.00  0.00    -0.015 C 
ENDBRANCH  12  15
ENDBRANCH  11  12
ENDBRANCH  10  11
ENDBRANCH   3   5
BRANCH   1  21
ATOM     21  C   UNL     1       4.606  -2.834  -0.005  0.00  0.00    +0.134 C 
BRANCH  21  24
ATOM     22  C   UNL     1       7.081  -1.379   0.481  0.00  0.00    +0.066 C 
ATOM     23  C   UNL     1       5.788  -0.627   0.300  0.00  0.00    +0.047 A 
ATOM     24  C   UNL     1       4.600  -1.329   0.066  0.00  0.00    +0.004 A 
ATOM     25  C   UNL     1       3.442  -0.637  -0.095  0.00  0.00    +0.049 A 
ATOM     26  N   UNL     1       3.468   0.719  -0.026  0.00  0.00    -0.200 N 
ATOM     27  C   UNL     1       4.644   1.375   0.204  0.00  0.00    +0.254 A 
ATOM     28  N   UNL     1       5.781   0.686   0.361  0.00  0.00    -0.216 NA
ATOM     29  N   UNL     1       4.376   2.676   0.222  0.00  0.00    -0.183 NA
ATOM     30  C   UNL     1       3.076   2.869   0.013  0.00  0.00    +0.211 A 
ATOM     31  N   UNL     1       2.479   1.705  -0.144  0.00  0.00    -0.137 NA
ATOM     32  C   UNL     1       2.146  -1.365  -0.347  0.00  0.00    +0.066 C 
BRANCH  30  33
ATOM     33  S   UNL     1       2.278   4.439  -0.052  0.00  0.00    -0.088 S 
ATOM     34  C   UNL     1       3.620   5.626   0.234  0.00  0.00    +0.093 C 
ENDBRANCH  30  33
ENDBRANCH  21  24
ENDBRANCH   1  21
TORSDOF 7
