REMARK  Name = ZINC65364602
REMARK  7 active torsions:
REMARK  status: ('A' for Active; 'I' for Inactive)
REMARK    1  A    between atoms: C_1  and  S_2
REMARK    2  A    between atoms: S_2  and  N_5
REMARK    3  A    between atoms: C_9  and  C_12
REMARK    4  A    between atoms: N_14  and  C_15
REMARK    5  A    between atoms: C_15  and  C_16
REMARK    6  A    between atoms: C_16  and  O_17
REMARK    7  A    between atoms: O_17  and  C_18
REMARK                            x       y       z     vdW  Elec       q    Type
REMARK                         _______ _______ _______ _____ _____    ______ ____
ROOT
ATOM      1  C   UNL     1       4.331   0.030  -2.609  0.00  0.00    +0.217 C 
ATOM      2  O   UNL     1       4.856  -0.788  -1.884  0.00  0.00    -0.275 OA
ATOM      3  N   UNL     1       5.070   0.699  -3.516  0.00  0.00    -0.312 N 
ATOM      4  H   UNL     1       4.651   1.353  -4.096  0.00  0.00    +0.149 HD
ENDROOT
BRANCH   1   9
ATOM      5  N   UNL     1       0.795  -0.411  -1.394  0.00  0.00    -0.181 NA
ATOM      6  C   UNL     1       0.053  -0.601  -2.648  0.00  0.00    +0.109 C 
ATOM      7  C   UNL     1       0.677   0.287  -3.729  0.00  0.00    +0.018 C 
ATOM      8  C   UNL     1       2.174  -0.017  -3.832  0.00  0.00    +0.015 C 
ATOM      9  C   UNL     1       2.853   0.298  -2.497  0.00  0.00    +0.091 C 
ATOM     10  C   UNL     1       2.254  -0.584  -1.403  0.00  0.00    +0.121 C 
BRANCH   5  12
ATOM     11  C   UNL     1      -0.022   1.810   0.012  0.00  0.00    +0.215 C 
ATOM     12  S   UNL     1       0.002  -0.004   0.002  0.00  0.00    +0.029 S 
ATOM     13  O   UNL     1       0.835  -0.488   1.046  0.00  0.00    -0.158 OA
ATOM     14  O   UNL     1      -1.315  -0.510  -0.168  0.00  0.00    -0.158 OA
ENDBRANCH   5  12
ENDBRANCH   1   9
BRANCH   3  15
ATOM     15  C   UNL     1       6.508   0.439  -3.625  0.00  0.00    +0.145 C 
BRANCH  15  16
ATOM     16  C   UNL     1       7.105   1.323  -4.722  0.00  0.00    +0.248 C 
BRANCH  16  17
ATOM     17  O   UNL     1       6.997   2.696  -4.338  0.00  0.00    -0.489 OA
BRANCH  17  18
ATOM     18  C   UNL     1       7.484   3.620  -5.207  0.00  0.00    +0.139 A 
ATOM     19  C   UNL     1       8.048   3.214  -6.408  0.00  0.00    +0.047 A 
ATOM     20  C   UNL     1       8.542   4.155  -7.291  0.00  0.00    +0.004 A 
ATOM     21  C   UNL     1       8.475   5.501  -6.979  0.00  0.00    +0.002 A 
ATOM     22  C   UNL     1       7.914   5.908  -5.783  0.00  0.00    +0.023 A 
ATOM     23  C   UNL     1       7.413   4.971  -4.898  0.00  0.00    +0.083 A 
ATOM     24 CL   UNL     1       6.702   5.483  -3.400  0.00  0.00    -0.080 Cl
ENDBRANCH  17  18
ENDBRANCH  16  17
ENDBRANCH  15  16
ENDBRANCH   3  15
TORSDOF 6
