REMARK  Name = ZINC33959501
REMARK  15 active torsions:
REMARK  status: ('A' for Active; 'I' for Inactive)
REMARK    1  A    between atoms: C_1  and  C_2
REMARK    2  A    between atoms: C_2  and  N_3
REMARK    3  A    between atoms: N_3  and  C_4
REMARK    4  A    between atoms: N_3  and  C_6
REMARK    5  A    between atoms: C_4  and  C_5
REMARK    6  A    between atoms: C_6  and  C_8
REMARK    7  A    between atoms: C_6  and  C_21
REMARK    8  A    between atoms: C_8  and  C_9
REMARK    9  A    between atoms: C_9  and  C_10
REMARK   10  A    between atoms: C_10  and  C_11
REMARK   11  A    between atoms: C_11  and  N_12
REMARK   12  A    between atoms: C_13  and  C_15
REMARK   13  A    between atoms: N_23  and  N_24
REMARK   14  A    between atoms: C_25  and  C_26
REMARK   15  A    between atoms: C_29  and  C_31
REMARK                            x       y       z     vdW  Elec       q    Type
REMARK                         _______ _______ _______ _____ _____    ______ ____
ROOT
ATOM      1  C   UNL     1       2.203  -0.346   1.216  0.00  0.00    +0.021 C 
ENDROOT
BRANCH   1   2
ATOM      2  C   UNL     1       2.881  -1.025   2.378  0.00  0.00    +0.219 C 
ATOM      3  O   UNL     1       2.228  -1.380   3.338  0.00  0.00    -0.276 OA
ATOM      4  N   UNL     1       4.211  -1.238   2.351  0.00  0.00    -0.208 N 
ATOM      5  H   UNL     1       4.732  -0.954   1.584  0.00  0.00    +0.177 HD
BRANCH   4   6
ATOM      6  N   UNL     1       4.841  -1.870   3.431  0.00  0.00    -0.185 NA
ATOM      7  C   UNL     1       6.126  -2.076   3.405  0.00  0.00    +0.176 C 
BRANCH   7   8
ATOM      8  C   UNL     1       6.785  -2.736   4.534  0.00  0.00    +0.148 A 
ATOM      9  C   UNL     1       8.131  -3.009   4.638  0.00  0.00    +0.051 A 
ATOM     10  C   UNL     1       8.321  -3.644   5.873  0.00  0.00    +0.050 A 
ATOM     11  C   UNL     1       7.098  -3.733   6.469  0.00  0.00    +0.136 A 
ATOM     12  O   UNL     1       6.180  -3.177   5.656  0.00  0.00    -0.454 OA
BRANCH  11  13
ATOM     13  C   UNL     1       6.827  -4.333   7.790  0.00  0.00    +0.019 A 
ATOM     14  C   UNL     1       7.873  -4.869   8.546  0.00  0.00    +0.011 A 
ATOM     15  C   UNL     1       7.613  -5.428   9.779  0.00  0.00    +0.002 A 
ATOM     16  C   UNL     1       6.319  -5.461  10.270  0.00  0.00    +0.020 A 
ATOM     17  C   UNL     1       5.277  -4.933   9.526  0.00  0.00    +0.042 A 
ATOM     18  C   UNL     1       5.524  -4.364   8.293  0.00  0.00    +0.031 A 
ATOM     19 CL   UNL     1       3.658  -4.979  10.150  0.00  0.00    -0.084 Cl
ENDBRANCH  11  13
ENDBRANCH   7   8
ENDBRANCH   4   6
ENDBRANCH   1   2
BRANCH   1  20
ATOM     20  N   UNL     1       0.752  -0.313   1.447  0.00  0.00    +0.387 N 
ATOM     21  H   UNL     1       0.482  -1.111   2.003  0.00  0.00    -0.081 HD
BRANCH  20  23
ATOM     22  C   UNL     1       0.983   0.885   3.570  0.00  0.00    -0.017 C 
ATOM     23  C   UNL     1       0.397   0.922   2.157  0.00  0.00    -0.081 C 
ENDBRANCH  20  23
BRANCH  20  24
ATOM     24  C   UNL     1       0.051  -0.356   0.157  0.00  0.00    -0.081 C 
ATOM     25  C   UNL     1       0.293  -1.711  -0.511  0.00  0.00    -0.017 C 
ENDBRANCH  20  24
ENDBRANCH   1  20
BRANCH   1  26
ATOM     26  C   UNL     1       2.730   1.084   1.083  0.00  0.00    -0.006 C 
BRANCH  26  27
ATOM     27  C   UNL     1       2.158   1.723  -0.184  0.00  0.00    +0.000 C 
BRANCH  27  28
ATOM     28  C   UNL     1       2.734   3.131  -0.350  0.00  0.00    +0.019 C 
BRANCH  28  29
ATOM     29  C   UNL     1       2.163   3.769  -1.617  0.00  0.00    +0.104 C 
BRANCH  29  30
ATOM     30  N   UNL     1       2.714   5.117  -1.776  0.00  0.00    -0.311 N 
ATOM     31  C   UNL     1       2.350   5.874  -2.830  0.00  0.00    +0.244 C 
ATOM     32  O   UNL     1       1.563   5.439  -3.648  0.00  0.00    -0.270 OA
ATOM     33  H   UNL     1       3.342   5.465  -1.123  0.00  0.00    +0.149 HD
BRANCH  31  34
ATOM     34  C   UNL     1       2.907   7.234  -2.991  0.00  0.00    +0.037 A 
ATOM     35  C   UNL     1       3.815   7.735  -2.056  0.00  0.00    +0.013 A 
ATOM     36  C   UNL     1       4.331   9.005  -2.212  0.00  0.00    +0.001 A 
ATOM     37  C   UNL     1       3.950   9.782  -3.292  0.00  0.00    +0.000 A 
ATOM     38  C   UNL     1       3.051   9.292  -4.222  0.00  0.00    +0.001 A 
ATOM     39  C   UNL     1       2.532   8.021  -4.081  0.00  0.00    +0.013 A 
ENDBRANCH  31  34
ENDBRANCH  29  30
ENDBRANCH  28  29
ENDBRANCH  27  28
ENDBRANCH  26  27
ENDBRANCH   1  26
TORSDOF 13
