REMARK  Name = ZINC34758782
REMARK  9 active torsions:
REMARK  status: ('A' for Active; 'I' for Inactive)
REMARK    1  A    between atoms: C_1  and  C_2
REMARK    2  A    between atoms: C_5  and  C_9
REMARK    3  A    between atoms: C_6  and  C_8
REMARK    4  A    between atoms: C_9  and  N_10
REMARK    5  A    between atoms: C_18  and  C_34
REMARK    6  A    between atoms: C_19  and  C_33
REMARK    7  A    between atoms: C_23  and  S_25
REMARK    8  A    between atoms: S_25  and  C_26
REMARK    9  A    between atoms: C_26  and  C_27
REMARK                            x       y       z     vdW  Elec       q    Type
REMARK                         _______ _______ _______ _____ _____    ______ ____
ROOT
ATOM      1  N   UNL     1      -1.371  -5.091   0.121  0.00  0.00    +0.384 N 
ATOM      2  C   UNL     1      -1.606  -4.733   1.526  0.00  0.00    -0.059 C 
ATOM      3  C   UNL     1      -3.064  -5.028   1.890  0.00  0.00    +0.088 C 
ATOM      4  N   UNL     1      -3.350  -6.435   1.567  0.00  0.00    -0.318 N 
ATOM      5  C   UNL     1      -2.993  -6.924   0.226  0.00  0.00    +0.088 C 
ATOM      6  C   UNL     1      -1.538  -6.539  -0.060  0.00  0.00    -0.059 C 
ATOM      7  C   UNL     1      -3.937  -7.273   2.497  0.00  0.00    +0.134 A 
ATOM      8  C   UNL     1      -5.344  -7.487   2.485  0.00  0.00    +0.051 A 
ATOM      9  C   UNL     1      -6.358  -6.940   1.598  0.00  0.00    -0.028 A 
ATOM     10  C   UNL     1      -7.640  -7.288   1.777  0.00  0.00    -0.008 A 
ATOM     11  S   UNL     1      -7.581  -8.396   3.173  0.00  0.00    -0.073 S 
ATOM     12  C   UNL     1      -5.834  -8.361   3.478  0.00  0.00    +0.115 A 
ATOM     13  N   UNL     1      -5.029  -8.932   4.353  0.00  0.00    -0.215 NA
ATOM     14  C   UNL     1      -3.724  -8.695   4.316  0.00  0.00    +0.191 A 
ATOM     15  N   UNL     1      -3.197  -7.888   3.403  0.00  0.00    -0.206 NA
ATOM     16  C   UNL     1      -8.845  -6.847   0.986  0.00  0.00    +0.052 C 
ATOM     17  C   UNL     1      -5.972  -5.992   0.492  0.00  0.00    +0.045 C 
ATOM     18  H   UNL     1      -2.032  -4.602  -0.463  0.00  0.00    -0.081 HD
ENDROOT
BRANCH   1  19
ATOM     19  C   UNL     1      -0.005  -4.707  -0.259  0.00  0.00    -0.043 C 
BRANCH  19  24
ATOM     20  C   UNL     1       0.504   1.046  -0.060  0.00  0.00    +0.044 C 
ATOM     21  C   UNL     1       0.371  -0.454  -0.112  0.00  0.00    -0.050 A 
ATOM     22  C   UNL     1       0.884  -1.229   0.912  0.00  0.00    +0.003 A 
ATOM     23  C   UNL     1       0.762  -2.605   0.865  0.00  0.00    +0.002 A 
ATOM     24  C   UNL     1       0.127  -3.206  -0.207  0.00  0.00    -0.061 A 
ATOM     25  C   UNL     1      -0.386  -2.431  -1.230  0.00  0.00    -0.049 A 
ATOM     26  C   UNL     1      -0.268  -1.055  -1.180  0.00  0.00    +0.007 A 
ATOM     27  C   UNL     1      -1.077  -3.087  -2.397  0.00  0.00    +0.044 C 
ENDBRANCH  19  24
ENDBRANCH   1  19
BRANCH  14  28
ATOM     28  S   UNL     1      -2.671  -9.471   5.497  0.00  0.00    -0.081 S 
BRANCH  28  29
ATOM     29  C   UNL     1      -3.803 -10.463   6.510  0.00  0.00    +0.112 C 
BRANCH  29  30
ATOM     30  C   UNL     1      -3.020 -11.189   7.573  0.00  0.00    -0.037 A 
ATOM     31  C   UNL     1      -2.508 -12.447   7.316  0.00  0.00    +0.004 A 
ATOM     32  C   UNL     1      -1.790 -13.113   8.292  0.00  0.00    +0.000 A 
ATOM     33  C   UNL     1      -1.583 -12.521   9.524  0.00  0.00    +0.000 A 
ATOM     34  C   UNL     1      -2.095 -11.262   9.780  0.00  0.00    +0.000 A 
ATOM     35  C   UNL     1      -2.809 -10.594   8.803  0.00  0.00    +0.004 A 
ENDBRANCH  29  30
ENDBRANCH  28  29
ENDBRANCH  14  28
TORSDOF 5
