REMARK  Name = ZINC42793702
REMARK  6 active torsions:
REMARK  status: ('A' for Active; 'I' for Inactive)
REMARK    1  A    between atoms: C_1  and  C_2
REMARK    2  A    between atoms: N_14  and  CA_15
REMARK    3  A    between atoms: CA_15  and  CB_17
REMARK    4  A    between atoms: CA_15  and  C_21
REMARK    5  A    between atoms: CB_17  and  CG2_19
REMARK    6  A    between atoms: CB_17  and  OG1_20
REMARK                            x       y       z     vdW  Elec       q    Type
REMARK                         _______ _______ _______ _____ _____    ______ ____
ROOT
ATOM      1  C   UNK A   0      -0.026   1.527   0.018  0.00  0.00    +0.033 C 
ATOM      2  C   UNK A   0      -0.004  -0.003   0.007  0.00  0.00    +0.105 C 
ATOM      3  C   UNK A   0      -1.424  -0.542   0.167  0.00  0.00    -0.017 A 
ATOM      4  C   UNK A   0      -2.508  -0.070  -0.571  0.00  0.00    +0.013 A 
ATOM      5  C   UNK A   0      -3.739  -0.597  -0.379  0.00  0.00    +0.046 A 
ATOM      6  S   UNK A   0      -3.422  -1.818   0.886  0.00  0.00    -0.101 S 
ATOM      7  C   UNK A   0      -1.681  -1.532   1.065  0.00  0.00    -0.004 A 
ATOM      8  C   UNK A   0      -0.719  -2.211   1.984  0.00  0.00    +0.062 C 
ATOM      9  C   UNK A   0       0.711  -1.918   1.503  0.00  0.00    +0.115 C 
ATOM     10  N   UNK A   0       0.795  -0.497   1.137  0.00  0.00    -0.278 N 
ATOM     11  C   UNK A   0       1.593   0.341   1.828  0.00  0.00    +0.303 C 
ATOM     12  O   UNK A   0       1.591   1.530   1.574  0.00  0.00    -0.253 OA
ATOM     13  N   THR A   1       2.393  -0.139   2.800  0.00  0.00    -0.284 N 
ATOM     14  H   THR A   1       2.451  -1.095   2.953  0.00  0.00    +0.151 HD
ENDROOT
BRANCH  13  15
ATOM     15  CA  THR A   1       3.177   0.783   3.626  0.00  0.00    +0.216 C 
BRANCH  15  16
ATOM     16  C   THR A   1       2.328   1.278   4.769  0.00  0.00    +0.378 C 
ATOM     17  O   THR A   1       1.448   0.570   5.226  0.00  0.00    -0.244 OA
ATOM     18  OXT THR A   1       2.522   2.388   5.236  0.00  0.00    -0.244 OA
ENDBRANCH  15  16
BRANCH  15  19
ATOM     19  CB  THR A   1       4.404   0.056   4.179  0.00  0.00    +0.143 C 
ATOM     20  CG2 THR A   1       5.265  -0.447   3.019  0.00  0.00    +0.040 C 
BRANCH  19  21
ATOM     21  OG1 THR A   1       5.168   0.955   4.985  0.00  0.00    -0.390 OA
ATOM     22  HG1 THR A   1       5.962   0.561   5.370  0.00  0.00    +0.210 HD
ENDBRANCH  19  21
ENDBRANCH  15  19
ENDBRANCH  13  15
TORSDOF 4
