REMARK  Name = ZINC04962347
REMARK  10 active torsions:
REMARK  status: ('A' for Active; 'I' for Inactive)
REMARK    1  A    between atoms: C_6  and  C_7
REMARK    2  A    between atoms: C_7  and  C_8
REMARK    3  A    between atoms: C_7  and  C_15
REMARK    4  A    between atoms: C_15  and  C_17
REMARK    5  A    between atoms: C_15  and  O_25
REMARK    6  A    between atoms: C_17  and  C_19
REMARK    7  A    between atoms: C_17  and  O_24
REMARK    8  A    between atoms: C_19  and  C_21
REMARK    9  A    between atoms: C_19  and  O_23
REMARK   10  A    between atoms: C_21  and  O_22
REMARK                            x       y       z     vdW  Elec       q    Type
REMARK                         _______ _______ _______ _____ _____    ______ ____
ROOT
ATOM      1  C   UNL     1       2.002   1.198   3.728  0.00  0.00    +0.080 C 
ENDROOT
BRANCH   1   7
ATOM      2  C   UNL     1      -0.096   0.857   5.049  0.00  0.00    +0.007 A 
ATOM      3  C   UNL     1      -0.909   1.139   6.130  0.00  0.00    +0.038 A 
ATOM      4  C   UNL     1      -0.517   2.085   7.063  0.00  0.00    +0.123 A 
ATOM      5  C   UNL     1       0.692   2.742   6.914  0.00  0.00    +0.038 A 
ATOM      6  C   UNL     1       1.506   2.454   5.835  0.00  0.00    +0.007 A 
ATOM      7  C   UNL     1       1.114   1.510   4.904  0.00  0.00    -0.037 A 
ATOM      8  F   UNL     1      -1.313   2.365   8.117  0.00  0.00    -0.205 F 
ENDBRANCH   1   7
BRANCH   1   9
ATOM      9  C   UNL     1       2.607  -0.171   3.905  0.00  0.00    -0.037 A 
ATOM     10  C   UNL     1       1.794  -1.254   4.185  0.00  0.00    +0.007 A 
ATOM     11  C   UNL     1       2.347  -2.511   4.343  0.00  0.00    +0.038 A 
ATOM     12  C   UNL     1       3.716  -2.683   4.230  0.00  0.00    +0.123 A 
ATOM     13  C   UNL     1       4.529  -1.597   3.954  0.00  0.00    +0.038 A 
ATOM     14  C   UNL     1       3.974  -0.342   3.792  0.00  0.00    +0.007 A 
ATOM     15  F   UNL     1       4.258  -3.911   4.389  0.00  0.00    -0.205 F 
ENDBRANCH   1   9
BRANCH   1  16
ATOM     16  C   UNL     1       1.174   1.227   2.441  0.00  0.00    +0.157 C 
BRANCH  16  17
ATOM     17  O   UNL     1       0.231   0.154   2.457  0.00  0.00    -0.388 OA
ATOM     18  H   UNL     1       0.631  -0.723   2.381  0.00  0.00    +0.210 HD
ENDBRANCH  16  17
BRANCH  16  19
ATOM     19  C   UNL     1       2.102   1.073   1.234  0.00  0.00    +0.174 C 
BRANCH  19  20
ATOM     20  O   UNL     1       3.045   2.147   1.218  0.00  0.00    -0.387 OA
ATOM     21  H   UNL     1       2.642   3.024   1.159  0.00  0.00    +0.210 HD
ENDBRANCH  19  20
BRANCH  19  22
ATOM     22  C   UNL     1       1.274   1.103  -0.052  0.00  0.00    +0.171 C 
BRANCH  22  23
ATOM     23  O   UNL     1       0.330   0.029  -0.036  0.00  0.00    -0.387 OA
ATOM     24  H   UNL     1       0.734  -0.847   0.024  0.00  0.00    +0.210 HD
ENDBRANCH  22  23
BRANCH  22  25
ATOM     25  C   UNL     1       2.201   0.949  -1.259  0.00  0.00    +0.189 C 
BRANCH  25  26
ATOM     26  O   UNL     1       1.444   1.093  -2.463  0.00  0.00    -0.392 OA
ATOM     27  H   UNL     1       1.969   1.007  -3.270  0.00  0.00    +0.210 HD
ENDBRANCH  25  26
ENDBRANCH  22  25
ENDBRANCH  19  22
ENDBRANCH  16  19
ENDBRANCH   1  16
TORSDOF 10
