REMARK  Name = ZINC06088244
REMARK  7 active torsions:
REMARK  status: ('A' for Active; 'I' for Inactive)
REMARK    1  A    between atoms: C_1  and  C_2
REMARK    2  A    between atoms: C_5  and  N_8
REMARK    3  A    between atoms: C_9  and  O_28
REMARK    4  A    between atoms: C_10  and  C_17
REMARK    5  A    between atoms: N_18  and  C_19
REMARK    6  A    between atoms: C_22  and  O_27
REMARK    7  A    between atoms: C_23  and  C_25
REMARK                            x       y       z     vdW  Elec       q    Type
REMARK                         _______ _______ _______ _____ _____    ______ ____
ROOT
ATOM      1  N   UNL     1      -0.023   3.964   0.023  0.00  0.00    -0.232 N 
ATOM      2  C   UNL     1      -1.125   3.333   0.531  0.00  0.00    +0.215 A 
ATOM      3  C   UNL     1      -1.175   1.938   0.516  0.00  0.00    +0.117 A 
ATOM      4  C   UNL     1      -0.025   1.214  -0.040  0.00  0.00    +0.266 A 
ATOM      5  O   UNL     1      -0.015  -0.003  -0.074  0.00  0.00    -0.267 OA
ATOM      6  N   UNL     1       1.017   1.924  -0.518  0.00  0.00    -0.274 N 
ATOM      7  H   UNL     1       1.806   1.446  -0.903  0.00  0.00    +0.173 HD
ATOM      8  C   UNL     1       1.008   3.267  -0.482  0.00  0.00    +0.337 A 
ATOM      9  O   UNL     1       1.966   3.873  -0.922  0.00  0.00    -0.246 OA
ENDROOT
BRANCH   1  14
ATOM     10  C   UNL     1       0.197   9.634   0.052  0.00  0.00    +0.044 C 
ATOM     11  C   UNL     1       0.139   8.129   0.044  0.00  0.00    -0.050 A 
ATOM     12  C   UNL     1      -0.403   7.465  -1.041  0.00  0.00    +0.005 A 
ATOM     13  C   UNL     1      -0.458   6.085  -1.051  0.00  0.00    +0.026 A 
ATOM     14  C   UNL     1       0.032   5.364   0.030  0.00  0.00    +0.054 A 
ATOM     15  C   UNL     1       0.571   6.033   1.120  0.00  0.00    +0.026 A 
ATOM     16  C   UNL     1       0.628   7.413   1.122  0.00  0.00    +0.005 A 
ENDBRANCH   1  14
BRANCH   3  17
ATOM     17  C   UNL     1      -2.336   1.219   1.043  0.00  0.00    +0.130 C 
ATOM     18  N   UNL     1      -2.359  -0.088   1.023  0.00  0.00    -0.255 NA
BRANCH  18  19
ATOM     19  C   UNL     1      -3.446  -0.761   1.516  0.00  0.00    +0.065 A 
ATOM     20  C   UNL     1      -4.008  -0.380   2.739  0.00  0.00    +0.031 A 
ATOM     21  C   UNL     1      -5.104  -1.050   3.237  0.00  0.00    +0.048 A 
ATOM     22  C   UNL     1      -5.652  -2.114   2.535  0.00  0.00    +0.131 A 
ATOM     23  C   UNL     1      -5.094  -2.508   1.311  0.00  0.00    +0.106 A 
ATOM     24  C   UNL     1      -3.987  -1.827   0.803  0.00  0.00    +0.046 A 
BRANCH  23  25
ATOM     25  C   UNL     1      -5.674  -3.638   0.562  0.00  0.00    +0.390 C 
ATOM     26  O   UNL     1      -6.638  -4.230   1.006  0.00  0.00    -0.240 OA
ATOM     27  O   UNL     1      -5.136  -4.014  -0.615  0.00  0.00    -0.240 OA
ENDBRANCH  23  25
BRANCH  22  28
ATOM     28  O   UNL     1      -6.728  -2.774   3.034  0.00  0.00    -0.506 OA
ATOM     29  H   UNL     1      -6.502  -3.522   3.603  0.00  0.00    +0.292 HD
ENDBRANCH  22  28
ENDBRANCH  18  19
ENDBRANCH   3  17
BRANCH   2  30
ATOM     30  O   UNL     1      -2.150   4.048   1.033  0.00  0.00    -0.493 OA
ATOM     31  H   UNL     1      -2.904   3.551   1.379  0.00  0.00    +0.294 HD
ENDBRANCH   2  30
TORSDOF 6
