REMARK  Name = ZINC67574903
REMARK  6 active torsions:
REMARK  status: ('A' for Active; 'I' for Inactive)
REMARK    1  A    between atoms: N_4  and  C_6
REMARK    2  A    between atoms: C_10  and  N_12
REMARK    3  A    between atoms: N_15  and  C_16
REMARK    4  A    between atoms: C_16  and  C_17
REMARK    5  A    between atoms: C_21  and  N_23
REMARK    6  A    between atoms: N_26  and  C_27
REMARK                            x       y       z     vdW  Elec       q    Type
REMARK                         _______ _______ _______ _____ _____    ______ ____
ROOT
ATOM      1  N   UNL     1       0.270  -5.103  -0.055  0.00  0.00    -0.269 N 
ATOM      2  C   UNL     1       0.706  -6.373  -0.169  0.00  0.00    +0.304 C 
ATOM      3  O   UNL     1       1.899  -6.607  -0.180  0.00  0.00    -0.252 OA
ATOM      4  N   UNL     1      -0.180  -7.383  -0.271  0.00  0.00    -0.295 N 
ATOM      5  H   UNL     1      -0.680  -4.922   0.028  0.00  0.00    +0.156 HD
ATOM      6  H   UNL     1      -1.131  -7.197  -0.262  0.00  0.00    +0.151 HD
ENDROOT
BRANCH   1  11
ATOM      7  C   UNL     1       1.845  -1.861   0.691  0.00  0.00    +0.048 A 
ATOM      8  C   UNL     1       3.004  -1.954  -0.070  0.00  0.00    +0.026 A 
ATOM      9  C   UNL     1       3.251  -3.088  -0.820  0.00  0.00    +0.004 A 
ATOM     10  C   UNL     1       2.346  -4.132  -0.817  0.00  0.00    +0.023 A 
ATOM     11  C   UNL     1       1.186  -4.045  -0.058  0.00  0.00    +0.037 A 
ATOM     12  C   UNL     1       0.938  -2.910   0.701  0.00  0.00    +0.049 A 
BRANCH   7  16
ATOM     13  C   UNL     1       0.621   0.719   2.808  0.00  0.00    +0.019 A 
ATOM     14  C   UNL     1       1.830   1.281   2.354  0.00  0.00    +0.019 A 
ATOM     15  C   UNL     1       2.407   0.387   1.526  0.00  0.00    +0.091 A 
ATOM     16  N   UNL     1       1.596  -0.710   1.451  0.00  0.00    -0.323 N 
ATOM     17  C   UNL     1       0.502  -0.499   2.241  0.00  0.00    +0.091 A 
ENDBRANCH   7  16
ENDBRANCH   1  11
BRANCH   4  18
ATOM     18  C   UNL     1       0.295  -8.764  -0.395  0.00  0.00    +0.141 C 
BRANCH  18  19
ATOM     19  C   UNL     1      -0.886  -9.694  -0.492  0.00  0.00    -0.029 A 
ATOM     20  C   UNL     1      -1.442 -10.227   0.657  0.00  0.00    +0.005 A 
ATOM     21  C   UNL     1      -2.526 -11.081   0.572  0.00  0.00    +0.002 A 
ATOM     22  C   UNL     1      -3.057 -11.405  -0.661  0.00  0.00    +0.023 A 
ATOM     23  C   UNL     1      -2.501 -10.872  -1.816  0.00  0.00    +0.035 A 
ATOM     24  C   UNL     1      -1.416 -10.010  -1.727  0.00  0.00    +0.028 A 
BRANCH  23  25
ATOM     25  N   UNL     1      -3.037 -11.198  -3.067  0.00  0.00    -0.269 N 
ATOM     26  C   UNL     1      -2.224 -11.334  -4.134  0.00  0.00    +0.304 C 
ATOM     27  O   UNL     1      -1.038 -11.090  -4.029  0.00  0.00    -0.253 OA
ATOM     28  N   UNL     1      -2.727 -11.739  -5.317  0.00  0.00    -0.296 N 
ATOM     29  H   UNL     1      -3.993 -11.327  -3.167  0.00  0.00    +0.156 HD
ATOM     30  H   UNL     1      -3.673 -11.933  -5.401  0.00  0.00    +0.151 HD
BRANCH  28  31
ATOM     31  C   UNL     1      -1.843 -11.886  -6.476  0.00  0.00    +0.075 C 
ATOM     32  C   UNL     1      -2.344 -11.350  -7.819  0.00  0.00    +0.024 C 
ATOM     33  C   UNL     1      -2.275 -12.858  -7.575  0.00  0.00    +0.024 C 
ENDBRANCH  28  31
ENDBRANCH  23  25
ENDBRANCH  18  19
ENDBRANCH   4  18
TORSDOF 6
