REMARK  Name = ZINC06942118
REMARK  8 active torsions:
REMARK  status: ('A' for Active; 'I' for Inactive)
REMARK    1  A    between atoms: C_1  and  C_2
REMARK    2  A    between atoms: C_2  and  N_3
REMARK    3  A    between atoms: N_5  and  N_19
REMARK    4  A    between atoms: C_6  and  C_9
REMARK    5  A    between atoms: C_12  and  O_18
REMARK    6  A    between atoms: C_13  and  C_15
REMARK    7  A    between atoms: C_20  and  C_21
REMARK    8  A    between atoms: C_24  and  C_26
REMARK                            x       y       z     vdW  Elec       q    Type
REMARK                         _______ _______ _______ _____ _____    ______ ____
ROOT
ATOM      1  N   UNL     1       0.726  -7.143   2.075  0.00  0.00    -0.260 NA
ATOM      2  C   UNL     1       0.397  -6.314   1.116  0.00  0.00    +0.190 A 
ATOM      3  N   UNL     1       0.180  -4.952   1.178  0.00  0.00    -0.208 N 
ATOM      4  C   UNL     1      -0.163  -4.293   0.027  0.00  0.00    +0.082 A 
ATOM      5  C   UNL     1      -0.269  -4.979  -1.129  0.00  0.00    +0.077 A 
ATOM      6  S   UNL     1       0.117  -6.645  -0.616  0.00  0.00    -0.056 S 
ENDROOT
BRANCH   4   7
ATOM      7  C   UNL     1      -0.409  -2.834   0.051  0.00  0.00    +0.002 A 
ATOM      8  C   UNL     1      -0.918  -2.231   1.205  0.00  0.00    +0.013 A 
ATOM      9  C   UNL     1      -1.149  -0.872   1.233  0.00  0.00    +0.047 A 
ATOM     10  C   UNL     1      -0.878  -0.094   0.116  0.00  0.00    +0.129 A 
ATOM     11  C   UNL     1      -0.373  -0.690  -1.047  0.00  0.00    +0.078 A 
ATOM     12  C   UNL     1      -0.134  -2.064  -1.074  0.00  0.00    +0.026 A 
BRANCH  11  13
ATOM     13  C   UNL     1      -0.090   0.134  -2.238  0.00  0.00    +0.245 C 
ATOM     14  O   UNL     1      -0.295   1.332  -2.212  0.00  0.00    -0.270 OA
ATOM     15  N   UNL     1       0.396  -0.442  -3.356  0.00  0.00    -0.325 N 
ATOM     16  H   UNL     1       0.560  -1.397  -3.377  0.00  0.00    +0.145 HD
ATOM     17  H   UNL     1       0.582   0.100  -4.139  0.00  0.00    +0.145 HD
ENDBRANCH  11  13
BRANCH  10  18
ATOM     18  O   UNL     1      -1.108   1.243   0.149  0.00  0.00    -0.506 OA
ATOM     19  H   UNL     1      -0.352   1.765   0.452  0.00  0.00    +0.292 HD
ENDBRANCH  10  18
ENDBRANCH   4   7
BRANCH   1  21
ATOM     20  C   UNL     1       2.344  -8.977   2.135  0.00  0.00    +0.029 C 
ATOM     21  C   UNL     1       0.913  -8.566   1.780  0.00  0.00    +0.141 C 
ENDBRANCH   1  21
BRANCH   3  22
ATOM     22  N   UNL     1       0.302  -4.261   2.390  0.00  0.00    -0.169 NA
ATOM     23  C   UNL     1       1.055  -4.739   3.338  0.00  0.00    +0.179 C 
BRANCH  23  24
ATOM     24  C   UNL     1       1.089  -4.081   4.648  0.00  0.00    +0.148 A 
ATOM     25  C   UNL     1       1.827  -4.478   5.726  0.00  0.00    +0.051 A 
ATOM     26  C   UNL     1       1.559  -3.562   6.759  0.00  0.00    +0.045 A 
ATOM     27  C   UNL     1       0.676  -2.665   6.275  0.00  0.00    +0.103 A 
ATOM     28  O   UNL     1       0.395  -2.981   5.000  0.00  0.00    -0.459 OA
ATOM     29  C   UNL     1       0.101  -1.500   7.038  0.00  0.00    +0.086 C 
ENDBRANCH  23  24
ENDBRANCH   3  22
TORSDOF 6
