REMARK  Name = ZINC41251130
REMARK  9 active torsions:
REMARK  status: ('A' for Active; 'I' for Inactive)
REMARK    1  A    between atoms: C_1  and  S_2
REMARK    2  A    between atoms: S_2  and  C_3
REMARK    3  A    between atoms: C_6  and  C_9
REMARK    4  A    between atoms: C_9  and  N_10
REMARK    5  A    between atoms: C_11  and  C_13
REMARK    6  A    between atoms: N_16  and  C_19
REMARK    7  A    between atoms: C_19  and  C_20
REMARK    8  A    between atoms: C_22  and  C_25
REMARK    9  A    between atoms: C_28  and  C_31
REMARK                            x       y       z     vdW  Elec       q    Type
REMARK                         _______ _______ _______ _____ _____    ______ ____
ROOT
ATOM      1  C   UNL     1       6.666  -1.918  -5.563  0.00  0.00    +0.071 C 
ATOM      2  C   UNL     1       6.914  -3.020  -4.529  0.00  0.00    -0.006 C 
ATOM      3  C   UNL     1       8.421  -3.180  -4.314  0.00  0.00    -0.077 C 
ATOM      4  N   UNL     1       9.064  -3.543  -5.582  0.00  0.00    +0.386 N 
ATOM      5  C   UNL     1       8.892  -2.459  -6.557  0.00  0.00    -0.077 C 
ATOM      6  C   UNL     1       7.403  -2.271  -6.858  0.00  0.00    -0.006 C 
ATOM      7  H   UNL     1       8.644  -4.387  -5.942  0.00  0.00    -0.081 HD
ENDROOT
BRANCH   1   9
ATOM      8  N   UNL     1       4.338  -1.504  -4.838  0.00  0.00    -0.311 N 
ATOM      9  C   UNL     1       5.189  -1.808  -5.838  0.00  0.00    +0.216 C 
ATOM     10  O   UNL     1       4.765  -1.994  -6.960  0.00  0.00    -0.276 OA
ATOM     11  H   UNL     1       4.677  -1.355  -3.942  0.00  0.00    +0.149 HD
BRANCH   8  12
ATOM     12  C   UNL     1       2.901  -1.397  -5.106  0.00  0.00    +0.139 C 
BRANCH  12  16
ATOM     13  C   UNL     1       0.848  -0.411  -1.489  0.00  0.00    +0.008 A 
ATOM     14  C   UNL     1       1.315   0.599  -2.322  0.00  0.00    +0.015 A 
ATOM     15  C   UNL     1       1.978   0.276  -3.490  0.00  0.00    +0.006 A 
ATOM     16  C   UNL     1       2.178  -1.049  -3.830  0.00  0.00    -0.030 A 
ATOM     17  C   UNL     1       1.714  -2.056  -3.004  0.00  0.00    +0.006 A 
ATOM     18  C   UNL     1       1.056  -1.742  -1.831  0.00  0.00    +0.015 A 
BRANCH  13  20
ATOM     19  C   UNL     1      -0.022   1.810   0.012  0.00  0.00    +0.090 C 
ATOM     20  S   UNL     1       0.002  -0.004   0.002  0.00  0.00    -0.129 S 
ENDBRANCH  13  20
ENDBRANCH  12  16
ENDBRANCH   8  12
ENDBRANCH   1   9
BRANCH   4  21
ATOM     21  C   UNL     1      10.497  -3.772  -5.355  0.00  0.00    +0.022 C 
BRANCH  21  22
ATOM     22  C   UNL     1      11.136  -4.263  -6.628  0.00  0.00    +0.211 A 
ATOM     23  N   UNL     1      11.667  -3.514  -7.552  0.00  0.00    -0.193 NA
ATOM     24  C   UNL     1      12.144  -4.281  -8.549  0.00  0.00    +0.202 A 
ATOM     25  N   UNL     1      11.914  -5.537  -8.258  0.00  0.00    -0.056 NA
ATOM     26  O   UNL     1      11.258  -5.545  -6.999  0.00  0.00    -0.340 OA
BRANCH  24  27
ATOM     27  C   UNL     1      12.818  -3.785  -9.775  0.00  0.00    +0.022 A 
ATOM     28  C   UNL     1      13.007  -2.418  -9.965  0.00  0.00    +0.012 A 
ATOM     29  C   UNL     1      13.634  -1.963 -11.108  0.00  0.00    +0.013 A 
ATOM     30  C   UNL     1      14.074  -2.862 -12.063  0.00  0.00    +0.055 A 
ATOM     31  C   UNL     1      13.889  -4.220 -11.879  0.00  0.00    +0.013 A 
ATOM     32  C   UNL     1      13.269  -4.686 -10.738  0.00  0.00    +0.012 A 
BRANCH  30  33
ATOM     33  C   UNL     1      14.758  -2.359 -13.308  0.00  0.00    +0.417 C 
ATOM     34  F   UNL     1      16.136  -2.279 -13.084  0.00  0.00    -0.166 F 
ATOM     35  F   UNL     1      14.507  -3.240 -14.366  0.00  0.00    -0.166 F 
ATOM     36  F   UNL     1      14.264  -1.090 -13.631  0.00  0.00    -0.166 F 
ENDBRANCH  30  33
ENDBRANCH  24  27
ENDBRANCH  21  22
ENDBRANCH   4  21
TORSDOF 8
