REMARK  Name = ZINC12886936
REMARK  7 active torsions:
REMARK  status: ('A' for Active; 'I' for Inactive)
REMARK    1  A    between atoms: C_1  and  C_2
REMARK    2  A    between atoms: C_2  and  C_3
REMARK    3  A    between atoms: C_3  and  C_5
REMARK    4  A    between atoms: C_3  and  N_6
REMARK    5  A    between atoms: C_11  and  C_28
REMARK    6  A    between atoms: C_20  and  C_27
REMARK    7  A    between atoms: C_28  and  C_29
REMARK                            x       y       z     vdW  Elec       q    Type
REMARK                         _______ _______ _______ _____ _____    ______ ____
ROOT
ATOM      1  N   UNL     1       6.712  -0.525  -3.078  0.00  0.00    -0.239 N 
ATOM      2  C   UNL     1       6.161  -0.546  -1.859  0.00  0.00    +0.224 C 
ATOM      3  O   UNL     1       6.057  -1.527  -1.154  0.00  0.00    -0.275 OA
ATOM      4  C   UNL     1       5.688   0.844  -1.498  0.00  0.00    +0.073 C 
ATOM      5  C   UNL     1       4.145   0.862  -1.469  0.00  0.00    -0.053 C 
ATOM      6  C   UNL     1       4.732   2.145  -3.331  0.00  0.00    +0.050 C 
ATOM      7  C   UNL     1       6.073   1.688  -2.745  0.00  0.00    +0.088 C 
ATOM      8  C   UNL     1       6.716   0.676  -3.666  0.00  0.00    +0.225 C 
ATOM      9  O   UNL     1       7.165   0.917  -4.766  0.00  0.00    -0.275 OA
ATOM     10  C   UNL     1       4.823   3.528  -3.911  0.00  0.00    -0.027 A 
ATOM     11  C   UNL     1       5.157   4.756  -3.386  0.00  0.00    +0.008 A 
ATOM     12  C   UNL     1       5.149   5.880  -4.193  0.00  0.00    -0.050 A 
ATOM     13  C   UNL     1       4.806   5.766  -5.528  0.00  0.00    +0.005 A 
ATOM     14  C   UNL     1       4.472   4.537  -6.059  0.00  0.00    +0.024 A 
ATOM     15  C   UNL     1       4.477   3.401  -5.253  0.00  0.00    +0.036 A 
ATOM     16  N   UNL     1       4.181   2.069  -5.552  0.00  0.00    -0.286 N 
ATOM     17  C   UNL     1       4.307   1.267  -4.477  0.00  0.00    +0.211 C 
ATOM     18  O   UNL     1       4.115   0.070  -4.440  0.00  0.00    -0.277 OA
ATOM     19  C   UNL     1       5.513   7.225  -3.619  0.00  0.00    +0.044 C 
ATOM     20  H   UNL     1       3.917   1.757  -6.432  0.00  0.00    +0.155 HD
ATOM     21  N   UNL     1       3.791   2.063  -2.228  0.00  0.00    +0.394 N 
ATOM     22  H   UNL     1       3.869   2.896  -1.632  0.00  0.00    -0.083 HD
ATOM     23  H   UNL     1       2.831   1.987  -2.585  0.00  0.00    -0.083 HD
ENDROOT
BRANCH   1  24
ATOM     24  C   UNL     1       7.265  -1.722  -3.718  0.00  0.00    +0.081 C 
ATOM     25  C   UNL     1       6.165  -2.774  -3.869  0.00  0.00    +0.028 C 
BRANCH  24  27
ATOM     26  C   UNL     1       9.549  -1.282  -2.806  0.00  0.00    +0.006 C 
ATOM     27  C   UNL     1       8.395  -2.286  -2.854  0.00  0.00    +0.019 C 
ENDBRANCH  24  27
ENDBRANCH   1  24
BRANCH   5  28
ATOM     28  C   UNL     1       3.640   0.944  -0.027  0.00  0.00    +0.022 C 
BRANCH  28  29
ATOM     29  C   UNL     1       2.137   0.836  -0.014  0.00  0.00    -0.024 A 
ATOM     30  C   UNL     1       1.264   1.855   0.000  0.00  0.00    +0.087 A 
ATOM     31  N   UNL     1      -0.017   1.373   0.010  0.00  0.00    -0.360 N 
ATOM     32  H   UNL     1      -0.818   1.919   0.017  0.00  0.00    +0.165 HD
ATOM     33  C   UNL     1       0.002  -0.004   0.002  0.00  0.00    +0.047 A 
ATOM     34  C   UNL     1       1.352  -0.401  -0.013  0.00  0.00    +0.003 A 
ATOM     35  C   UNL     1       1.679  -1.758  -0.024  0.00  0.00    +0.010 A 
ATOM     36  C   UNL     1       0.685  -2.695  -0.020  0.00  0.00    +0.001 A 
ATOM     37  C   UNL     1      -0.648  -2.309  -0.005  0.00  0.00    +0.002 A 
ATOM     38  C   UNL     1      -0.993  -0.975   0.006  0.00  0.00    +0.026 A 
ENDBRANCH  28  29
ENDBRANCH   5  28
TORSDOF 4
