REMARK  Name = ZINC13122109
REMARK  8 active torsions:
REMARK  status: ('A' for Active; 'I' for Inactive)
REMARK    1  A    between atoms: C_1  and  C_2
REMARK    2  A    between atoms: C_2  and  C_3
REMARK    3  A    between atoms: C_3  and  O_4
REMARK    4  A    between atoms: O_4  and  C_5
REMARK    5  A    between atoms: C_8  and  C_12
REMARK    6  A    between atoms: C_10  and  C_11
REMARK    7  A    between atoms: C_13  and  C_23
REMARK    8  A    between atoms: N_15  and  C_17
REMARK                            x       y       z     vdW  Elec       q    Type
REMARK                         _______ _______ _______ _____ _____    ______ ____
ROOT
ATOM      1  C   UNL     1      -6.378  -4.577   0.040  0.00  0.00    +0.100 A 
ATOM      2  C   UNL     1      -7.597  -4.127   0.722  0.00  0.00    +0.022 A 
ATOM      3  C   UNL     1      -8.565  -5.077   0.458  0.00  0.00    +0.123 A 
ATOM      4  N   UNL     1      -8.008  -6.029  -0.315  0.00  0.00    -0.239 N 
ATOM      5  N   UNL     1      -6.671  -5.707  -0.566  0.00  0.00    -0.166 NA
ENDROOT
BRANCH   2   6
ATOM      6  C   UNL     1      -7.755  -2.910   1.526  0.00  0.00    +0.032 C 
ATOM      7  C   UNL     1      -8.953  -2.626   2.099  0.00  0.00    +0.078 C 
ATOM      8  C   UNL     1      -9.341  -1.474   2.932  0.00  0.00    +0.256 C 
ATOM      9  O   UNL     1      -8.547  -0.593   3.206  0.00  0.00    -0.269 OA
ATOM     10  N   UNL     1     -10.589  -1.440   3.367  0.00  0.00    -0.261 N 
ATOM     11  C   UNL     1     -11.473  -2.450   3.045  0.00  0.00    +0.158 C 
ATOM     12  N   UNL     1     -12.726  -2.571   3.387  0.00  0.00    -0.279 NA
ATOM     13  S   UNL     1     -10.485  -3.545   2.038  0.00  0.00    -0.049 S 
ATOM     14  H   UNL     1     -10.886  -0.699   3.919  0.00  0.00    +0.157 HD
ATOM     15  H   UNL     1     -13.146  -1.894   3.940  0.00  0.00    +0.189 HD
ENDBRANCH   2   6
BRANCH   1  19
ATOM     16  C   UNL     1      -2.616  -2.596   0.013  0.00  0.00    +0.123 A 
ATOM     17  C   UNL     1      -3.790  -1.854   0.023  0.00  0.00    +0.046 A 
ATOM     18  C   UNL     1      -5.011  -2.493   0.031  0.00  0.00    +0.014 A 
ATOM     19  C   UNL     1      -5.067  -3.887   0.030  0.00  0.00    +0.003 A 
ATOM     20  C   UNL     1      -3.886  -4.629   0.020  0.00  0.00    +0.017 A 
ATOM     21  C   UNL     1      -2.668  -3.983   0.006  0.00  0.00    -0.008 A 
ATOM     22  C   UNL     1      -1.392  -4.784  -0.010  0.00  0.00    +0.047 C 
BRANCH  16  23
ATOM     23  O   UNL     1      -1.414  -1.962   0.005  0.00  0.00    -0.492 OA
BRANCH  23  24
ATOM     24  C   UNL     1      -1.433  -0.534   0.013  0.00  0.00    +0.229 C 
BRANCH  24  26
ATOM     25  C   UNL     1      -0.019   1.526   0.010  0.00  0.00    +0.007 C 
ATOM     26  C   UNL     1       0.002  -0.004   0.002  0.00  0.00    +0.038 C 
ENDBRANCH  24  26
ENDBRANCH  23  24
ENDBRANCH  16  23
ENDBRANCH   1  19
BRANCH   4  27
ATOM     27  C   UNL     1      -8.668  -7.166  -0.797  0.00  0.00    +0.065 A 
ATOM     28  C   UNL     1     -10.006  -7.377  -0.489  0.00  0.00    +0.028 A 
ATOM     29  C   UNL     1     -10.654  -8.499  -0.966  0.00  0.00    +0.002 A 
ATOM     30  C   UNL     1      -9.973  -9.413  -1.749  0.00  0.00    +0.000 A 
ATOM     31  C   UNL     1      -8.640  -9.206  -2.057  0.00  0.00    +0.002 A 
ATOM     32  C   UNL     1      -7.988  -8.082  -1.588  0.00  0.00    +0.028 A 
ENDBRANCH   4  27
TORSDOF 6
