REMARK  Name = ZINC06419602
REMARK  7 active torsions:
REMARK  status: ('A' for Active; 'I' for Inactive)
REMARK    1  A    between atoms: C_1  and  C_2
REMARK    2  A    between atoms: C_2  and  C_3
REMARK    3  A    between atoms: C_2  and  C_4
REMARK    4  A    between atoms: C_11  and  N_28
REMARK    5  A    between atoms: C_12  and  C_26
REMARK    6  A    between atoms: N_20  and  C_23
REMARK    7  A    between atoms: C_23  and  C_24
REMARK                            x       y       z     vdW  Elec       q    Type
REMARK                         _______ _______ _______ _____ _____    ______ ____
ROOT
ATOM      1  C   UNL     1      -2.849   4.261   2.559  0.00  0.00    +0.047 A 
ATOM      2  C   UNL     1      -3.142   4.014   1.274  0.00  0.00    +0.061 A 
ATOM      3  C   UNL     1      -4.486   3.577   1.207  0.00  0.00    +0.245 A 
ATOM      4  N   UNL     1      -4.965   3.566   2.416  0.00  0.00    -0.135 NA
ATOM      5  N   UNL     1      -3.954   3.993   3.292  0.00  0.00    -0.278 N 
ATOM      6  H   UNL     1      -4.037   4.085   4.284  0.00  0.00    +0.189 HD
ATOM      7  O   UNL     1      -5.077   3.251   0.027  0.00  0.00    -0.421 OA
ATOM      8  C   UNL     1      -4.446   3.603  -1.110  0.00  0.00    +0.201 C 
ATOM      9  C   UNL     1      -3.163   4.023  -1.173  0.00  0.00    +0.110 C 
ATOM     10  C   UNL     1      -2.288   4.141   0.044  0.00  0.00    +0.145 C 
ATOM     11  C   UNL     1      -1.197   3.118   0.030  0.00  0.00    -0.001 A 
ATOM     12  C   UNL     1      -1.234   1.740   0.017  0.00  0.00    +0.007 A 
ATOM     13  C   UNL     1      -0.013   1.076   0.008  0.00  0.00    +0.000 A 
ATOM     14  C   UNL     1       1.181   1.768   0.000  0.00  0.00    +0.002 A 
ATOM     15  C   UNL     1       1.227   3.153   0.007  0.00  0.00    +0.024 A 
ATOM     16  C   UNL     1       0.008   3.832   0.022  0.00  0.00    +0.042 A 
ATOM     17  N   UNL     1      -0.240   5.194   0.031  0.00  0.00    -0.259 N 
ATOM     18  C   UNL     1      -1.562   5.468   0.043  0.00  0.00    +0.241 C 
ATOM     19  O   UNL     1      -2.071   6.569   0.052  0.00  0.00    -0.274 OA
ENDROOT
BRANCH   1  21
ATOM     20  C   UNL     1      -1.724   6.089   3.801  0.00  0.00    +0.014 C 
ATOM     21  C   UNL     1      -1.526   4.748   3.091  0.00  0.00    +0.031 C 
ATOM     22  C   UNL     1      -0.967   3.724   4.082  0.00  0.00    +0.014 C 
ENDBRANCH   1  21
BRANCH   8  23
ATOM     23  N   UNL     1      -5.154   3.530  -2.284  0.00  0.00    -0.328 N 
ATOM     24  H   UNL     1      -6.077   3.234  -2.276  0.00  0.00    +0.145 HD
ATOM     25  H   UNL     1      -4.731   3.776  -3.122  0.00  0.00    +0.145 HD
ENDBRANCH   8  23
BRANCH   9  26
ATOM     26  C   UNL     1      -2.614   4.369  -2.450  0.00  0.00    +0.102 C 
ATOM     27  N   UNL     1      -2.179   4.644  -3.463  0.00  0.00    -0.191 NA
ENDBRANCH   9  26
BRANCH  17  28
ATOM     28  C   UNL     1       0.808   6.217   0.027  0.00  0.00    +0.238 C 
BRANCH  28  29
ATOM     29  C   UNL     1       1.155   6.574  -1.395  0.00  0.00    +0.373 C 
ATOM     30  O   UNL     1       0.586   6.031  -2.312  0.00  0.00    -0.245 OA
ATOM     31  O   UNL     1       2.098   7.497  -1.644  0.00  0.00    -0.245 OA
ENDBRANCH  28  29
ENDBRANCH  17  28
TORSDOF 5
