REMARK  Name = ZINC54216604
REMARK  6 active torsions:
REMARK  status: ('A' for Active; 'I' for Inactive)
REMARK    1  A    between atoms: C_1  and  C_2
REMARK    2  A    between atoms: C_2  and  C_4
REMARK    3  A    between atoms: C_2  and  N_11
REMARK    4  A    between atoms: C_12  and  C_14
REMARK    5  A    between atoms: C_19  and  N_20
REMARK    6  A    between atoms: N_20  and  N_21
REMARK                            x       y       z     vdW  Elec       q    Type
REMARK                         _______ _______ _______ _____ _____    ______ ____
ROOT
ATOM      1  N   UNL     1       0.865  -1.277  -1.337  0.00  0.00    -0.305 N 
ATOM      2  C   UNL     1       2.201  -1.234  -1.159  0.00  0.00    +0.246 C 
ATOM      3  O   UNL     1       2.663  -1.142  -0.038  0.00  0.00    -0.270 OA
ATOM      4  H   UNL     1       0.497  -1.350  -2.231  0.00  0.00    +0.150 HD
ENDROOT
BRANCH   2   5
ATOM      5  C   UNL     1       3.101  -1.297  -2.325  0.00  0.00    +0.061 A 
ATOM      6  C   UNL     1       2.575  -1.321  -3.620  0.00  0.00    +0.015 A 
ATOM      7  C   UNL     1       3.421  -1.380  -4.705  0.00  0.00    +0.004 A 
ATOM      8  C   UNL     1       4.794  -1.417  -4.522  0.00  0.00    +0.040 A 
ATOM      9  C   UNL     1       5.331  -1.394  -3.250  0.00  0.00    +0.146 A 
ATOM     10  C   UNL     1       4.492  -1.329  -2.142  0.00  0.00    +0.089 A 
ATOM     11  F   UNL     1       6.670  -1.431  -3.081  0.00  0.00    -0.203 F 
BRANCH  10  12
ATOM     12  N   UNL     1       5.028  -1.301  -0.860  0.00  0.00    -0.280 N 
ATOM     13  H   UNL     1       4.598  -0.777  -0.165  0.00  0.00    +0.166 HD
BRANCH  12  14
ATOM     14  N   UNL     1       6.161  -2.010  -0.577  0.00  0.00    -0.256 NA
ATOM     15  H   UNL     1       6.914  -1.750  -1.196  0.00  0.00    +0.140 HD
ATOM     16  H   UNL     1       6.429  -1.894   0.388  0.00  0.00    +0.140 HD
ENDBRANCH  12  14
ENDBRANCH  10  12
ENDBRANCH   2   5
BRANCH   1  18
ATOM     17  C   UNL     1      -0.314   0.249   0.167  0.00  0.00    +0.033 C 
ATOM     18  C   UNL     1      -0.029  -1.214  -0.178  0.00  0.00    +0.103 C 
BRANCH  18  19
ATOM     19  C   UNL     1      -1.323  -1.914  -0.504  0.00  0.00    +0.008 A 
ATOM     20  C   UNL     1      -1.761  -1.984  -1.814  0.00  0.00    +0.008 A 
ATOM     21  C   UNL     1      -2.948  -2.626  -2.113  0.00  0.00    +0.000 A 
ATOM     22  C   UNL     1      -3.699  -3.199  -1.104  0.00  0.00    +0.003 A 
ATOM     23  C   UNL     1      -3.263  -3.131   0.206  0.00  0.00    +0.039 A 
ATOM     24  C   UNL     1      -2.072  -2.493   0.506  0.00  0.00    +0.128 A 
ATOM     25  F   UNL     1      -1.642  -2.430   1.786  0.00  0.00    -0.205 F 
ENDBRANCH  18  19
ENDBRANCH   1  18
TORSDOF 5
