REMARK  Name = ZINC39631246
REMARK  11 active torsions:
REMARK  status: ('A' for Active; 'I' for Inactive)
REMARK    1  A    between atoms: C_1  and  C_2
REMARK    2  A    between atoms: C_2  and  C_4
REMARK    3  A    between atoms: C_2  and  N_11
REMARK    4  A    between atoms: C_4  and  C_5
REMARK    5  A    between atoms: C_5  and  C_6
REMARK    6  A    between atoms: C_6  and  C_7
REMARK    7  A    between atoms: C_7  and  C_8
REMARK    8  A    between atoms: C_7  and  C_9
REMARK    9  A    between atoms: C_7  and  O_10
REMARK   10  A    between atoms: C_12  and  C_14
REMARK   11  A    between atoms: C_25  and  C_27
REMARK                            x       y       z     vdW  Elec       q    Type
REMARK                         _______ _______ _______ _____ _____    ______ ____
ROOT
ATOM      1  C   UNL     1      -3.465  -1.164  -1.134  0.00  0.00    +0.100 C 
ATOM      2  C   UNL     1      -4.361  -0.271  -0.248  0.00  0.00    +0.121 C 
ATOM      3  N   UNL     1      -4.986   0.686  -1.192  0.00  0.00    -0.296 N 
ATOM      4  C   UNL     1      -5.291  -0.128  -2.393  0.00  0.00    +0.115 C 
ATOM      5  C   UNL     1      -4.080  -1.071  -2.540  0.00  0.00    -0.004 C 
ATOM      6  C   UNL     1      -4.538  -2.449  -3.009  0.00  0.00    -0.010 C 
ATOM      7  C   UNL     1      -5.093  -2.341  -4.432  0.00  0.00    -0.082 C 
ATOM      8  N   UNL     1      -4.053  -1.817  -5.326  0.00  0.00    +0.379 N 
ATOM      9  C   UNL     1      -3.685  -0.455  -4.923  0.00  0.00    -0.082 C 
ATOM     10  C   UNL     1      -3.071  -0.483  -3.521  0.00  0.00    -0.010 C 
ATOM     11  C   UNL     1      -5.223   1.999  -1.002  0.00  0.00    +0.249 C 
ATOM     12  O   UNL     1      -5.748   2.655  -1.880  0.00  0.00    -0.270 OA
ATOM     13  H   UNL     1      -3.240  -2.412  -5.278  0.00  0.00    -0.086 HD
ATOM     14  H   UNL     1      -4.401  -1.804  -6.273  0.00  0.00    -0.086 HD
ENDROOT
BRANCH  11  15
ATOM     15  C   UNL     1      -4.845   2.640   0.274  0.00  0.00    +0.073 A 
ATOM     16  C   UNL     1      -3.579   3.213   0.424  0.00  0.00    +0.054 A 
ATOM     17  C   UNL     1      -3.234   3.811   1.619  0.00  0.00    +0.021 A 
ATOM     18  C   UNL     1      -4.136   3.844   2.667  0.00  0.00    +0.003 A 
ATOM     19  C   UNL     1      -5.391   3.279   2.526  0.00  0.00    +0.021 A 
ATOM     20  C   UNL     1      -5.754   2.682   1.335  0.00  0.00    +0.054 A 
ATOM     21 CL   UNL     1      -7.332   1.980   1.158  0.00  0.00    -0.083 Cl
ATOM     22 CL   UNL     1      -2.445   3.172  -0.889  0.00  0.00    -0.083 Cl
ENDBRANCH  11  15
BRANCH   1  24
ATOM     23  N   UNL     1      -1.022  -1.488  -1.357  0.00  0.00    -0.312 N 
ATOM     24  C   UNL     1      -2.051  -0.643  -1.145  0.00  0.00    +0.218 C 
ATOM     25  O   UNL     1      -1.839   0.537  -0.962  0.00  0.00    -0.275 OA
ATOM     26  H   UNL     1      -1.192  -2.431  -1.503  0.00  0.00    +0.149 HD
BRANCH  23  28
ATOM     27  C   UNL     1       0.886  -0.924   0.065  0.00  0.00    +0.028 C 
ATOM     28  C   UNL     1       0.352  -0.981  -1.367  0.00  0.00    +0.070 C 
BRANCH  28  29
ATOM     29  C   UNL     1       1.233  -1.911  -2.204  0.00  0.00    +0.022 C 
BRANCH  29  30
ATOM     30  C   UNL     1       0.775  -1.871  -3.663  0.00  0.00    +0.005 C 
BRANCH  30  31
ATOM     31  C   UNL     1       1.656  -2.802  -4.499  0.00  0.00    +0.034 C 
BRANCH  31  32
ATOM     32  C   UNL     1       1.199  -2.762  -5.959  0.00  0.00    +0.061 C 
ATOM     33  C   UNL     1       1.318  -1.332  -6.491  0.00  0.00    +0.041 C 
ATOM     34  C   UNL     1       2.079  -3.692  -6.795  0.00  0.00    +0.041 C 
BRANCH  32  35
ATOM     35  O   UNL     1      -0.162  -3.190  -6.044  0.00  0.00    -0.389 OA
ATOM     36  H   UNL     1      -0.312  -4.090  -5.722  0.00  0.00    +0.210 HD
ENDBRANCH  32  35
ENDBRANCH  31  32
ENDBRANCH  30  31
ENDBRANCH  29  30
ENDBRANCH  28  29
ENDBRANCH  23  28
ENDBRANCH   1  24
TORSDOF 8
