REMARK  Name = ZINC49543311
REMARK  7 active torsions:
REMARK  status: ('A' for Active; 'I' for Inactive)
REMARK    1  A    between atoms: C_1  and  C_2
REMARK    2  A    between atoms: C_2  and  C_4
REMARK    3  A    between atoms: C_2  and  O_20
REMARK    4  A    between atoms: C_9  and  N_10
REMARK    5  A    between atoms: N_10  and  C_11
REMARK    6  A    between atoms: C_11  and  C_12
REMARK    7  A    between atoms: C_17  and  O_18
REMARK                            x       y       z     vdW  Elec       q    Type
REMARK                         _______ _______ _______ _____ _____    ______ ____
ROOT
ATOM      1  N   UNL     1      -1.507  -0.315  -2.390  0.00  0.00    -0.339 N 
ATOM      2  H   UNL     1      -0.597   0.021  -2.398  0.00  0.00    +0.146 HD
ENDROOT
BRANCH   1   8
ATOM      3  C   UNL     1      -1.412  -0.526   0.013  0.00  0.00    +0.001 A 
ATOM      4  C   UNL     1      -2.015  -0.864   1.208  0.00  0.00    +0.008 A 
ATOM      5  C   UNL     1      -3.312  -1.343   1.219  0.00  0.00    +0.000 A 
ATOM      6  C   UNL     1      -4.010  -1.485   0.034  0.00  0.00    +0.002 A 
ATOM      7  C   UNL     1      -3.413  -1.148  -1.165  0.00  0.00    +0.023 A 
ATOM      8  C   UNL     1      -2.112  -0.662  -1.179  0.00  0.00    +0.033 A 
BRANCH   3  10
ATOM      9  C   UNL     1      -0.019   1.526   0.010  0.00  0.00    +0.043 C 
ATOM     10  C   UNL     1       0.002  -0.004   0.002  0.00  0.00    +0.143 C 
BRANCH  10  11
ATOM     11  O   UNL     1       0.693  -0.477   1.160  0.00  0.00    -0.387 OA
ATOM     12  H   UNL     1       1.611  -0.180   1.219  0.00  0.00    +0.210 HD
ENDBRANCH  10  11
ENDBRANCH   3  10
ENDBRANCH   1   8
BRANCH   1  13
ATOM     13  C   UNL     1      -2.247  -0.459  -3.646  0.00  0.00    +0.140 C 
BRANCH  13  14
ATOM     14  C   UNL     1      -1.375  -0.021  -4.795  0.00  0.00    +0.012 A 
ATOM     15  C   UNL     1      -1.531   1.240  -5.339  0.00  0.00    +0.009 A 
ATOM     16  C   UNL     1      -0.732   1.643  -6.393  0.00  0.00    +0.002 A 
ATOM     17  C   UNL     1       0.224   0.786  -6.906  0.00  0.00    +0.019 A 
ATOM     18  C   UNL     1       0.384  -0.476  -6.365  0.00  0.00    +0.060 A 
ATOM     19  C   UNL     1      -0.413  -0.881  -5.303  0.00  0.00    +0.135 A 
ATOM     20 BR   UNL     1       1.692  -1.647  -7.067  0.00  0.00    -0.047 Br
BRANCH  19  21
ATOM     21  O   UNL     1      -0.255  -2.119  -4.766  0.00  0.00    -0.505 OA
ATOM     22  H   UNL     1      -0.800  -2.801  -5.182  0.00  0.00    +0.292 HD
ENDBRANCH  19  21
ENDBRANCH  13  14
ENDBRANCH   1  13
TORSDOF 6
