REMARK  Name = ZINC17077452
REMARK  8 active torsions:
REMARK  status: ('A' for Active; 'I' for Inactive)
REMARK    1  A    between atoms: C_1  and  C_2
REMARK    2  A    between atoms: C_6  and  C_27
REMARK    3  A    between atoms: C_8  and  N_12
REMARK    4  A    between atoms: N_15  and  C_16
REMARK    5  A    between atoms: C_16  and  N_18
REMARK    6  A    between atoms: N_18  and  C_19
REMARK    7  A    between atoms: C_22  and  C_26
REMARK    8  A    between atoms: C_23  and  C_25
REMARK                            x       y       z     vdW  Elec       q    Type
REMARK                         _______ _______ _______ _____ _____    ______ ____
ROOT
ATOM      1  N   UNL     1      -0.700  -4.318   3.132  0.00  0.00    -0.179 NA
ATOM      2  C   UNL     1      -0.976  -5.604   3.110  0.00  0.00    +0.195 C 
ATOM      3  N   UNL     1      -1.049  -6.268   1.916  0.00  0.00    -0.371 N 
ATOM      4  N   UNL     1      -1.192  -6.281   4.287  0.00  0.00    -0.268 N 
ATOM      5  H   UNL     1      -0.467  -6.013   1.183  0.00  0.00    +0.159 HD
ATOM      6  H   UNL     1      -1.417  -7.224   4.270  0.00  0.00    +0.157 HD
ATOM      7  H   UNL     1      -1.683  -6.993   1.802  0.00  0.00    +0.159 HD
ENDROOT
BRANCH   1  15
ATOM      8  C   UNL     1       0.354   1.932  -0.255  0.00  0.00    +0.044 C 
ATOM      9  C   UNL     1       0.027   0.461  -0.269  0.00  0.00    -0.048 A 
ATOM     10  C   UNL     1      -0.230  -0.172  -1.483  0.00  0.00    +0.004 A 
ATOM     11  C   UNL     1      -0.528  -1.501  -1.532  0.00  0.00    +0.012 A 
ATOM     12  C   UNL     1      -0.577  -2.242  -0.343  0.00  0.00    +0.022 A 
ATOM     13  C   UNL     1      -0.880  -3.618  -0.333  0.00  0.00    +0.051 A 
ATOM     14  N   UNL     1      -0.907  -4.247   0.821  0.00  0.00    -0.215 NA
ATOM     15  C   UNL     1      -0.656  -3.611   1.970  0.00  0.00    +0.254 A 
ATOM     16  N   UNL     1      -0.366  -2.320   2.020  0.00  0.00    -0.211 NA
ATOM     17  C   UNL     1      -0.315  -1.598   0.895  0.00  0.00    +0.077 A 
ATOM     18  C   UNL     1      -0.007  -0.230   0.905  0.00  0.00    +0.032 A 
ATOM     19  C   UNL     1      -1.167  -4.352  -1.617  0.00  0.00    +0.066 C 
ENDBRANCH   1  15
BRANCH   4  20
ATOM     20  C   UNL     1      -1.089  -5.634   5.465  0.00  0.00    +0.141 C 
ATOM     21  S   UNL     1      -0.832  -3.941   5.492  0.00  0.00    -0.018 S 
BRANCH  20  22
ATOM     22  N   UNL     1      -1.190  -6.319   6.621  0.00  0.00    -0.297 N 
ATOM     23  H   UNL     1      -1.245  -7.287   6.608  0.00  0.00    +0.154 HD
BRANCH  22  24
ATOM     24  C   UNL     1      -1.214  -5.634   7.840  0.00  0.00    +0.033 A 
ATOM     25  C   UNL     1      -1.922  -4.444   7.956  0.00  0.00    +0.023 A 
ATOM     26  C   UNL     1      -1.944  -3.770   9.161  0.00  0.00    +0.005 A 
ATOM     27  C   UNL     1      -1.262  -4.278  10.252  0.00  0.00    -0.047 A 
ATOM     28  C   UNL     1      -0.557  -5.463  10.140  0.00  0.00    -0.046 A 
ATOM     29  C   UNL     1      -0.536  -6.145   8.939  0.00  0.00    +0.027 A 
ATOM     30  C   UNL     1       0.184  -6.013  11.331  0.00  0.00    +0.044 C 
ATOM     31  C   UNL     1      -1.288  -3.540  11.565  0.00  0.00    +0.044 C 
ENDBRANCH  22  24
ENDBRANCH  20  22
ENDBRANCH   4  20
TORSDOF 4
