REMARK  Name = ZINC01134847
REMARK  7 active torsions:
REMARK  status: ('A' for Active; 'I' for Inactive)
REMARK    1  A    between atoms: C_1  and  C_2
REMARK    2  A    between atoms: C_3  and  C_20
REMARK    3  A    between atoms: C_4  and  C_10
REMARK    4  A    between atoms: C_12  and  O_18
REMARK    5  A    between atoms: C_13  and  O_17
REMARK    6  A    between atoms: O_18  and  C_19
REMARK    7  A    between atoms: N_22  and  C_23
REMARK                            x       y       z     vdW  Elec       q    Type
REMARK                         _______ _______ _______ _____ _____    ______ ____
ROOT
ATOM      1  C   UNL     1      -3.228   8.630   0.781  0.00  0.00    +0.061 C 
ATOM      2  C   UNL     1      -1.790   8.948   0.460  0.00  0.00    +0.019 C 
ATOM      3  C   UNL     1      -0.877   7.955   0.452  0.00  0.00    +0.056 C 
ATOM      4  C   UNL     1       0.556   8.317   0.118  0.00  0.00    +0.142 C 
ATOM      5  N   UNL     1       0.837   9.734  -0.168  0.00  0.00    -0.288 N 
ATOM      6  C   UNL     1      -0.183  10.613  -0.115  0.00  0.00    +0.304 C 
ATOM      7  O   UNL     1       0.039  11.786  -0.349  0.00  0.00    -0.252 OA
ATOM      8  N   UNL     1      -1.432  10.238   0.186  0.00  0.00    -0.273 N 
ATOM      9  H   UNL     1       1.735  10.027  -0.389  0.00  0.00    +0.151 HD
ATOM     10  H   UNL     1      -2.123  10.919   0.208  0.00  0.00    +0.156 HD
ENDROOT
BRANCH   4  11
ATOM     11  C   UNL     1       1.424   7.895   1.275  0.00  0.00    -0.018 A 
ATOM     12  C   UNL     1       2.281   6.818   1.138  0.00  0.00    +0.055 A 
ATOM     13  C   UNL     1       3.081   6.430   2.200  0.00  0.00    +0.163 A 
ATOM     14  C   UNL     1       3.019   7.125   3.405  0.00  0.00    +0.172 A 
ATOM     15  C   UNL     1       2.158   8.202   3.536  0.00  0.00    +0.059 A 
ATOM     16  C   UNL     1       1.367   8.589   2.469  0.00  0.00    +0.024 A 
ATOM     17  I   UNL     1       2.062   9.252   5.346  0.00  0.00    -0.040 I 
BRANCH  14  18
ATOM     18  O   UNL     1       3.802   6.746   4.450  0.00  0.00    -0.503 OA
ATOM     19  H   UNL     1       4.666   7.180   4.472  0.00  0.00    +0.292 HD
ENDBRANCH  14  18
BRANCH  13  20
ATOM     20  O   UNL     1       3.924   5.371   2.067  0.00  0.00    -0.491 OA
ATOM     21  C   UNL     1       4.019   4.776   0.771  0.00  0.00    +0.277 C 
ENDBRANCH  13  20
ENDBRANCH   4  11
BRANCH   3  22
ATOM     22  C   UNL     1      -1.246   6.618   0.741  0.00  0.00    +0.248 C 
ATOM     23  O   UNL     1      -1.523   5.853  -0.165  0.00  0.00    -0.270 OA
ATOM     24  N   UNL     1      -1.289   6.192   2.019  0.00  0.00    -0.282 N 
ATOM     25  H   UNL     1      -1.186   6.827   2.746  0.00  0.00    +0.155 HD
BRANCH  24  26
ATOM     26  C   UNL     1      -1.483   4.836   2.299  0.00  0.00    +0.034 A 
ATOM     27  C   UNL     1      -0.914   4.270   3.432  0.00  0.00    +0.023 A 
ATOM     28  C   UNL     1      -1.107   2.930   3.704  0.00  0.00    +0.002 A 
ATOM     29  C   UNL     1      -1.867   2.152   2.850  0.00  0.00    +0.000 A 
ATOM     30  C   UNL     1      -2.431   2.711   1.718  0.00  0.00    +0.002 A 
ATOM     31  C   UNL     1      -2.246   4.051   1.443  0.00  0.00    +0.023 A 
ENDBRANCH  24  26
ENDBRANCH   3  22
TORSDOF 5
