REMARK  Name = ZINC36307511
REMARK  17 active torsions:
REMARK  status: ('A' for Active; 'I' for Inactive)
REMARK    1  A    between atoms: C_1  and  C_2
REMARK    2  A    between atoms: C_2  and  C_3
REMARK    3  A    between atoms: C_2  and  C_4
REMARK    4  A    between atoms: C_2  and  O_5
REMARK    5  A    between atoms: O_5  and  C_6
REMARK    6  A    between atoms: C_6  and  C_7
REMARK    7  A    between atoms: C_7  and  C_9
REMARK    8  A    between atoms: C_7  and  O_38
REMARK    9  A    between atoms: C_9  and  N_10
REMARK   10  A    between atoms: N_10  and  C_11
REMARK   11  A    between atoms: N_10  and  C_17
REMARK   12  A    between atoms: C_11  and  C_12
REMARK   13  A    between atoms: C_17  and  C_18
REMARK   14  A    between atoms: C_19  and  C_32
REMARK   15  A    between atoms: N_21  and  C_31
REMARK   16  A    between atoms: C_22  and  O_23
REMARK   17  A    between atoms: O_23  and  C_24
REMARK                            x       y       z     vdW  Elec       q    Type
REMARK                         _______ _______ _______ _____ _____    ______ ____
ROOT
ATOM      1  C   UNL     1       7.431  -0.728  -3.103  0.00  0.00    +0.025 A 
ATOM      2  C   UNL     1       8.016  -0.347  -1.881  0.00  0.00    +0.098 A 
ATOM      3  N   UNL     1       8.927  -1.242  -1.566  0.00  0.00    -0.168 NA
ATOM      4  N   UNL     1       8.951  -2.216  -2.572  0.00  0.00    -0.235 N 
ATOM      5  C   UNL     1       8.021  -1.883  -3.503  0.00  0.00    +0.221 A 
ATOM      6  C   UNL     1       9.824  -3.392  -2.611  0.00  0.00    +0.176 C 
ENDROOT
BRANCH   2   7
ATOM      7  C   UNL     1       7.665   0.856  -1.085  0.00  0.00    +0.002 A 
ATOM      8  C   UNL     1       7.472   2.082  -1.719  0.00  0.00    +0.010 A 
ATOM      9  C   UNL     1       7.146   3.197  -0.974  0.00  0.00    +0.001 A 
ATOM     10  C   UNL     1       7.011   3.100   0.399  0.00  0.00    +0.000 A 
ATOM     11  C   UNL     1       7.202   1.886   1.033  0.00  0.00    +0.001 A 
ATOM     12  C   UNL     1       7.523   0.763   0.298  0.00  0.00    +0.010 A 
ENDBRANCH   2   7
BRANCH   1  13
ATOM     13  C   UNL     1       6.341   0.012  -3.835  0.00  0.00    -0.035 C 
BRANCH  13  14
ATOM     14  N   UNL     1       5.038  -0.582  -3.503  0.00  0.00    +0.389 N 
ATOM     15  H   UNL     1       5.064  -1.573  -3.689  0.00  0.00    -0.081 HD
BRANCH  14  16
ATOM     16  C   UNL     1       4.746  -0.357  -2.081  0.00  0.00    -0.044 C 
BRANCH  16  17
ATOM     17  C   UNL     1       3.451  -1.081  -1.707  0.00  0.00    +0.124 C 
BRANCH  17  18
ATOM     18  O   UNL     1       3.640  -2.492  -1.835  0.00  0.00    -0.391 OA
ATOM     19  H   UNL     1       4.340  -2.848  -1.271  0.00  0.00    +0.210 HD
ENDBRANCH  17  18
BRANCH  17  20
ATOM     20  C   UNL     1       3.079  -0.746  -0.261  0.00  0.00    +0.189 C 
BRANCH  20  21
ATOM     21  O   UNL     1       1.812  -1.327   0.052  0.00  0.00    -0.372 OA
BRANCH  21  23
ATOM     22  C   UNL     1       1.240   0.436   1.602  0.00  0.00    +0.041 C 
ATOM     23  C   UNL     1       1.370  -1.073   1.387  0.00  0.00    +0.061 C 
ATOM     24  C   UNL     1       2.385  -1.644   2.378  0.00  0.00    +0.041 C 
ATOM     25  C   UNL     1       0.010  -1.739   1.609  0.00  0.00    +0.041 C 
ENDBRANCH  21  23
ENDBRANCH  20  21
ENDBRANCH  17  20
ENDBRANCH  16  17
ENDBRANCH  14  16
BRANCH  14  26
ATOM     26  C   UNL     1       3.992   0.043  -4.324  0.00  0.00    -0.003 C 
BRANCH  26  27
ATOM     27  C   UNL     1       4.221  -0.297  -5.774  0.00  0.00    +0.089 A 
ATOM     28  C   UNL     1       3.666  -1.328  -6.437  0.00  0.00    +0.042 A 
ATOM     29  C   UNL     1       4.152  -1.271  -7.763  0.00  0.00    +0.041 A 
ATOM     30  C   UNL     1       4.975  -0.209  -7.831  0.00  0.00    +0.195 A 
ATOM     31  O   UNL     1       5.008   0.381  -6.625  0.00  0.00    -0.470 OA
ENDBRANCH  26  27
ENDBRANCH  14  26
ENDBRANCH  13  14
ENDBRANCH   1  13
BRANCH   5  32
ATOM     32  O   UNL     1       7.733  -2.579  -4.633  0.00  0.00    -0.438 OA
BRANCH  32  33
ATOM     33  C   UNL     1       8.489  -2.343  -5.737  0.00  0.00    +0.131 A 
ATOM     34  C   UNL     1       9.586  -1.497  -5.660  0.00  0.00    +0.049 A 
ATOM     35  C   UNL     1      10.353  -1.258  -6.784  0.00  0.00    +0.042 A 
ATOM     36  C   UNL     1      10.027  -1.861  -7.987  0.00  0.00    +0.124 A 
ATOM     37  C   UNL     1       8.933  -2.706  -8.065  0.00  0.00    +0.042 A 
ATOM     38  C   UNL     1       8.167  -2.952  -6.942  0.00  0.00    +0.049 A 
ATOM     39  F   UNL     1      10.778  -1.626  -9.085  0.00  0.00    -0.205 F 
ENDBRANCH  32  33
ENDBRANCH   5  32
TORSDOF 13
