REMARK  Name = ZINC04965504
REMARK  6 active torsions:
REMARK  status: ('A' for Active; 'I' for Inactive)
REMARK    1  A    between atoms: C_4  and  N_12
REMARK    2  A    between atoms: N_12  and  N_13
REMARK    3  A    between atoms: C_14  and  C_15
REMARK    4  A    between atoms: C_18  and  O_23
REMARK    5  A    between atoms: C_19  and  O_22
REMARK    6  A    between atoms: C_20  and  O_21
REMARK                            x       y       z     vdW  Elec       q    Type
REMARK                         _______ _______ _______ _____ _____    ______ ____
ROOT
ATOM      1  N   UNL     1       4.856   4.193  -0.021  0.00  0.00    -0.190 NA
ATOM      2  C   UNL     1       4.883   5.492  -0.014  0.00  0.00    +0.142 C 
ENDROOT
BRANCH   2   3
ATOM      3  C   UNL     1       6.175   6.202  -0.022  0.00  0.00    +0.040 A 
ATOM      4  C   UNL     1       6.206   7.599  -0.009  0.00  0.00    +0.017 A 
ATOM      5  C   UNL     1       7.415   8.261  -0.017  0.00  0.00    +0.050 A 
ATOM      6  C   UNL     1       8.605   7.545  -0.038  0.00  0.00    +0.162 A 
ATOM      7  C   UNL     1       8.586   6.155  -0.050  0.00  0.00    +0.201 A 
ATOM      8  C   UNL     1       7.375   5.479  -0.037  0.00  0.00    +0.171 A 
BRANCH   8   9
ATOM      9  O   UNL     1       7.352   4.120  -0.043  0.00  0.00    -0.503 OA
ATOM     10  H   UNL     1       7.337   3.731  -0.928  0.00  0.00    +0.292 HD
ENDBRANCH   8   9
BRANCH   7  11
ATOM     11  O   UNL     1       9.755   5.458  -0.071  0.00  0.00    -0.501 OA
ATOM     12  H   UNL     1      10.103   5.248   0.807  0.00  0.00    +0.292 HD
ENDBRANCH   7  11
BRANCH   6  13
ATOM     13  O   UNL     1       9.793   8.207  -0.045  0.00  0.00    -0.503 OA
ATOM     14  H   UNL     1      10.147   8.390   0.836  0.00  0.00    +0.292 HD
ENDBRANCH   6  13
ENDBRANCH   2   3
BRANCH   1  15
ATOM     15  N   UNL     1       3.629   3.518  -0.013  0.00  0.00    -0.237 N 
ATOM     16  H   UNL     1       2.799   4.020  -0.003  0.00  0.00    +0.174 HD
BRANCH  15  20
ATOM     17  C   UNL     1      -0.017   1.389   0.010  0.00  0.00    +0.021 A 
ATOM     18  C   UNL     1       1.144   2.103   0.002  0.00  0.00    +0.013 A 
ATOM     19  C   UNL     1       2.372   1.428  -0.013  0.00  0.00    +0.023 A 
ATOM     20  C   UNL     1       3.600   2.134  -0.020  0.00  0.00    +0.059 A 
ATOM     21  C   UNL     1       4.773   1.393  -0.035  0.00  0.00    +0.045 A 
ATOM     22  C   UNL     1       4.711   0.007  -0.042  0.00  0.00    +0.113 A 
ATOM     23  N   UNL     1       3.566  -0.636  -0.036  0.00  0.00    -0.255 NA
ATOM     24  C   UNL     1       2.396   0.013  -0.021  0.00  0.00    +0.074 A 
ATOM     25  C   UNL     1       1.180  -0.690  -0.013  0.00  0.00    +0.048 A 
ATOM     26  C   UNL     1       0.002  -0.004   0.002  0.00  0.00    +0.043 A 
ATOM     27 CL   UNL     1      -1.497  -0.879   0.012  0.00  0.00    -0.083 Cl
ENDBRANCH  15  20
ENDBRANCH   1  15
TORSDOF 6
