REMARK  Name = ZINC00525785
REMARK  8 active torsions:
REMARK  status: ('A' for Active; 'I' for Inactive)
REMARK    1  A    between atoms: C_1  and  C_2
REMARK    2  A    between atoms: C_7  and  C_16
REMARK    3  A    between atoms: C_9  and  O_14
REMARK    4  A    between atoms: C_11  and  C_13
REMARK    5  A    between atoms: O_14  and  C_15
REMARK    6  A    between atoms: C_17  and  C_18
REMARK    7  A    between atoms: C_23  and  O_24
REMARK    8  A    between atoms: O_24  and  C_25
REMARK                            x       y       z     vdW  Elec       q    Type
REMARK                         _______ _______ _______ _____ _____    ______ ____
ROOT
ATOM      1  C   UNL     1       3.408   4.324  -0.041  0.00  0.00    +0.087 C 
ATOM      2  C   UNL     1       3.526   2.822  -0.025  0.00  0.00    +0.114 A 
ATOM      3  C   UNL     1       2.492   1.949  -0.016  0.00  0.00    +0.073 A 
ATOM      4  C   UNL     1       1.060   2.286  -0.019  0.00  0.00    +0.191 A 
ATOM      5  O   UNL     1       0.778   3.474  -0.031  0.00  0.00    -0.287 OA
ATOM      6  C   UNL     1      -0.017   1.385  -0.010  0.00  0.00    +0.059 A 
ATOM      7  C   UNL     1       0.002  -0.004   0.005  0.00  0.00    -0.018 A 
ATOM      8  C   UNL     1       1.070  -0.920   0.015  0.00  0.00    +0.054 A 
ATOM      9  C   UNL     1       2.417  -0.693   0.012  0.00  0.00    +0.132 A 
ATOM     10  C   UNL     1       3.102   0.602  -0.002  0.00  0.00    +0.068 A 
ATOM     11  C   UNL     1       4.443   0.806  -0.004  0.00  0.00    +0.113 A 
ATOM     12  O   UNL     1       4.672   2.127  -0.018  0.00  0.00    -0.464 OA
ATOM     13  C   UNL     1       5.497  -0.271   0.006  0.00  0.00    +0.087 C 
ENDROOT
BRANCH   9  14
ATOM     14  O   UNL     1       3.210  -1.790   0.022  0.00  0.00    -0.494 OA
ATOM     15  C   UNL     1       2.558  -3.062   0.035  0.00  0.00    +0.277 C 
ENDBRANCH   9  14
BRANCH   7  16
ATOM     16  C   UNL     1      -1.327  -0.627   0.012  0.00  0.00    +0.009 C 
ATOM     17  C   UNL     1      -2.429   0.140   0.129  0.00  0.00    +0.012 C 
BRANCH  17  18
ATOM     18  C   UNL     1      -3.753  -0.489   0.249  0.00  0.00    +0.017 A 
ATOM     19  C   UNL     1      -3.873  -1.883   0.243  0.00  0.00    +0.011 A 
ATOM     20  C   UNL     1      -5.117  -2.465   0.357  0.00  0.00    +0.001 A 
ATOM     21  C   UNL     1      -6.250  -1.677   0.478  0.00  0.00    +0.004 A 
ATOM     22  C   UNL     1      -6.146  -0.299   0.485  0.00  0.00    +0.046 A 
ATOM     23  C   UNL     1      -4.903   0.305   0.377  0.00  0.00    +0.127 A 
BRANCH  23  24
ATOM     24  O   UNL     1      -4.799   1.658   0.390  0.00  0.00    -0.495 OA
ATOM     25  C   UNL     1      -6.013   2.401   0.523  0.00  0.00    +0.277 C 
ENDBRANCH  23  24
ENDBRANCH  17  18
ENDBRANCH   7  16
TORSDOF 4
