REMARK  Name = ZINC49723402
REMARK  7 active torsions:
REMARK  status: ('A' for Active; 'I' for Inactive)
REMARK    1  A    between atoms: C_1  and  C_2
REMARK    2  A    between atoms: C_6  and  C_8
REMARK    3  A    between atoms: C_14  and  C_15
REMARK    4  A    between atoms: C_17  and  C_28
REMARK    5  A    between atoms: N_18  and  C_21
REMARK    6  A    between atoms: C_19  and  C_20
REMARK    7  A    between atoms: C_21  and  C_22
REMARK                            x       y       z     vdW  Elec       q    Type
REMARK                         _______ _______ _______ _____ _____    ______ ____
ROOT
ATOM      1  C   UNL     1       1.235  -3.241   2.449  0.00  0.00    +0.130 C 
ATOM      2  N   UNL     1       1.143  -4.515   2.744  0.00  0.00    -0.164 NA
ATOM      3  N   UNL     1       0.755  -4.927   4.001  0.00  0.00    -0.153 N 
ATOM      4  C   UNL     1       0.712  -6.263   4.454  0.00  0.00    +0.132 C 
ATOM      5  N   UNL     1       1.413  -7.226   3.916  0.00  0.00    -0.385 N 
ATOM      6  C   UNL     1      -0.208  -6.467   5.607  0.00  0.00    +0.079 C 
ATOM      7  C   UNL     1      -0.907  -7.644   5.779  0.00  0.00    +0.026 C 
ATOM      8  C   UNL     1      -0.334  -5.338   6.559  0.00  0.00    +0.273 C 
ATOM      9  O   UNL     1      -0.665  -5.528   7.718  0.00  0.00    -0.268 OA
ATOM     10  N   UNL     1      -0.071  -4.095   6.108  0.00  0.00    -0.152 NA
ATOM     11  C   UNL     1       0.405  -3.940   4.899  0.00  0.00    +0.181 C 
ATOM     12  S   UNL     1       0.753  -2.461   3.984  0.00  0.00    -0.033 S 
ATOM     13  H   UNL     1       1.932  -7.059   3.114  0.00  0.00    +0.157 HD
ATOM     14  H   UNL     1       1.413  -8.109   4.317  0.00  0.00    +0.157 HD
ENDROOT
BRANCH   1  20
ATOM     15  C   UNL     1       2.102   0.865  -0.253  0.00  0.00    +0.044 C 
ATOM     16  C   UNL     1       2.059  -0.637  -0.130  0.00  0.00    -0.050 A 
ATOM     17  C   UNL     1       2.399  -1.428  -1.213  0.00  0.00    +0.003 A 
ATOM     18  C   UNL     1       2.361  -2.807  -1.108  0.00  0.00    +0.001 A 
ATOM     19  C   UNL     1       1.984  -3.402   0.079  0.00  0.00    +0.010 A 
ATOM     20  C   UNL     1       1.640  -2.609   1.174  0.00  0.00    +0.009 A 
ATOM     21  C   UNL     1       1.685  -1.219   1.063  0.00  0.00    +0.014 A 
ENDBRANCH   1  20
BRANCH   7  22
ATOM     22  C   UNL     1      -0.894  -8.662   4.730  0.00  0.00    -0.003 A 
ATOM     23  C   UNL     1      -0.804  -8.438   3.281  0.00  0.00    +0.030 A 
ATOM     24  C   UNL     1      -0.827  -9.653   2.708  0.00  0.00    +0.017 A 
ATOM     25  N   UNL     1      -0.923 -10.607   3.681  0.00  0.00    -0.343 N 
ATOM     26  C   UNL     1      -0.959 -10.035   4.898  0.00  0.00    +0.023 A 
ATOM     27  C   UNL     1      -1.057 -10.761   6.215  0.00  0.00    +0.064 C 
ATOM     28  C   UNL     1      -0.757  -9.922   1.227  0.00  0.00    +0.063 C 
BRANCH  25  29
ATOM     29  C   UNL     1      -0.973 -12.050   3.434  0.00  0.00    +0.156 C 
BRANCH  29  30
ATOM     30  C   UNL     1       0.427 -12.608   3.428  0.00  0.00    -0.028 A 
ATOM     31  C   UNL     1       1.145 -12.660   2.248  0.00  0.00    +0.005 A 
ATOM     32  C   UNL     1       2.430 -13.172   2.243  0.00  0.00    +0.000 A 
ATOM     33  C   UNL     1       2.995 -13.631   3.418  0.00  0.00    +0.000 A 
ATOM     34  C   UNL     1       2.277 -13.579   4.598  0.00  0.00    +0.000 A 
ATOM     35  C   UNL     1       0.994 -13.063   4.604  0.00  0.00    +0.005 A 
ENDBRANCH  29  30
ENDBRANCH  25  29
ENDBRANCH   7  22
TORSDOF 4
