REMARK  Name = ZINC21785595
REMARK  3 active torsions:
REMARK  status: ('A' for Active; 'I' for Inactive)
REMARK    1  A    between atoms: N_11  and  C_14
REMARK    2  A    between atoms: C_14  and  C_15
REMARK    3  A    between atoms: N_20  and  C_21
REMARK                            x       y       z     vdW  Elec       q    Type
REMARK                         _______ _______ _______ _____ _____    ______ ____
ROOT
ATOM      1  C   UNL     1      -1.619  -1.131  -1.409  0.00  0.00    +0.238 C 
ATOM      2  O   UNL     1      -0.985  -0.672  -2.334  0.00  0.00    -0.274 OA
ATOM      3  N   UNL     1      -2.704  -1.895  -1.649  0.00  0.00    -0.239 N 
ATOM      4  C   UNL     1      -3.083  -2.147  -2.917  0.00  0.00    +0.306 C 
ATOM      5  O   UNL     1      -2.447  -1.686  -3.845  0.00  0.00    -0.252 OA
ATOM      6  N   UNL     1      -4.168  -2.910  -3.156  0.00  0.00    -0.294 N 
ATOM      7  H   UNL     1      -3.279  -2.312  -0.809  0.00  0.00    +0.159 HD
ATOM      8  H   UNL     1      -4.743  -3.327  -2.317  0.00  0.00    +0.151 HD
ENDROOT
BRANCH   6   9
ATOM      9  C   UNL     1      -4.580  -3.185  -4.535  0.00  0.00    +0.037 C 
ATOM     10  C   UNL     1      -4.892  -1.866  -5.246  0.00  0.00    +0.029 C 
ATOM     11  C   UNL     1      -5.322  -2.153  -6.686  0.00  0.00    -0.008 C 
ATOM     12  C   UNL     1      -6.572  -3.035  -6.678  0.00  0.00    +0.007 C 
ATOM     13  C   UNL     1      -6.261  -4.354  -5.967  0.00  0.00    -0.008 C 
ATOM     14  C   UNL     1      -5.830  -4.067  -4.527  0.00  0.00    +0.029 C 
ATOM     15  C   UNL     1      -5.131  -5.076  -6.704  0.00  0.00    +0.007 C 
ATOM     16  C   UNL     1      -3.881  -4.193  -6.711  0.00  0.00    -0.008 C 
ATOM     17  C   UNL     1      -4.192  -2.875  -7.423  0.00  0.00    +0.007 C 
ATOM     18  C   UNL     1      -3.450  -3.907  -5.271  0.00  0.00    +0.029 C 
ENDBRANCH   6   9
BRANCH   1  19
ATOM     19  C   UNL     1      -1.194  -0.849   0.009  0.00  0.00    +0.213 C 
BRANCH  19  30
ATOM     20  C   UNL     1       3.571   0.809  -0.028  0.00  0.00    +0.035 A 
ATOM     21  C   UNL     1       2.191   0.679  -0.015  0.00  0.00    +0.051 A 
ATOM     22  C   UNL     1       1.378   1.831  -0.001  0.00  0.00    +0.051 A 
ATOM     23  C   UNL     1       1.962   3.088  -0.001  0.00  0.00    +0.035 A 
ATOM     24  C   UNL     1       3.344   3.204  -0.013  0.00  0.00    +0.060 A 
ATOM     25  C   UNL     1       4.143   2.073  -0.027  0.00  0.00    +0.060 A 
ATOM     26 CL   UNL     1       5.871   2.238  -0.043  0.00  0.00    -0.082 Cl
ATOM     27 CL   UNL     1       4.076   4.778  -0.013  0.00  0.00    -0.082 Cl
ATOM     28  C   UNL     1      -0.016   1.341   0.009  0.00  0.00    +0.254 C 
ATOM     29  O   UNL     1      -1.012   2.036   0.018  0.00  0.00    -0.270 OA
ATOM     30  N   UNL     1       0.002  -0.004   0.002  0.00  0.00    -0.225 N 
ATOM     31  C   UNL     1       1.264  -0.471  -0.013  0.00  0.00    +0.254 C 
ATOM     32  O   UNL     1       1.586  -1.642  -0.022  0.00  0.00    -0.270 OA
ENDBRANCH  19  30
ENDBRANCH   1  19
TORSDOF 3
