REMARK  Name = ZINC00666988
REMARK  15 active torsions:
REMARK  status: ('A' for Active; 'I' for Inactive)
REMARK    1  A    between atoms: C_1  and  C_2
REMARK    2  A    between atoms: C_2  and  C_3
REMARK    3  A    between atoms: C_3  and  C_5
REMARK    4  A    between atoms: C_3  and  O_6
REMARK    5  A    between atoms: O_6  and  C_7
REMARK    6  A    between atoms: C_7  and  C_9
REMARK    7  A    between atoms: C_10  and  C_40
REMARK    8  A    between atoms: C_14  and  C_16
REMARK    9  A    between atoms: C_19  and  O_24
REMARK   10  A    between atoms: C_21  and  O_22
REMARK   11  A    between atoms: O_22  and  C_23
REMARK   12  A    between atoms: O_24  and  C_25
REMARK   13  A    between atoms: C_29  and  C_32
REMARK   14  A    between atoms: C_35  and  O_38
REMARK   15  A    between atoms: O_38  and  C_39
REMARK                            x       y       z     vdW  Elec       q    Type
REMARK                         _______ _______ _______ _____ _____    ______ ____
ROOT
ATOM      1  C   UNL     1       0.073   1.640   0.037  0.00  0.00    +0.065 C 
ATOM      2  C   UNL     1       1.291   2.206   0.001  0.00  0.00    +0.016 C 
ATOM      3  N   UNL     1       2.414   1.428  -0.050  0.00  0.00    -0.321 N 
ATOM      4  C   UNL     1       2.342   0.124  -0.463  0.00  0.00    +0.016 C 
ATOM      5  C   UNL     1       1.164  -0.535  -0.444  0.00  0.00    +0.024 C 
ATOM      6  C   UNL     1      -0.094   0.148   0.030  0.00  0.00    +0.096 C 
ATOM      7  C   UNL     1       1.075  -1.874  -0.864  0.00  0.00    +0.162 C 
ATOM      8  O   UNL     1      -0.003  -2.434  -0.850  0.00  0.00    -0.292 OA
ATOM      9  C   UNL     1       2.292  -2.625  -1.332  0.00  0.00    +0.088 C 
ATOM     10  C   UNL     1       3.530  -2.050  -0.637  0.00  0.00    +0.032 C 
ATOM     11  C   UNL     1       3.604  -0.551  -0.939  0.00  0.00    +0.059 C 
ATOM     12  C   UNL     1       1.420   3.707   0.018  0.00  0.00    +0.061 C 
ATOM     13  H   UNL     1       3.388   1.848   0.241  0.00  0.00    +0.152 HD
ENDROOT
BRANCH   6  14
ATOM     14  C   UNL     1      -0.414  -0.320   1.427  0.00  0.00    +0.007 A 
ATOM     15  C   UNL     1       0.480  -0.088   2.455  0.00  0.00    +0.012 A 
ATOM     16  C   UNL     1       0.186  -0.511   3.737  0.00  0.00    +0.046 A 
ATOM     17  C   UNL     1      -1.002  -1.180   3.993  0.00  0.00    +0.124 A 
ATOM     18  C   UNL     1      -1.898  -1.418   2.963  0.00  0.00    +0.091 A 
ATOM     19  C   UNL     1      -1.604  -0.988   1.678  0.00  0.00    +0.128 A 
BRANCH  19  20
ATOM     20  O   UNL     1      -2.480  -1.221   0.665  0.00  0.00    -0.495 OA
ATOM     21  C   UNL     1      -3.685  -1.915   0.997  0.00  0.00    +0.277 C 
ENDBRANCH  19  20
BRANCH  17  22
ATOM     22  O   UNL     1      -1.288  -1.601   5.253  0.00  0.00    -0.495 OA
ATOM     23  C   UNL     1      -0.319  -1.320   6.266  0.00  0.00    +0.277 C 
ENDBRANCH  17  22
ENDBRANCH   6  14
BRANCH  10  24
ATOM     24  C   UNL     1       4.768  -2.732  -1.160  0.00  0.00    -0.043 A 
ATOM     25  C   UNL     1       5.075  -2.667  -2.506  0.00  0.00    +0.007 A 
ATOM     26  C   UNL     1       6.212  -3.287  -2.987  0.00  0.00    +0.046 A 
ATOM     27  C   UNL     1       7.039  -3.986  -2.120  0.00  0.00    +0.120 A 
ATOM     28  C   UNL     1       6.725  -4.056  -0.770  0.00  0.00    +0.046 A 
ATOM     29  C   UNL     1       5.590  -3.429  -0.293  0.00  0.00    +0.007 A 
BRANCH  27  30
ATOM     30  O   UNL     1       8.155  -4.602  -2.592  0.00  0.00    -0.495 OA
ATOM     31  C   UNL     1       8.416  -4.489  -3.992  0.00  0.00    +0.277 C 
ENDBRANCH  27  30
ENDBRANCH  10  24
BRANCH   1  32
ATOM     32  C   UNL     1      -1.075   2.466   0.075  0.00  0.00    +0.338 C 
ATOM     33  O   UNL     1      -0.953   3.672   0.183  0.00  0.00    -0.245 OA
BRANCH  32  34
ATOM     34  O   UNL     1      -2.305   1.916  -0.008  0.00  0.00    -0.458 OA
BRANCH  34  35
ATOM     35  C   UNL     1      -3.419   2.810   0.037  0.00  0.00    +0.173 C 
ATOM     36  C   UNL     1      -3.775   3.253  -1.383  0.00  0.00    +0.052 C 
BRANCH  35  38
ATOM     37  C   UNL     1      -4.307   1.766   2.126  0.00  0.00    +0.007 C 
ATOM     38  C   UNL     1      -4.619   2.098   0.665  0.00  0.00    +0.041 C 
ENDBRANCH  35  38
ENDBRANCH  34  35
ENDBRANCH  32  34
ENDBRANCH   1  32
TORSDOF 9
