REMARK  Name = ZINC53045313
REMARK  5 active torsions:
REMARK  status: ('A' for Active; 'I' for Inactive)
REMARK    1  A    between atoms: C_8  and  N_13
REMARK    2  A    between atoms: C_9  and  N_12
REMARK    3  A    between atoms: N_13  and  C_14
REMARK    4  A    between atoms: C_14  and  C_19
REMARK    5  A    between atoms: C_19  and  O_20
REMARK                            x       y       z     vdW  Elec       q    Type
REMARK                         _______ _______ _______ _____ _____    ______ ____
ROOT
ATOM      1  C   UNL     1      -0.840   0.595  -0.549  0.00  0.00    +0.017 A 
ATOM      2  C   UNL     1      -0.310  -0.221  -1.502  0.00  0.00    +0.027 A 
ATOM      3  C   UNL     1       1.081  -0.249  -1.703  0.00  0.00    +0.048 A 
ATOM      4  C   UNL     1       1.907   0.580  -0.905  0.00  0.00    +0.022 A 
ATOM      5  C   UNL     1       1.329   1.409   0.067  0.00  0.00    +0.027 A 
ATOM      6  C   UNL     1      -0.024   1.409   0.234  0.00  0.00    +0.019 A 
ATOM      7 BR   UNL     1      -0.803   2.526   1.545  0.00  0.00    -0.050 Br
ATOM      8  C   UNL     1       3.305   0.552  -1.109  0.00  0.00    +0.059 A 
ATOM      9  C   UNL     1       3.803  -0.296  -2.092  0.00  0.00    +0.063 A 
ATOM     10  C   UNL     1       2.922  -1.080  -2.834  0.00  0.00    +0.107 A 
ATOM     11  N   UNL     1       1.625  -1.041  -2.633  0.00  0.00    -0.359 N 
ATOM     12  H   UNL     1       1.046  -1.603  -3.171  0.00  0.00    +0.165 HD
ENDROOT
BRANCH   9  13
ATOM     13  N   UNL     1       5.183  -0.362  -2.335  0.00  0.00    -0.355 N 
ATOM     14  H   UNL     1       5.771  -0.771  -1.681  0.00  0.00    +0.142 HD
ATOM     15  H   UNL     1       5.548   0.001  -3.157  0.00  0.00    +0.142 HD
ENDBRANCH   9  13
BRANCH   8  16
ATOM     16  N   UNL     1       4.157   1.348  -0.349  0.00  0.00    -0.334 N 
ATOM     17  H   UNL     1       4.431   2.218  -0.680  0.00  0.00    +0.147 HD
BRANCH  16  18
ATOM     18  C   UNL     1       4.641   0.872   0.949  0.00  0.00    +0.055 C 
ATOM     19  C   UNL     1       4.766  -0.671   0.949  0.00  0.00    +0.028 C 
ATOM     20  C   UNL     1       3.309  -1.133   1.200  0.00  0.00    +0.002 C 
ATOM     21  C   UNL     1       2.757  -0.107   2.212  0.00  0.00    +0.002 C 
ATOM     22  C   UNL     1       3.604   1.167   2.053  0.00  0.00    +0.028 C 
BRANCH  18  23
ATOM     23  C   UNL     1       5.984   1.521   1.290  0.00  0.00    +0.181 C 
BRANCH  23  24
ATOM     24  O   UNL     1       6.433   2.299   0.177  0.00  0.00    -0.393 OA
ATOM     25  H   UNL     1       7.311   2.686   0.297  0.00  0.00    +0.209 HD
ENDBRANCH  23  24
ENDBRANCH  18  23
ENDBRANCH  16  18
ENDBRANCH   8  16
TORSDOF 5
