REMARK  Name = ZINC66276854
REMARK  9 active torsions:
REMARK  status: ('A' for Active; 'I' for Inactive)
REMARK    1  A    between atoms: C_4  and  C_7
REMARK    2  A    between atoms: C_7  and  N_8
REMARK    3  A    between atoms: N_8  and  C_9
REMARK    4  A    between atoms: C_9  and  N_11
REMARK    5  A    between atoms: N_11  and  N_12
REMARK    6  A    between atoms: C_13  and  C_15
REMARK    7  A    between atoms: C_15  and  C_16
REMARK    8  A    between atoms: C_16  and  N_17
REMARK    9  A    between atoms: N_20  and  C_21
REMARK                            x       y       z     vdW  Elec       q    Type
REMARK                         _______ _______ _______ _____ _____    ______ ____
ROOT
ATOM      1  N   UNL     1       4.942  -1.369   3.909  0.00  0.00    -0.235 N 
ATOM      2  C   UNL     1       5.343  -1.602   5.175  0.00  0.00    +0.231 C 
ATOM      3  O   UNL     1       6.382  -2.193   5.382  0.00  0.00    -0.274 OA
ATOM      4  H   UNL     1       4.111  -0.897   3.743  0.00  0.00    +0.173 HD
ENDROOT
BRANCH   1   5
ATOM      5  N   UNL     1       5.724  -1.810   2.834  0.00  0.00    -0.246 N 
ATOM      6  H   UNL     1       6.555  -2.283   3.000  0.00  0.00    +0.172 HD
BRANCH   5   7
ATOM      7  C   UNL     1       5.322  -1.578   1.569  0.00  0.00    +0.147 C 
ATOM      8  S   UNL     1       6.278  -2.116   0.255  0.00  0.00    -0.017 S 
BRANCH   7   9
ATOM      9  N   UNL     1       4.168  -0.921   1.338  0.00  0.00    -0.321 N 
ATOM     10  H   UNL     1       3.626  -0.616   2.083  0.00  0.00    +0.148 HD
BRANCH   9  11
ATOM     11  C   UNL     1       3.731  -0.669  -0.037  0.00  0.00    +0.138 C 
BRANCH  11  15
ATOM     12  C   UNL     1       0.017   1.441   0.010  0.00  0.00    +0.000 A 
ATOM     13  C   UNL     1       1.209   2.140   0.007  0.00  0.00    +0.000 A 
ATOM     14  C   UNL     1       2.411   1.458  -0.008  0.00  0.00    +0.005 A 
ATOM     15  C   UNL     1       2.421   0.075  -0.020  0.00  0.00    -0.030 A 
ATOM     16  C   UNL     1       1.229  -0.624  -0.016  0.00  0.00    +0.005 A 
ATOM     17  C   UNL     1       0.027   0.058  -0.002  0.00  0.00    +0.000 A 
ENDBRANCH  11  15
ENDBRANCH   9  11
ENDBRANCH   7   9
ENDBRANCH   5   7
ENDBRANCH   1   5
BRANCH   2  18
ATOM     18  C   UNL     1       4.502  -1.128   6.332  0.00  0.00    +0.116 C 
BRANCH  18  19
ATOM     19  C   UNL     1       5.179  -1.517   7.648  0.00  0.00    +0.115 C 
BRANCH  19  20
ATOM     20  N   UNL     1       4.361  -1.056   8.772  0.00  0.00    -0.299 N 
ATOM     21  C   UNL     1       4.762  -1.288  10.037  0.00  0.00    +0.304 C 
ATOM     22  O   UNL     1       5.804  -1.881  10.246  0.00  0.00    -0.253 OA
ATOM     23  N   UNL     1       4.010  -0.864  11.072  0.00  0.00    -0.269 N 
ATOM     24  H   UNL     1       3.530  -0.584   8.606  0.00  0.00    +0.150 HD
ATOM     25  H   UNL     1       3.214  -0.334  10.908  0.00  0.00    +0.156 HD
BRANCH  23  26
ATOM     26  C   UNL     1       4.376  -1.189  12.383  0.00  0.00    +0.035 A 
ATOM     27  C   UNL     1       3.398  -1.445  13.336  0.00  0.00    +0.023 A 
ATOM     28  C   UNL     1       3.763  -1.766  14.629  0.00  0.00    +0.002 A 
ATOM     29  C   UNL     1       5.100  -1.832  14.975  0.00  0.00    +0.000 A 
ATOM     30  C   UNL     1       6.076  -1.578  14.029  0.00  0.00    +0.002 A 
ATOM     31  C   UNL     1       5.718  -1.262  12.733  0.00  0.00    +0.023 A 
ENDBRANCH  23  26
ENDBRANCH  19  20
ENDBRANCH  18  19
ENDBRANCH   2  18
TORSDOF 9
