REMARK  Name = ZINC34756377
REMARK  7 active torsions:
REMARK  status: ('A' for Active; 'I' for Inactive)
REMARK    1  A    between atoms: C_1  and  C_2
REMARK    2  A    between atoms: C_5  and  C_9
REMARK    3  A    between atoms: C_6  and  C_8
REMARK    4  A    between atoms: C_9  and  S_10
REMARK    5  A    between atoms: S_10  and  C_11
REMARK    6  A    between atoms: N_27  and  C_30
REMARK    7  A    between atoms: C_30  and  C_31
REMARK                            x       y       z     vdW  Elec       q    Type
REMARK                         _______ _______ _______ _____ _____    ______ ____
ROOT
ATOM      1  C   UNL     1       1.632  -6.614  -0.030  0.00  0.00    +0.191 A 
ATOM      2  N   UNL     1       2.732  -7.359  -0.035  0.00  0.00    -0.206 NA
ATOM      3  C   UNL     1       2.685  -8.680  -0.054  0.00  0.00    +0.134 A 
ATOM      4  C   UNL     1       1.420  -9.332  -0.071  0.00  0.00    +0.051 A 
ATOM      5  C   UNL     1       1.130 -10.767  -0.095  0.00  0.00    -0.025 A 
ATOM      6  C   UNL     1      -0.168 -11.129  -0.107  0.00  0.00    -0.004 A 
ATOM      7  S   UNL     1      -1.073  -9.605  -0.086  0.00  0.00    -0.073 S 
ATOM      8  C   UNL     1       0.298  -8.480  -0.063  0.00  0.00    +0.115 A 
ATOM      9  N   UNL     1       0.426  -7.167  -0.038  0.00  0.00    -0.215 NA
ATOM     10  C   UNL     1      -0.723 -12.521  -0.133  0.00  0.00    +0.043 C 
ATOM     11  C   UNL     1       0.407 -13.485  -0.520  0.00  0.00    +0.005 C 
ATOM     12  C   UNL     1       1.641 -13.162   0.328  0.00  0.00    +0.005 C 
ATOM     13  C   UNL     1       2.233 -11.822  -0.107  0.00  0.00    +0.037 C 
ATOM     14  N   UNL     1       3.853  -9.421  -0.059  0.00  0.00    -0.318 N 
ATOM     15  C   UNL     1       4.436  -9.906  -1.320  0.00  0.00    +0.088 C 
ATOM     16  C   UNL     1       5.917  -9.518  -1.352  0.00  0.00    -0.059 C 
ATOM     17  N   UNL     1       6.581 -10.023  -0.143  0.00  0.00    +0.384 N 
ATOM     18  C   UNL     1       6.025  -9.363   1.045  0.00  0.00    -0.059 C 
ATOM     19  C   UNL     1       4.552  -9.739   1.196  0.00  0.00    +0.088 C 
ATOM     20  H   UNL     1       6.436 -11.019  -0.073  0.00  0.00    -0.081 HD
ENDROOT
BRANCH   1  21
ATOM     21  S   UNL     1       1.777  -4.858  -0.003  0.00  0.00    -0.081 S 
BRANCH  21  22
ATOM     22  C   UNL     1       0.059  -4.276   0.004  0.00  0.00    +0.112 C 
BRANCH  22  27
ATOM     23  C   UNL     1      -0.019   1.502   0.091  0.00  0.00    +0.044 C 
ATOM     24  C   UNL     1       0.002  -0.005   0.068  0.00  0.00    -0.050 A 
ATOM     25  C   UNL     1       0.013  -0.678  -1.139  0.00  0.00    +0.003 A 
ATOM     26  C   UNL     1       0.032  -2.060  -1.160  0.00  0.00    +0.005 A 
ATOM     27  C   UNL     1       0.040  -2.769   0.027  0.00  0.00    -0.034 A 
ATOM     28  C   UNL     1       0.030  -2.096   1.234  0.00  0.00    -0.046 A 
ATOM     29  C   UNL     1       0.015  -0.714   1.255  0.00  0.00    +0.007 A 
ATOM     30  C   UNL     1       0.039  -2.869   2.528  0.00  0.00    +0.044 C 
ENDBRANCH  22  27
ENDBRANCH  21  22
ENDBRANCH   1  21
BRANCH  17  31
ATOM     31  C   UNL     1       8.021  -9.746  -0.226  0.00  0.00    -0.043 C 
BRANCH  31  32
ATOM     32  C   UNL     1       8.721 -10.371   0.953  0.00  0.00    -0.064 A 
ATOM     33  C   UNL     1       8.880  -9.652   2.123  0.00  0.00    +0.002 A 
ATOM     34  C   UNL     1       9.522 -10.225   3.205  0.00  0.00    +0.000 A 
ATOM     35  C   UNL     1      10.005 -11.518   3.117  0.00  0.00    +0.000 A 
ATOM     36  C   UNL     1       9.845 -12.237   1.948  0.00  0.00    +0.000 A 
ATOM     37  C   UNL     1       9.200 -11.665   0.867  0.00  0.00    +0.002 A 
ENDBRANCH  31  32
ENDBRANCH  17  31
TORSDOF 5
