REMARK  Name = ZINC40722465
REMARK  13 active torsions:
REMARK  status: ('A' for Active; 'I' for Inactive)
REMARK    1  A    between atoms: C_1  and  O_2
REMARK    2  A    between atoms: O_2  and  C_3
REMARK    3  A    between atoms: C_7  and  C_19
REMARK    4  A    between atoms: C_8  and  O_9
REMARK    5  A    between atoms: O_9  and  C_10
REMARK    6  A    between atoms: C_10  and  C_11
REMARK    7  A    between atoms: C_19  and  N_20
REMARK    8  A    between atoms: N_20  and  C_21
REMARK    9  A    between atoms: C_21  and  C_22
REMARK   10  A    between atoms: C_22  and  C_23
REMARK   11  A    between atoms: C_23  and  S_24
REMARK   12  A    between atoms: S_24  and  C_25
REMARK   13  A    between atoms: N_29  and  C_30
REMARK                            x       y       z     vdW  Elec       q    Type
REMARK                         _______ _______ _______ _____ _____    ______ ____
ROOT
ATOM      1  C   UNL     1       1.548  -3.659  -2.400  0.00  0.00    -0.043 C 
ENDROOT
BRANCH   1   6
ATOM      2  C   UNL     1       0.397  -0.469  -0.719  0.00  0.00    +0.162 A 
ATOM      3  C   UNL     1       0.826   0.486  -1.627  0.00  0.00    +0.049 A 
ATOM      4  C   UNL     1       1.485   0.098  -2.778  0.00  0.00    +0.004 A 
ATOM      5  C   UNL     1       1.718  -1.242  -3.027  0.00  0.00    +0.005 A 
ATOM      6  C   UNL     1       1.293  -2.199  -2.125  0.00  0.00    -0.019 A 
ATOM      7  C   UNL     1       0.637  -1.817  -0.966  0.00  0.00    +0.164 A 
BRANCH   2   9
ATOM      8  C   UNL     1      -0.463   1.312   0.603  0.00  0.00    +0.277 C 
ATOM      9  O   UNL     1      -0.252  -0.089   0.415  0.00  0.00    -0.491 OA
ENDBRANCH   2   9
BRANCH   7  10
ATOM     10  O   UNL     1       0.223  -2.758  -0.075  0.00  0.00    -0.483 OA
BRANCH  10  11
ATOM     11  C   UNL     1       1.097  -3.045   1.018  0.00  0.00    +0.269 C 
BRANCH  11  12
ATOM     12  C   UNL     1       0.420  -4.001   1.965  0.00  0.00    +0.043 A 
ATOM     13  C   UNL     1      -0.353  -3.514   3.006  0.00  0.00    +0.131 A 
ATOM     14  C   UNL     1      -0.975  -4.394   3.875  0.00  0.00    +0.039 A 
ATOM     15  C   UNL     1      -0.825  -5.757   3.704  0.00  0.00    +0.004 A 
ATOM     16  C   UNL     1      -0.053  -6.243   2.666  0.00  0.00    +0.020 A 
ATOM     17  C   UNL     1       0.565  -5.365   1.792  0.00  0.00    +0.050 A 
ATOM     18 CL   UNL     1       1.528  -5.977   0.484  0.00  0.00    -0.083 Cl
ATOM     19  F   UNL     1      -0.500  -2.181   3.172  0.00  0.00    -0.205 F 
ENDBRANCH  11  12
ENDBRANCH  10  11
ENDBRANCH   7  10
ENDBRANCH   1   6
BRANCH   1  20
ATOM     20  N   UNL     1       0.314  -4.289  -2.886  0.00  0.00    +0.382 N 
ATOM     21  H   UNL     1      -0.382  -4.273  -2.155  0.00  0.00    -0.085 HD
ATOM     22  H   UNL     1      -0.030  -3.783  -3.688  0.00  0.00    -0.085 HD
BRANCH  20  23
ATOM     23  C   UNL     1       0.591  -5.680  -3.267  0.00  0.00    -0.081 C 
BRANCH  23  24
ATOM     24  C   UNL     1      -0.695  -6.337  -3.773  0.00  0.00    -0.008 C 
BRANCH  24  25
ATOM     25  C   UNL     1      -0.406  -7.786  -4.170  0.00  0.00    +0.075 C 
BRANCH  25  26
ATOM     26  S   UNL     1      -1.931  -8.564  -4.769  0.00  0.00    -0.084 S 
BRANCH  26  27
ATOM     27  C   UNL     1      -1.439 -10.205  -5.181  0.00  0.00    +0.214 A 
ATOM     28  N   UNL     1      -0.231 -10.713  -5.060  0.00  0.00    -0.101 NA
ATOM     29  N   UNL     1      -0.216 -11.937  -5.450  0.00  0.00    -0.022 NA
ATOM     30  N   UNL     1      -1.390 -12.297  -5.842  0.00  0.00    -0.038 NA
ATOM     31  N   UNL     1      -2.234 -11.185  -5.678  0.00  0.00    -0.187 N 
BRANCH  31  32
ATOM     32  C   UNL     1      -3.604 -11.106  -5.968  0.00  0.00    +0.070 A 
ATOM     33  C   UNL     1      -4.439 -10.329  -5.175  0.00  0.00    +0.028 A 
ATOM     34  C   UNL     1      -5.787 -10.252  -5.463  0.00  0.00    +0.002 A 
ATOM     35  C   UNL     1      -6.307 -10.949  -6.539  0.00  0.00    +0.000 A 
ATOM     36  C   UNL     1      -5.478 -11.723  -7.330  0.00  0.00    +0.002 A 
ATOM     37  C   UNL     1      -4.128 -11.799  -7.050  0.00  0.00    +0.028 A 
ENDBRANCH  31  32
ENDBRANCH  26  27
ENDBRANCH  25  26
ENDBRANCH  24  25
ENDBRANCH  23  24
ENDBRANCH  20  23
ENDBRANCH   1  20
TORSDOF 12
