REMARK  Name = ZINC08136087
REMARK  6 active torsions:
REMARK  status: ('A' for Active; 'I' for Inactive)
REMARK    1  A    between atoms: C_8  and  C_21
REMARK    2  A    between atoms: N_9  and  C_10
REMARK    3  A    between atoms: C_10  and  C_11
REMARK    4  A    between atoms: N_13  and  C_14
REMARK    5  A    between atoms: C_14  and  C_15
REMARK    6  A    between atoms: C_15  and  C_16
REMARK                            x       y       z     vdW  Elec       q    Type
REMARK                         _______ _______ _______ _____ _____    ______ ____
ROOT
ATOM      1  C   UNL     1       2.790  -6.043  -0.056  0.00  0.00    +0.002 A 
ATOM      2  C   UNL     1       4.097  -5.578  -0.066  0.00  0.00    +0.002 A 
ATOM      3  C   UNL     1       4.356  -4.223  -0.062  0.00  0.00    +0.028 A 
ATOM      4  C   UNL     1       3.302  -3.321  -0.046  0.00  0.00    +0.070 A 
ATOM      5  C   UNL     1       1.978  -3.792  -0.036  0.00  0.00    +0.090 A 
ATOM      6  C   UNL     1       1.739  -5.170  -0.041  0.00  0.00    +0.030 A 
ATOM      7  N   UNL     1       1.166  -2.707  -0.017  0.00  0.00    -0.226 NA
ATOM      8  C   UNL     1       1.891  -1.614  -0.024  0.00  0.00    +0.161 A 
ATOM      9  N   UNL     1       3.221  -1.941  -0.039  0.00  0.00    -0.313 N 
ENDROOT
BRANCH   8  10
ATOM     10  C   UNL     1       1.354  -0.238  -0.012  0.00  0.00    +0.113 A 
ATOM     11  C   UNL     1       0.002  -0.004   0.002  0.00  0.00    +0.078 A 
ATOM     12  S   UNL     1      -0.022   1.782   0.012  0.00  0.00    -0.083 S 
ATOM     13  C   UNL     1       1.695   2.036  -0.003  0.00  0.00    +0.156 A 
ATOM     14  N   UNL     1       2.163   0.813  -0.014  0.00  0.00    -0.244 NA
ENDBRANCH   8  10
BRANCH   9  15
ATOM     15  C   UNL     1       4.346  -1.004  -0.044  0.00  0.00    +0.219 C 
BRANCH  15  16
ATOM     16  C   UNL     1       4.746  -0.689   1.375  0.00  0.00    +0.233 C 
ATOM     17  O   UNL     1       4.149  -1.198   2.299  0.00  0.00    -0.274 OA
ATOM     18  N   UNL     1       5.766   0.157   1.616  0.00  0.00    -0.313 N 
ATOM     19  H   UNL     1       6.244   0.564   0.876  0.00  0.00    +0.149 HD
BRANCH  18  20
ATOM     20  C   UNL     1       6.154   0.463   2.995  0.00  0.00    +0.112 C 
BRANCH  20  21
ATOM     21  C   UNL     1       7.330   1.442   2.989  0.00  0.00    +0.093 C 
BRANCH  21  22
ATOM     22  C   UNL     1       7.729   1.756   4.408  0.00  0.00    +0.106 A 
ATOM     23  C   UNL     1       8.636   1.081   5.138  0.00  0.00    +0.044 A 
ATOM     24  C   UNL     1       8.696   1.713   6.401  0.00  0.00    +0.041 A 
ATOM     25  C   UNL     1       7.823   2.736   6.368  0.00  0.00    +0.195 A 
ATOM     26  O   UNL     1       7.245   2.761   5.156  0.00  0.00    -0.468 OA
ENDBRANCH  21  22
ENDBRANCH  20  21
ENDBRANCH  18  20
ENDBRANCH  15  16
ENDBRANCH   9  15
TORSDOF 6
