REMARK  Name = ZINC55306991
REMARK  8 active torsions:
REMARK  status: ('A' for Active; 'I' for Inactive)
REMARK    1  A    between atoms: C_3  and  N_21
REMARK    2  A    between atoms: C_5  and  O_7
REMARK    3  A    between atoms: O_7  and  C_8
REMARK    4  A    between atoms: C_8  and  C_9
REMARK    5  A    between atoms: C_9  and  C_11
REMARK    6  A    between atoms: C_9  and  O_20
REMARK    7  A    between atoms: C_11  and  S_12
REMARK    8  A    between atoms: S_12  and  C_13
REMARK                            x       y       z     vdW  Elec       q    Type
REMARK                         _______ _______ _______ _____ _____    ______ ____
ROOT
ATOM      1  C   UNL     1       0.183  -4.221  -0.023  0.00  0.00    +0.162 C 
ENDROOT
BRANCH   1   2
ATOM      2  O   UNL     1       0.827  -4.618   1.190  0.00  0.00    -0.388 OA
ATOM      3  H   UNL     1       0.325  -4.408   1.989  0.00  0.00    +0.210 HD
ENDBRANCH   1   2
BRANCH   1   4
ATOM      4  C   UNL     1      -0.036  -2.707  -0.012  0.00  0.00    +0.261 C 
BRANCH   4   5
ATOM      5  O   UNL     1       1.229  -2.042  -0.021  0.00  0.00    -0.489 OA
BRANCH   5  10
ATOM      6  C   UNL     1      -0.017   1.377   0.010  0.00  0.00    +0.005 A 
ATOM      7  C   UNL     1       1.169   2.087   0.002  0.00  0.00    +0.023 A 
ATOM      8  C   UNL     1       2.383   1.413  -0.013  0.00  0.00    +0.028 A 
ATOM      9  C   UNL     1       2.404   0.024  -0.021  0.00  0.00    +0.068 A 
ATOM     10  C   UNL     1       1.212  -0.684  -0.013  0.00  0.00    +0.122 A 
ATOM     11  C   UNL     1       0.002  -0.004   0.002  0.00  0.00    +0.046 A 
BRANCH   8  12
ATOM     12  N   UNL     1       3.582   2.130  -0.022  0.00  0.00    -0.358 N 
ATOM     13  H   UNL     1       3.566   3.099  -0.017  0.00  0.00    +0.142 HD
ATOM     14  H   UNL     1       4.429   1.658  -0.033  0.00  0.00    +0.142 HD
ENDBRANCH   8  12
ENDBRANCH   5  10
ENDBRANCH   4   5
ENDBRANCH   1   4
BRANCH   1  15
ATOM     15  C   UNL     1      -1.167  -4.931  -0.139  0.00  0.00    +0.109 C 
BRANCH  15  16
ATOM     16  S   UNL     1      -0.908  -6.726  -0.152  0.00  0.00    -0.123 S 
BRANCH  16  17
ATOM     17  C   UNL     1      -2.534  -7.391  -0.288  0.00  0.00    +0.009 A 
ATOM     18  C   UNL     1      -3.630  -6.540  -0.362  0.00  0.00    +0.015 A 
ATOM     19  C   UNL     1      -4.903  -7.064  -0.469  0.00  0.00    +0.002 A 
ATOM     20  C   UNL     1      -5.088  -8.434  -0.503  0.00  0.00    +0.015 A 
ATOM     21  C   UNL     1      -3.999  -9.285  -0.429  0.00  0.00    +0.019 A 
ATOM     22  C   UNL     1      -2.722  -8.767  -0.327  0.00  0.00    +0.030 A 
ATOM     23 BR   UNL     1      -4.259 -11.158  -0.475  0.00  0.00    -0.050 Br
ENDBRANCH  16  17
ENDBRANCH  15  16
ENDBRANCH   1  15
TORSDOF 8
