REMARK  Name = ZINC41804578
REMARK  8 active torsions:
REMARK  status: ('A' for Active; 'I' for Inactive)
REMARK    1  A    between atoms: C_1  and  C_2
REMARK    2  A    between atoms: C_2  and  C_3
REMARK    3  A    between atoms: C_3  and  C_4
REMARK    4  A    between atoms: C_3  and  C_11
REMARK    5  A    between atoms: C_3  and  N_14
REMARK    6  A    between atoms: N_14  and  C_15
REMARK    7  A    between atoms: C_15  and  C_16
REMARK    8  A    between atoms: C_16  and  C_17
REMARK                            x       y       z     vdW  Elec       q    Type
REMARK                         _______ _______ _______ _____ _____    ______ ____
ROOT
ATOM      1  C   UNL     1       0.767  -0.554  -1.287  0.00  0.00    +0.061 C 
ENDROOT
BRANCH   1   2
ATOM      2  C   UNL     1       0.038   0.153  -2.400  0.00  0.00    -0.048 A 
ATOM      3  C   UNL     1       0.686   1.121  -3.144  0.00  0.00    +0.004 A 
ATOM      4  C   UNL     1       0.018   1.770  -4.165  0.00  0.00    +0.015 A 
ATOM      5  C   UNL     1      -1.299   1.451  -4.443  0.00  0.00    +0.018 A 
ATOM      6  C   UNL     1      -1.947   0.482  -3.697  0.00  0.00    +0.015 A 
ATOM      7  C   UNL     1      -1.276  -0.170  -2.680  0.00  0.00    +0.004 A 
ATOM      8 BR   UNL     1      -2.214   2.338  -5.839  0.00  0.00    -0.050 Br
ENDBRANCH   1   2
BRANCH   1   9
ATOM      9  C   UNL     1       0.809  -2.033  -1.574  0.00  0.00    +0.350 C 
ATOM     10  O   UNL     1      -0.218  -2.689  -1.547  0.00  0.00    -0.248 OA
ATOM     11  O   UNL     1       1.871  -2.574  -1.834  0.00  0.00    -0.248 OA
ENDBRANCH   1   9
BRANCH   1  12
ATOM     12  N   UNL     1       2.138  -0.035  -1.192  0.00  0.00    +0.393 N 
ATOM     13  H   UNL     1       2.650  -0.282  -2.025  0.00  0.00    -0.084 HD
ATOM     14  H   UNL     1       2.111   0.969  -1.098  0.00  0.00    -0.084 HD
BRANCH  12  15
ATOM     15  C   UNL     1       2.802  -0.618  -0.018  0.00  0.00    -0.071 C 
BRANCH  15  16
ATOM     16  C   UNL     1       4.215  -0.044   0.106  0.00  0.00    +0.076 C 
BRANCH  16  17
ATOM     17  C   UNL     1       4.897  -0.643   1.309  0.00  0.00    +0.209 C 
ATOM     18  O   UNL     1       4.310  -1.449   2.000  0.00  0.00    -0.276 OA
ATOM     19  N   UNL     1       6.158  -0.282   1.618  0.00  0.00    -0.329 N 
ATOM     20  H   UNL     1       6.627   0.362   1.066  0.00  0.00    +0.145 HD
ATOM     21  H   UNL     1       6.597  -0.667   2.393  0.00  0.00    +0.145 HD
ENDBRANCH  16  17
ENDBRANCH  15  16
ENDBRANCH  12  15
ENDBRANCH   1  12
BRANCH   1  23
ATOM     22  C   UNL     1      -0.006   1.189   0.328  0.00  0.00    +0.003 C 
ATOM     23  C   UNL     1       0.037  -0.313   0.036  0.00  0.00    -0.000 C 
ENDBRANCH   1  23
TORSDOF 7
