REMARK  Name = ZINC40375162
REMARK  9 active torsions:
REMARK  status: ('A' for Active; 'I' for Inactive)
REMARK    1  A    between atoms: C_1  and  O_2
REMARK    2  A    between atoms: O_2  and  C_3
REMARK    3  A    between atoms: C_5  and  N_37
REMARK    4  A    between atoms: C_8  and  N_9
REMARK    5  A    between atoms: C_13  and  N_17
REMARK    6  A    between atoms: N_17  and  C_18
REMARK    7  A    between atoms: C_18  and  C_19
REMARK    8  A    between atoms: C_19  and  C_21
REMARK    9  A    between atoms: C_19  and  C_27
REMARK                            x       y       z     vdW  Elec       q    Type
REMARK                         _______ _______ _______ _____ _____    ______ ____
ROOT
ATOM      1  N   UNL     1       1.684  -5.316  -1.338  0.00  0.00    +0.388 N 
ATOM      2  H   UNL     1       2.431  -5.877  -0.957  0.00  0.00    -0.085 HD
ATOM      3  H   UNL     1       0.795  -5.718  -1.078  0.00  0.00    -0.085 HD
ENDROOT
BRANCH   1   8
ATOM      4  N   UNL     1      -0.072  -2.781  -0.013  0.00  0.00    -0.208 N 
ATOM      5  C   UNL     1       0.548  -3.180   1.105  0.00  0.00    +0.225 C 
ATOM      6  O   UNL     1       0.175  -2.950   2.235  0.00  0.00    -0.275 OA
ATOM      7  C   UNL     1       1.788  -3.964   0.734  0.00  0.00    +0.090 C 
ATOM      8  C   UNL     1       1.776  -3.950  -0.809  0.00  0.00    +0.026 C 
ATOM      9  C   UNL     1       0.529  -3.163  -1.147  0.00  0.00    +0.213 C 
ATOM     10  O   UNL     1       0.137  -2.916  -2.267  0.00  0.00    -0.277 OA
BRANCH   4  16
ATOM     11  C   UNL     1      -1.201  -0.638   0.010  0.00  0.00    +0.144 A 
ATOM     12  C   UNL     1      -2.374   0.100   0.019  0.00  0.00    +0.080 A 
ATOM     13  C   UNL     1      -3.596  -0.546   0.028  0.00  0.00    +0.130 A 
ATOM     14  C   UNL     1      -3.652  -1.928   0.028  0.00  0.00    +0.035 A 
ATOM     15  C   UNL     1      -2.487  -2.670   0.018  0.00  0.00    +0.030 A 
ATOM     16  C   UNL     1      -1.257  -2.029   0.003  0.00  0.00    +0.085 A 
BRANCH  13  17
ATOM     17  N   UNL     1      -4.848   0.243   0.039  0.00  0.00    +0.057 N 
ATOM     18  O   UNL     1      -4.801   1.451   0.040  0.00  0.00    -0.126 OA
ATOM     19  O   UNL     1      -5.918  -0.320   0.046  0.00  0.00    -0.126 OA
ENDBRANCH  13  17
BRANCH  11  21
ATOM     20  C   UNL     1      -0.017   1.425   0.010  0.00  0.00    +0.277 C 
ATOM     21  O   UNL     1       0.002  -0.004   0.002  0.00  0.00    -0.493 OA
ENDBRANCH  11  21
ENDBRANCH   4  16
ENDBRANCH   1   8
BRANCH   1  22
ATOM     22  C   UNL     1       1.795  -5.283  -2.803  0.00  0.00    -0.069 C 
BRANCH  22  23
ATOM     23  C   UNL     1       1.698  -6.707  -3.354  0.00  0.00    +0.034 C 
BRANCH  23  24
ATOM     24  C   UNL     1       1.935  -6.686  -4.842  0.00  0.00    -0.017 A 
ATOM     25  C   UNL     1       1.215  -6.018  -5.756  0.00  0.00    +0.087 A 
ATOM     26  N   UNL     1       1.727  -6.237  -7.006  0.00  0.00    -0.360 N 
ATOM     27  H   UNL     1       1.374  -5.860  -7.827  0.00  0.00    +0.165 HD
ATOM     28  C   UNL     1       2.817  -7.074  -6.925  0.00  0.00    +0.047 A 
ATOM     29  C   UNL     1       2.999  -7.387  -5.565  0.00  0.00    +0.003 A 
ATOM     30  C   UNL     1       4.047  -8.224  -5.177  0.00  0.00    +0.010 A 
ATOM     31  C   UNL     1       4.894  -8.733  -6.122  0.00  0.00    +0.001 A 
ATOM     32  C   UNL     1       4.720  -8.424  -7.464  0.00  0.00    +0.002 A 
ATOM     33  C   UNL     1       3.687  -7.608  -7.869  0.00  0.00    +0.026 A 
ENDBRANCH  23  24
BRANCH  23  34
ATOM     34  C   UNL     1       0.327  -7.263  -3.071  0.00  0.00    -0.042 A 
ATOM     35  C   UNL     1      -0.793  -6.634  -3.584  0.00  0.00    +0.004 A 
ATOM     36  C   UNL     1      -2.051  -7.144  -3.325  0.00  0.00    +0.000 A 
ATOM     37  C   UNL     1      -2.190  -8.283  -2.553  0.00  0.00    +0.000 A 
ATOM     38  C   UNL     1      -1.071  -8.912  -2.042  0.00  0.00    +0.000 A 
ATOM     39  C   UNL     1       0.188  -8.405  -2.304  0.00  0.00    +0.004 A 
ENDBRANCH  23  34
ENDBRANCH  22  23
ENDBRANCH   1  22
TORSDOF 8
