REMARK  Name = ZINC38893898
REMARK  9 active torsions:
REMARK  status: ('A' for Active; 'I' for Inactive)
REMARK    1  A    between atoms: C_6  and  C_7
REMARK    2  A    between atoms: C_7  and  S_8
REMARK    3  A    between atoms: S_8  and  C_9
REMARK    4  A    between atoms: C_9  and  C_10
REMARK    5  A    between atoms: C_10  and  N_11
REMARK    6  A    between atoms: C_12  and  C_14
REMARK    7  A    between atoms: N_19  and  C_21
REMARK    8  A    between atoms: C_21  and  C_22
REMARK    9  A    between atoms: C_24  and  C_27
REMARK                            x       y       z     vdW  Elec       q    Type
REMARK                         _______ _______ _______ _____ _____    ______ ____
ROOT
ATOM      1  C   UNL     1      -7.169  -4.231  -3.689  0.00  0.00    +0.058 C 
ATOM      2  C   UNL     1      -6.900  -5.536  -2.933  0.00  0.00    +0.009 C 
ATOM      3  C   UNL     1      -8.198  -6.345  -2.852  0.00  0.00    -0.018 C 
ATOM      4  C   UNL     1      -8.727  -6.592  -4.267  0.00  0.00    -0.078 C 
ATOM      5  N   UNL     1      -8.990  -5.308  -4.927  0.00  0.00    +0.386 N 
ATOM      6  C   UNL     1      -7.737  -4.556  -5.072  0.00  0.00    -0.065 C 
ATOM      7  H   UNL     1      -9.639  -4.772  -4.371  0.00  0.00    -0.081 HD
ENDROOT
BRANCH   1   9
ATOM      8  N   UNL     1      -5.199  -3.069  -2.748  0.00  0.00    -0.314 N 
ATOM      9  C   UNL     1      -5.882  -3.463  -3.841  0.00  0.00    +0.214 C 
ATOM     10  O   UNL     1      -5.460  -3.200  -4.947  0.00  0.00    -0.276 OA
ATOM     11  H   UNL     1      -5.536  -3.280  -1.863  0.00  0.00    +0.149 HD
BRANCH   8  12
ATOM     12  C   UNL     1      -3.947  -2.322  -2.896  0.00  0.00    +0.115 C 
BRANCH  12  13
ATOM     13  C   UNL     1      -3.379  -2.000  -1.513  0.00  0.00    +0.088 C 
BRANCH  13  14
ATOM     14  S   UNL     1      -1.829  -1.075  -1.696  0.00  0.00    -0.155 S 
BRANCH  14  15
ATOM     15  C   UNL     1      -1.293  -0.775   0.011  0.00  0.00    +0.104 C 
BRANCH  15  21
ATOM     16  C   UNL     1      -0.017   1.378   0.010  0.00  0.00    +0.006 A 
ATOM     17  C   UNL     1       1.171   2.086   0.002  0.00  0.00    +0.020 A 
ATOM     18  C   UNL     1       2.378   1.410  -0.013  0.00  0.00    +0.041 A 
ATOM     19  C   UNL     1       2.396   0.027  -0.021  0.00  0.00    +0.020 A 
ATOM     20  C   UNL     1       1.208  -0.679  -0.013  0.00  0.00    +0.006 A 
ATOM     21  C   UNL     1       0.002  -0.004   0.002  0.00  0.00    -0.037 A 
ATOM     22 CL   UNL     1       3.870   2.298  -0.023  0.00  0.00    -0.084 Cl
ENDBRANCH  15  21
ENDBRANCH  14  15
ENDBRANCH  13  14
ENDBRANCH  12  13
ENDBRANCH   8  12
ENDBRANCH   1   9
BRANCH   5  23
ATOM     23  C   UNL     1      -9.570  -5.551  -6.254  0.00  0.00    +0.022 C 
BRANCH  23  24
ATOM     24  C   UNL     1     -10.920  -6.204  -6.100  0.00  0.00    +0.211 A 
ATOM     25  N   UNL     1     -12.059  -5.581  -6.002  0.00  0.00    -0.193 NA
ATOM     26  C   UNL     1     -13.061  -6.471  -5.877  0.00  0.00    +0.202 A 
ATOM     27  N   UNL     1     -12.552  -7.678  -5.896  0.00  0.00    -0.056 NA
ATOM     28  O   UNL     1     -11.149  -7.522  -6.048  0.00  0.00    -0.340 OA
BRANCH  26  29
ATOM     29  C   UNL     1     -14.501  -6.140  -5.741  0.00  0.00    +0.023 A 
ATOM     30  C   UNL     1     -14.915  -4.809  -5.740  0.00  0.00    +0.014 A 
ATOM     31  C   UNL     1     -16.255  -4.506  -5.613  0.00  0.00    +0.039 A 
ATOM     32  C   UNL     1     -17.188  -5.522  -5.487  0.00  0.00    +0.123 A 
ATOM     33  C   UNL     1     -16.781  -6.847  -5.486  0.00  0.00    +0.039 A 
ATOM     34  C   UNL     1     -15.443  -7.159  -5.618  0.00  0.00    +0.014 A 
ATOM     35  F   UNL     1     -18.499  -5.221  -5.363  0.00  0.00    -0.205 F 
ENDBRANCH  26  29
ENDBRANCH  23  24
ENDBRANCH   5  23
TORSDOF 9
