REMARK  Name = ZINC35456603
REMARK  10 active torsions:
REMARK  status: ('A' for Active; 'I' for Inactive)
REMARK    1  A    between atoms: C_1  and  C_2
REMARK    2  A    between atoms: C_2  and  C_3
REMARK    3  A    between atoms: C_3  and  C_5
REMARK    4  A    between atoms: C_3  and  N_6
REMARK    5  A    between atoms: C_7  and  C_9
REMARK    6  A    between atoms: C_9  and  N_10
REMARK    7  A    between atoms: C_16  and  C_17
REMARK    8  A    between atoms: C_20  and  C_23
REMARK    9  A    between atoms: N_28  and  C_31
REMARK   10  A    between atoms: C_31  and  C_32
REMARK                            x       y       z     vdW  Elec       q    Type
REMARK                         _______ _______ _______ _____ _____    ______ ____
ROOT
ATOM      1  N   UNL     1      -5.639   0.501  -2.539  0.00  0.00    -0.284 N 
ATOM      2  C   UNL     1      -6.407  -0.570  -2.830  0.00  0.00    +0.258 A 
ATOM      3  O   UNL     1      -5.953  -1.502  -3.473  0.00  0.00    -0.267 OA
ATOM      4  C   UNL     1      -7.744  -0.593  -2.378  0.00  0.00    +0.035 A 
ATOM      5  C   UNL     1      -8.217   0.460  -1.661  0.00  0.00    +0.035 A 
ATOM      6  N   UNL     1      -7.415   1.498  -1.401  0.00  0.00    -0.235 NA
ATOM      7  C   UNL     1      -6.168   1.529  -1.816  0.00  0.00    +0.144 A 
ATOM      8  C   UNL     1      -9.629   0.493  -1.138  0.00  0.00    -0.021 C 
ATOM      9  N   UNL     1     -10.470  -0.465  -1.862  0.00  0.00    +0.386 N 
ATOM     10  C   UNL     1      -9.841  -1.793  -1.806  0.00  0.00    -0.073 C 
ATOM     11  C   UNL     1      -8.605  -1.783  -2.707  0.00  0.00    +0.024 C 
ATOM     12  H   UNL     1     -10.562  -0.174  -2.824  0.00  0.00    -0.081 HD
ENDROOT
BRANCH   7  13
ATOM     13  C   UNL     1      -5.325   2.699  -1.496  0.00  0.00    +0.018 A 
ATOM     14  C   UNL     1      -4.658   3.383  -2.514  0.00  0.00    +0.012 A 
ATOM     15  C   UNL     1      -3.873   4.475  -2.209  0.00  0.00    +0.013 A 
ATOM     16  C   UNL     1      -3.746   4.894  -0.896  0.00  0.00    +0.055 A 
ATOM     17  C   UNL     1      -4.404   4.221   0.118  0.00  0.00    +0.013 A 
ATOM     18  C   UNL     1      -5.198   3.131  -0.174  0.00  0.00    +0.012 A 
BRANCH  16  19
ATOM     19  C   UNL     1      -2.886   6.088  -0.570  0.00  0.00    +0.417 C 
ATOM     20  F   UNL     1      -3.664   7.250  -0.620  0.00  0.00    -0.166 F 
ATOM     21  F   UNL     1      -2.352   5.940   0.715  0.00  0.00    -0.166 F 
ATOM     22  F   UNL     1      -1.846   6.182  -1.500  0.00  0.00    -0.166 F 
ENDBRANCH  16  19
ENDBRANCH   7  13
BRANCH   1  23
ATOM     23  C   UNL     1      -4.247   0.557  -2.993  0.00  0.00    +0.222 C 
BRANCH  23  25
ATOM     24  N   UNL     1      -2.007   0.036  -2.083  0.00  0.00    -0.311 N 
ATOM     25  C   UNL     1      -3.341   0.073  -1.891  0.00  0.00    +0.233 C 
ATOM     26  O   UNL     1      -3.811  -0.284  -0.831  0.00  0.00    -0.274 OA
ATOM     27  H   UNL     1      -1.631   0.321  -2.930  0.00  0.00    +0.149 HD
BRANCH  24  28
ATOM     28  C   UNL     1      -1.126  -0.435  -1.012  0.00  0.00    +0.070 C 
ATOM     29  C   UNL     1      -1.028  -1.961  -1.065  0.00  0.00    +0.028 C 
BRANCH  28  31
ATOM     30  C   UNL     1       0.189   1.689  -1.016  0.00  0.00    +0.005 C 
ATOM     31  C   UNL     1       0.267   0.172  -1.193  0.00  0.00    +0.018 C 
ENDBRANCH  28  31
ENDBRANCH  24  28
ENDBRANCH  23  25
ENDBRANCH   1  23
BRANCH   9  32
ATOM     32  C   UNL     1     -11.798  -0.523  -1.236  0.00  0.00    -0.042 C 
BRANCH  32  33
ATOM     33  C   UNL     1     -12.486   0.808  -1.392  0.00  0.00    -0.064 A 
ATOM     34  C   UNL     1     -12.325   1.787  -0.429  0.00  0.00    +0.002 A 
ATOM     35  C   UNL     1     -12.956   3.009  -0.572  0.00  0.00    +0.000 A 
ATOM     36  C   UNL     1     -13.748   3.252  -1.679  0.00  0.00    +0.000 A 
ATOM     37  C   UNL     1     -13.909   2.274  -2.642  0.00  0.00    +0.000 A 
ATOM     38  C   UNL     1     -13.274   1.054  -2.501  0.00  0.00    +0.002 A 
ENDBRANCH  32  33
ENDBRANCH   9  32
TORSDOF 8
