REMARK  Name = ZINC05775434
REMARK  5 active torsions:
REMARK  status: ('A' for Active; 'I' for Inactive)
REMARK    1  A    between atoms: C_4  and  C_7
REMARK    2  A    between atoms: C_8  and  C_18
REMARK    3  A    between atoms: C_11  and  O_17
REMARK    4  A    between atoms: C_12  and  N_16
REMARK    5  A    between atoms: N_20  and  C_21
REMARK                            x       y       z     vdW  Elec       q    Type
REMARK                         _______ _______ _______ _____ _____    ______ ____
ROOT
ATOM      1  C   UNL     1       7.270   0.032  -0.286  0.00  0.00    +0.084 A 
ATOM      2  C   UNL     1       6.097  -0.653  -0.669  0.00  0.00    +0.064 A 
ATOM      3  C   UNL     1       6.108  -2.038  -0.781  0.00  0.00    +0.029 A 
ATOM      4  C   UNL     1       7.302  -2.739  -0.501  0.00  0.00    +0.052 A 
ATOM      5  C   UNL     1       7.548  -4.172  -0.549  0.00  0.00    +0.154 A 
ATOM      6  C   UNL     1       8.777  -4.637  -0.239  0.00  0.00    +0.108 A 
ATOM      7  S   UNL     1       9.700  -3.161   0.144  0.00  0.00    -0.051 S 
ATOM      8  C   UNL     1       8.421  -1.956  -0.119  0.00  0.00    +0.114 A 
ATOM      9  N   UNL     1       8.378  -0.647  -0.023  0.00  0.00    -0.239 NA
ENDROOT
BRANCH   1  13
ATOM     10  C   UNL     1       7.246   4.269   0.038  0.00  0.00    +0.000 A 
ATOM     11  C   UNL     1       6.307   3.520   0.725  0.00  0.00    +0.001 A 
ATOM     12  C   UNL     1       6.310   2.144   0.624  0.00  0.00    +0.010 A 
ATOM     13  C   UNL     1       7.262   1.508  -0.173  0.00  0.00    +0.001 A 
ATOM     14  C   UNL     1       8.209   2.268  -0.859  0.00  0.00    +0.010 A 
ATOM     15  C   UNL     1       8.193   3.644  -0.754  0.00  0.00    +0.001 A 
ENDBRANCH   1  13
BRANCH   2  16
ATOM     16  C   UNL     1       4.864   0.100  -0.957  0.00  0.00    +0.250 C 
ATOM     17  O   UNL     1       4.885   1.316  -0.981  0.00  0.00    -0.270 OA
ATOM     18  N   UNL     1       3.711  -0.558  -1.193  0.00  0.00    -0.281 N 
ATOM     19  H   UNL     1       3.678  -1.523  -1.107  0.00  0.00    +0.155 HD
BRANCH  18  20
ATOM     20  C   UNL     1       2.564   0.152  -1.561  0.00  0.00    +0.034 A 
ATOM     21  C   UNL     1       1.663  -0.401  -2.463  0.00  0.00    +0.023 A 
ATOM     22  C   UNL     1       0.531   0.302  -2.824  0.00  0.00    +0.002 A 
ATOM     23  C   UNL     1       0.293   1.555  -2.289  0.00  0.00    +0.000 A 
ATOM     24  C   UNL     1       1.187   2.108  -1.391  0.00  0.00    +0.002 A 
ATOM     25  C   UNL     1       2.321   1.410  -1.026  0.00  0.00    +0.023 A 
ENDBRANCH  18  20
ENDBRANCH   2  16
BRANCH   6  26
ATOM     26  N   UNL     1       9.220  -5.960  -0.222  0.00  0.00    -0.350 N 
ATOM     27  H   UNL     1       8.611  -6.679  -0.453  0.00  0.00    +0.143 HD
ATOM     28  H   UNL     1      10.138  -6.161   0.022  0.00  0.00    +0.143 HD
ENDBRANCH   6  26
BRANCH   5  29
ATOM     29  O   UNL     1       6.551  -5.034  -0.902  0.00  0.00    -0.504 OA
ATOM     30  H   UNL     1       6.504  -5.212  -1.851  0.00  0.00    +0.292 HD
ENDBRANCH   5  29
TORSDOF 5
