REMARK  Name = ZINC40511723
REMARK  4 active torsions:
REMARK  status: ('A' for Active; 'I' for Inactive)
REMARK    1  A    between atoms: C_2  and  O_20
REMARK    2  A    between atoms: C_4  and  C_18
REMARK    3  A    between atoms: C_7  and  C_9
REMARK    4  A    between atoms: C_18  and  O_19
REMARK                            x       y       z     vdW  Elec       q    Type
REMARK                         _______ _______ _______ _____ _____    ______ ____
ROOT
ATOM      1  C   UNL     1      -0.019   1.546   0.011  0.00  0.00    +0.070 C 
ATOM      2  C   UNL     1       1.490   1.891  -0.002  0.00  0.00    +0.148 C 
ATOM      3  C   UNL     1       2.164   0.617  -0.548  0.00  0.00    +0.173 C 
ATOM      4  O   UNL     1       1.119  -0.321  -0.856  0.00  0.00    -0.364 OA
ATOM      5  C   UNL     1       0.002  -0.004   0.002  0.00  0.00    +0.157 C 
ENDROOT
BRANCH   5   6
ATOM      6  C   UNL     1      -1.280  -0.549  -0.573  0.00  0.00    +0.047 A 
ATOM      7  C   UNL     1      -1.599  -0.320  -1.912  0.00  0.00    +0.031 A 
ATOM      8  C   UNL     1      -2.776  -0.827  -2.420  0.00  0.00    +0.078 A 
ATOM      9  C   UNL     1      -3.625  -1.561  -1.581  0.00  0.00    +0.265 A 
ATOM     10  O   UNL     1      -4.670  -2.015  -2.019  0.00  0.00    -0.267 OA
ATOM     11  N   UNL     1      -3.291  -1.766  -0.293  0.00  0.00    -0.289 N 
ATOM     12  C   UNL     1      -2.129  -1.273   0.213  0.00  0.00    +0.257 A 
ATOM     13  O   UNL     1      -1.814  -1.498   1.508  0.00  0.00    -0.267 OA
ATOM     14  I   UNL     1      -3.290  -0.503  -4.425  0.00  0.00    -0.038 I 
ATOM     15  H   UNL     1      -3.885  -2.275   0.281  0.00  0.00    +0.172 HD
ENDBRANCH   5   6
BRANCH   2  16
ATOM     16  O   UNL     1       1.949   2.175   1.321  0.00  0.00    -0.389 OA
ATOM     17  H   UNL     1       1.515   2.934   1.734  0.00  0.00    +0.210 HD
ENDBRANCH   2  16
BRANCH   3  18
ATOM     18  C   UNL     1       2.958   0.950  -1.812  0.00  0.00    +0.190 C 
BRANCH  18  19
ATOM     19  O   UNL     1       3.673  -0.210  -2.245  0.00  0.00    -0.392 OA
ATOM     20  H   UNL     1       4.200  -0.072  -3.044  0.00  0.00    +0.210 HD
ENDBRANCH  18  19
ENDBRANCH   3  18
TORSDOF 4
