REMARK  Name = ZINC01498425
REMARK  4 active torsions:
REMARK  status: ('A' for Active; 'I' for Inactive)
REMARK    1  A    between atoms: C_11  and  C_14
REMARK    2  A    between atoms: N_16  and  N_17
REMARK    3  A    between atoms: N_17  and  C_18
REMARK    4  A    between atoms: C_18  and  N_20
REMARK                            x       y       z     vdW  Elec       q    Type
REMARK                         _______ _______ _______ _____ _____    ______ ____
ROOT
ATOM      1  C   UNL     1       1.865   2.463  -1.361  0.00  0.00    +0.004 C 
ATOM      2  C   UNL     1       1.329   2.155   0.001  0.00  0.00    +0.004 C 
ATOM      3  C   UNL     1      -0.018   1.504   0.010  0.00  0.00    -0.010 C 
ATOM      4  C   UNL     1      -1.008   2.101  -0.967  0.00  0.00    +0.007 C 
ATOM      5  C   UNL     1      -0.973   1.476  -2.350  0.00  0.00    -0.009 C 
ATOM      6  C   UNL     1       0.252   1.891  -3.156  0.00  0.00    +0.007 C 
ATOM      7  C   UNL     1       1.524   1.461  -2.428  0.00  0.00    -0.010 C 
ATOM      8  C   UNL     1       1.492   0.023  -2.006  0.00  0.00    +0.019 C 
ATOM      9  C   UNL     1       0.194  -0.500  -1.434  0.00  0.00    +0.049 C 
ATOM     10  C   UNL     1       0.002  -0.004   0.002  0.00  0.00    +0.019 C 
ATOM     11  C   UNL     1      -1.012  -0.051  -2.262  0.00  0.00    +0.019 C 
ENDROOT
BRANCH   9  12
ATOM     12  C   UNL     1       0.249  -2.006  -1.428  0.00  0.00    +0.235 C 
ATOM     13  O   UNL     1      -0.568  -2.646  -2.056  0.00  0.00    -0.274 OA
ATOM     14  N   UNL     1       1.207  -2.642  -0.725  0.00  0.00    -0.235 N 
ATOM     15  H   UNL     1       1.948  -2.062  -0.156  0.00  0.00    +0.173 HD
BRANCH  14  16
ATOM     16  N   UNL     1       1.259  -4.042  -0.719  0.00  0.00    -0.246 N 
ATOM     17  H   UNL     1       0.517  -4.622  -1.288  0.00  0.00    +0.172 HD
BRANCH  16  18
ATOM     18  C   UNL     1       2.216  -4.678  -0.016  0.00  0.00    +0.144 C 
ATOM     19  S   UNL     1       2.280  -6.389  -0.009  0.00  0.00    -0.018 S 
BRANCH  18  20
ATOM     20  N   UNL     1       3.125  -3.968   0.682  0.00  0.00    -0.340 N 
ATOM     21  H   UNL     1       3.906  -4.487   1.256  0.00  0.00    +0.144 HD
ATOM     22  H   UNL     1       3.084  -2.868   0.677  0.00  0.00    +0.144 HD
ENDBRANCH  18  20
ENDBRANCH  16  18
ENDBRANCH  14  16
ENDBRANCH   9  12
TORSDOF 4
