REMARK  Name = ZINC62948172
REMARK  4 active torsions:
REMARK  status: ('A' for Active; 'I' for Inactive)
REMARK    1  A    between atoms: C_2  and  C_20
REMARK    2  A    between atoms: C_6  and  N_7
REMARK    3  A    between atoms: N_10  and  C_11
REMARK    4  A    between atoms: C_17  and  O_19
REMARK                            x       y       z     vdW  Elec       q    Type
REMARK                         _______ _______ _______ _____ _____    ______ ____
ROOT
ATOM      1  N   UNL     1      -1.196  -0.729   0.010  0.00  0.00    -0.268 N 
ATOM      2  C   UNL     1      -1.171  -2.072  -0.100  0.00  0.00    +0.304 C 
ATOM      3  O   UNL     1      -0.107  -2.662  -0.113  0.00  0.00    -0.252 OA
ATOM      4  N   UNL     1      -2.325  -2.762  -0.194  0.00  0.00    -0.294 N 
ATOM      5  H   UNL     1      -2.043  -0.265   0.098  0.00  0.00    +0.156 HD
ATOM      6  H   UNL     1      -3.173  -2.292  -0.183  0.00  0.00    +0.151 HD
ENDROOT
BRANCH   1  12
ATOM      7  C   UNL     1       1.084  -0.446  -0.755  0.00  0.00    +0.041 A 
ATOM      8  C   UNL     1       2.259   0.316  -0.736  0.00  0.00    +0.083 A 
ATOM      9  C   UNL     1       2.296   1.481   0.032  0.00  0.00    +0.126 A 
ATOM     10  N   UNL     1       1.245   1.861   0.728  0.00  0.00    -0.261 NA
ATOM     11  C   UNL     1       0.123   1.169   0.733  0.00  0.00    +0.134 A 
ATOM     12  C   UNL     1       0.002  -0.004  -0.004  0.00  0.00    +0.054 A 
BRANCH   8  13
ATOM     13  C   UNL     1       3.439  -0.107  -1.514  0.00  0.00    +0.388 C 
ATOM     14  O   UNL     1       3.396  -1.130  -2.183  0.00  0.00    -0.241 OA
ATOM     15  O   UNL     1       4.460   0.565  -1.490  0.00  0.00    -0.241 OA
ENDBRANCH   8  13
ENDBRANCH   1  12
BRANCH   4  16
ATOM     16  C   UNL     1      -2.298  -4.222  -0.312  0.00  0.00    +0.103 C 
ATOM     17  C   UNL     1      -2.210  -4.846   1.082  0.00  0.00    +0.025 C 
ATOM     18  C   UNL     1      -2.182  -6.370   0.958  0.00  0.00    +0.002 C 
ATOM     19  C   UNL     1      -3.459  -6.849   0.265  0.00  0.00    +0.003 C 
ATOM     20  C   UNL     1      -3.547  -6.226  -1.129  0.00  0.00    +0.033 C 
ATOM     21  C   UNL     1      -3.575  -4.701  -1.006  0.00  0.00    +0.135 C 
BRANCH  21  22
ATOM     22  O   UNL     1      -4.712  -4.307  -0.235  0.00  0.00    -0.390 OA
ATOM     23  H   UNL     1      -5.559  -4.577  -0.615  0.00  0.00    +0.210 HD
ENDBRANCH  21  22
ENDBRANCH   4  16
TORSDOF 4
