REMARK  Name = ZINC20535269
REMARK  6 active torsions:
REMARK  status: ('A' for Active; 'I' for Inactive)
REMARK    1  A    between atoms: C_1  and  C_2
REMARK    2  A    between atoms: N_10  and  C_11
REMARK    3  A    between atoms: C_11  and  C_12
REMARK    4  A    between atoms: C_12  and  N_13
REMARK    5  A    between atoms: C_14  and  C_16
REMARK    6  A    between atoms: C_19  and  C_21
REMARK                            x       y       z     vdW  Elec       q    Type
REMARK                         _______ _______ _______ _____ _____    ______ ____
ROOT
ATOM      1  N   UNL     1       3.323   4.063  -5.032  0.00  0.00    -0.309 N 
ATOM      2  C   UNL     1       2.698   2.905  -5.323  0.00  0.00    +0.251 C 
ATOM      3  O   UNL     1       2.951   2.321  -6.360  0.00  0.00    -0.270 OA
ATOM      4  H   UNL     1       3.093   4.591  -4.095  0.00  0.00    +0.149 HD
ENDROOT
BRANCH   2   5
ATOM      5  C   UNL     1       1.713   2.349  -4.390  0.00  0.00    +0.074 A 
ATOM      6  C   UNL     1       0.967   1.186  -4.498  0.00  0.00    +0.021 A 
ATOM      7  C   UNL     1       0.107   0.897  -3.468  0.00  0.00    +0.010 A 
ATOM      8  C   UNL     1       0.027   1.748  -2.412  0.00  0.00    -0.023 A 
ATOM      9  S   UNL     1       1.155   2.998  -2.825  0.00  0.00    -0.090 S 
BRANCH   8  10
ATOM     10  C   UNL     1      -0.837   1.636  -1.182  0.00  0.00    -0.034 C 
ATOM     11  C   UNL     1      -0.013   1.086   0.008  0.00  0.00    -0.013 C 
ATOM     12  C   UNL     1      -0.815   1.624   1.222  0.00  0.00    -0.020 C 
ATOM     13  C   UNL     1      -1.304   3.004   0.731  0.00  0.00    -0.082 C 
ATOM     14  N   UNL     1      -1.287   2.974  -0.743  0.00  0.00    +0.384 N 
ATOM     15  H   UNL     1      -0.595   3.738  -1.126  0.00  0.00    -0.085 HD
ATOM     16  H   UNL     1      -2.298   3.167  -1.133  0.00  0.00    -0.085 HD
ENDBRANCH   8  10
ENDBRANCH   2   5
BRANCH   1  17
ATOM     17  C   UNL     1       4.307   4.619  -5.964  0.00  0.00    +0.123 C 
BRANCH  17  18
ATOM     18  C   UNL     1       4.862   5.927  -5.399  0.00  0.00    +0.123 C 
BRANCH  18  28
ATOM     19  C   UNL     1       6.444  10.115  -3.288  0.00  0.00    +0.066 C 
ATOM     20  C   UNL     1       6.792   9.429  -4.584  0.00  0.00    +0.047 A 
ATOM     21  C   UNL     1       7.715   9.983  -5.422  0.00  0.00    +0.093 A 
ATOM     22  C   UNL     1       8.024   9.324  -6.625  0.00  0.00    +0.253 A 
ATOM     23  O   UNL     1       8.845   9.792  -7.397  0.00  0.00    -0.268 OA
ATOM     24  N   UNL     1       7.394   8.164  -6.909  0.00  0.00    -0.295 N 
ATOM     25  H   UNL     1       7.619   7.631  -7.845  0.00  0.00    +0.172 HD
ATOM     26  C   UNL     1       6.482   7.659  -6.035  0.00  0.00    +0.196 A 
ATOM     27  N   UNL     1       6.194   8.286  -4.912  0.00  0.00    -0.221 NA
ATOM     28  N   UNL     1       5.847   6.483  -6.331  0.00  0.00    -0.313 N 
ATOM     29  H   UNL     1       6.076   5.955  -7.268  0.00  0.00    +0.149 HD
ENDBRANCH  18  28
ENDBRANCH  17  18
ENDBRANCH   1  17
TORSDOF 5
