REMARK  Name = ZINC59880584
REMARK  8 active torsions:
REMARK  status: ('A' for Active; 'I' for Inactive)
REMARK    1  A    between atoms: C_2  and  C_10
REMARK    2  A    between atoms: C_5  and  O_8
REMARK    3  A    between atoms: N_11  and  N_12
REMARK    4  A    between atoms: C_15  and  S_18
REMARK    5  A    between atoms: S_18  and  C_19
REMARK    6  A    between atoms: C_19  and  C_20
REMARK    7  A    between atoms: C_20  and  C_21
REMARK    8  A    between atoms: C_21  and  O_22
REMARK                            x       y       z     vdW  Elec       q    Type
REMARK                         _______ _______ _______ _____ _____    ______ ____
ROOT
ATOM      1  N   UNL     1       2.273   5.624   0.010  0.00  0.00    -0.205 N 
ATOM      2  C   UNL     1       3.463   6.327   0.002  0.00  0.00    +0.232 A 
ATOM      3  N   UNL     1       4.672   5.804  -0.018  0.00  0.00    -0.186 NA
ATOM      4  C   UNL     1       5.585   6.781  -0.020  0.00  0.00    +0.210 A 
ATOM      5  N   UNL     1       4.969   7.940  -0.002  0.00  0.00    -0.144 NA
ATOM      6  N   UNL     1       3.591   7.671   0.008  0.00  0.00    -0.245 N 
ATOM      7  H   UNL     1       1.428   6.100   0.020  0.00  0.00    +0.177 HD
ATOM      8  H   UNL     1       2.873   8.323   0.018  0.00  0.00    +0.192 HD
ENDROOT
BRANCH   1  10
ATOM      9  C   UNL     1       1.170   3.562   0.009  0.00  0.00    +0.138 C 
ATOM     10  N   UNL     1       2.288   4.223   0.002  0.00  0.00    -0.188 NA
BRANCH   9  12
ATOM     11  C   UNL     1      -0.017   1.375   0.010  0.00  0.00    +0.028 A 
ATOM     12  C   UNL     1       1.185   2.088   0.002  0.00  0.00    -0.003 A 
ATOM     13  C   UNL     1       2.401   1.400  -0.013  0.00  0.00    +0.028 A 
ATOM     14  C   UNL     1       2.410   0.021  -0.021  0.00  0.00    +0.061 A 
ATOM     15  C   UNL     1       1.213  -0.684  -0.013  0.00  0.00    +0.145 A 
ATOM     16  C   UNL     1       0.002  -0.004   0.002  0.00  0.00    +0.061 A 
ATOM     17 BR   UNL     1      -1.623  -0.970   0.013  0.00  0.00    -0.046 Br
ATOM     18 BR   UNL     1       4.055  -0.912  -0.042  0.00  0.00    -0.046 Br
BRANCH  15  19
ATOM     19  O   UNL     1       1.227  -2.043  -0.021  0.00  0.00    -0.505 OA
ATOM     20  H   UNL     1       1.240  -2.441   0.861  0.00  0.00    +0.292 HD
ENDBRANCH  15  19
ENDBRANCH   9  12
ENDBRANCH   1  10
BRANCH   4  21
ATOM     21  S   UNL     1       7.331   6.550  -0.043  0.00  0.00    -0.084 S 
BRANCH  21  22
ATOM     22  C   UNL     1       7.997   8.238  -0.036  0.00  0.00    +0.080 C 
BRANCH  22  23
ATOM     23  C   UNL     1       9.526   8.182  -0.055  0.00  0.00    +0.039 C 
BRANCH  23  24
ATOM     24  C   UNL     1      10.088   9.605  -0.049  0.00  0.00    +0.156 C 
BRANCH  24  25
ATOM     25  O   UNL     1      11.516   9.554  -0.067  0.00  0.00    -0.395 OA
ATOM     26  H   UNL     1      11.941  10.422  -0.064  0.00  0.00    +0.209 HD
ENDBRANCH  24  25
ENDBRANCH  23  24
ENDBRANCH  22  23
ENDBRANCH  21  22
ENDBRANCH   4  21
TORSDOF 8
