REMARK  Name = ZINC45724189
REMARK  8 active torsions:
REMARK  status: ('A' for Active; 'I' for Inactive)
REMARK    1  A    between atoms: C_1  and  C_2
REMARK    2  A    between atoms: C_2  and  C_3
REMARK    3  A    between atoms: C_2  and  C_4
REMARK    4  A    between atoms: C_2  and  C_5
REMARK    5  A    between atoms: C_11  and  N_13
REMARK    6  A    between atoms: N_16  and  C_17
REMARK    7  A    between atoms: C_22  and  C_23
REMARK    8  A    between atoms: C_23  and  C_24
REMARK                            x       y       z     vdW  Elec       q    Type
REMARK                         _______ _______ _______ _____ _____    ______ ____
ROOT
ATOM      1  N   UNL     1       3.061  -1.301  -0.204  0.00  0.00    -0.296 N 
ATOM      2  C   UNL     1       4.228  -0.799   0.245  0.00  0.00    +0.304 C 
ATOM      3  O   UNL     1       4.848  -0.002  -0.433  0.00  0.00    -0.253 OA
ATOM      4  N   UNL     1       4.710  -1.181   1.444  0.00  0.00    -0.269 N 
ATOM      5  H   UNL     1       2.567  -1.937   0.337  0.00  0.00    +0.151 HD
ATOM      6  H   UNL     1       4.179  -1.754   2.020  0.00  0.00    +0.156 HD
ENDROOT
BRANCH   1  12
ATOM      7  C   UNL     1       1.009  -0.942  -1.486  0.00  0.00    +0.015 C 
ATOM      8  C   UNL     1       0.555  -2.372  -1.186  0.00  0.00    +0.006 C 
ATOM      9  C   UNL     1       1.085  -3.313  -2.271  0.00  0.00    +0.000 C 
ATOM     10  C   UNL     1       2.613  -3.257  -2.293  0.00  0.00    +0.002 C 
ATOM     11  C   UNL     1       3.067  -1.827  -2.592  0.00  0.00    +0.022 C 
ATOM     12  C   UNL     1       2.538  -0.886  -1.508  0.00  0.00    +0.078 C 
BRANCH   7  14
ATOM     13  C   UNL     1       1.066   1.396  -0.608  0.00  0.00    +0.011 C 
ATOM     14  C   UNL     1       0.480  -0.002  -0.401  0.00  0.00    -0.033 C 
ATOM     15  C   UNL     1       0.890  -0.529   0.976  0.00  0.00    +0.011 C 
ATOM     16  C   UNL     1      -1.046   0.068  -0.486  0.00  0.00    +0.011 C 
ENDBRANCH   7  14
ENDBRANCH   1  12
BRANCH   4  17
ATOM     17  C   UNL     1       5.975  -0.751   1.859  0.00  0.00    +0.038 A 
ATOM     18  C   UNL     1       6.897  -0.298   0.925  0.00  0.00    +0.023 A 
ATOM     19  C   UNL     1       8.145   0.126   1.338  0.00  0.00    +0.002 A 
ATOM     20  C   UNL     1       8.477   0.099   2.681  0.00  0.00    +0.000 A 
ATOM     21  C   UNL     1       7.561  -0.353   3.613  0.00  0.00    +0.006 A 
ATOM     22  C   UNL     1       6.309  -0.772   3.207  0.00  0.00    -0.017 A 
BRANCH  22  23
ATOM     23  C   UNL     1       5.310  -1.258   4.225  0.00  0.00    +0.132 C 
BRANCH  23  24
ATOM     24  C   UNL     1       5.390  -2.759   4.330  0.00  0.00    +0.215 C 
ATOM     25  O   UNL     1       6.180  -3.374   3.646  0.00  0.00    -0.276 OA
ATOM     26  N   UNL     1       4.582  -3.419   5.184  0.00  0.00    -0.329 N 
ATOM     27  H   UNL     1       3.950  -2.927   5.731  0.00  0.00    +0.145 HD
ATOM     28  H   UNL     1       4.634  -4.385   5.252  0.00  0.00    +0.145 HD
ENDBRANCH  23  24
ENDBRANCH  22  23
ENDBRANCH   4  17
TORSDOF 5
