REMARK  Name = ZINC01797016
REMARK  7 active torsions:
REMARK  status: ('A' for Active; 'I' for Inactive)
REMARK    1  A    between atoms: C_1  and  C_2
REMARK    2  A    between atoms: C_5  and  N_8
REMARK    3  A    between atoms: C_9  and  C_11
REMARK    4  A    between atoms: C_11  and  C_12
REMARK    5  A    between atoms: N_18  and  C_19
REMARK    6  A    between atoms: C_22  and  S_25
REMARK    7  A    between atoms: S_25  and  N_28
REMARK                            x       y       z     vdW  Elec       q    Type
REMARK                         _______ _______ _______ _____ _____    ______ ____
ROOT
ATOM      1  C   UNL     1       0.424  -6.867   2.557  0.00  0.00    +0.149 C 
ATOM      2  C   UNL     1       0.590  -8.378   2.586  0.00  0.00    +0.232 C 
ATOM      3  O   UNL     1       1.544  -8.931   2.083  0.00  0.00    -0.274 OA
ATOM      4  N   UNL     1      -0.372  -9.051   3.194  0.00  0.00    -0.264 N 
ATOM      5  C   UNL     1      -1.460  -8.429   3.768  0.00  0.00    +0.161 C 
ATOM      6  N   UNL     1      -2.472  -8.982   4.395  0.00  0.00    -0.226 NA
ATOM      7  S   UNL     1      -1.170  -6.692   3.459  0.00  0.00    -0.077 S 
ATOM      8  H   UNL     1      -0.309 -10.018   3.238  0.00  0.00    +0.157 HD
ENDROOT
BRANCH   6   9
ATOM      9  C   UNL     1      -2.527 -10.343   4.539  0.00  0.00    +0.067 A 
ATOM     10  C   UNL     1      -2.234 -11.175   3.456  0.00  0.00    +0.030 A 
ATOM     11  C   UNL     1      -2.291 -12.545   3.607  0.00  0.00    +0.030 A 
ATOM     12  C   UNL     1      -2.638 -13.095   4.828  0.00  0.00    +0.105 A 
ATOM     13  C   UNL     1      -2.930 -12.277   5.905  0.00  0.00    +0.030 A 
ATOM     14  C   UNL     1      -2.871 -10.905   5.770  0.00  0.00    +0.030 A 
BRANCH  12  15
ATOM     15  S   UNL     1      -2.710 -14.846   5.013  0.00  0.00    +0.056 S 
ATOM     16  O   UNL     1      -3.588 -15.105   6.099  0.00  0.00    -0.153 OA
ATOM     17  O   UNL     1      -2.926 -15.383   3.715  0.00  0.00    -0.153 OA
BRANCH  15  18
ATOM     18  N   UNL     1      -1.206 -15.350   5.489  0.00  0.00    -0.204 NA
ATOM     19  H   UNL     1      -0.494 -14.703   5.611  0.00  0.00    +0.144 HD
ATOM     20  H   UNL     1      -1.038 -16.293   5.645  0.00  0.00    +0.144 HD
ENDBRANCH  15  18
ENDBRANCH  12  15
ENDBRANCH   6   9
BRANCH   1  21
ATOM     21  C   UNL     1       0.309  -6.349   1.121  0.00  0.00    +0.120 C 
BRANCH  21  23
ATOM     22  N   UNL     1       0.059  -4.170  -0.021  0.00  0.00    -0.285 N 
ATOM     23  C   UNL     1       0.175  -4.848   1.138  0.00  0.00    +0.219 C 
ATOM     24  O   UNL     1       0.173  -4.251   2.193  0.00  0.00    -0.275 OA
ATOM     25  H   UNL     1      -0.017  -4.651  -0.860  0.00  0.00    +0.155 HD
BRANCH  22  30
ATOM     26  C   UNL     1       0.008   1.503   0.007  0.00  0.00    +0.044 C 
ATOM     27  C   UNL     1       0.022  -0.004  -0.001  0.00  0.00    -0.050 A 
ATOM     28  C   UNL     1       0.777  -0.692   0.931  0.00  0.00    +0.005 A 
ATOM     29  C   UNL     1       0.791  -2.073   0.927  0.00  0.00    +0.023 A 
ATOM     30  C   UNL     1       0.046  -2.771  -0.014  0.00  0.00    +0.033 A 
ATOM     31  C   UNL     1      -0.712  -2.077  -0.948  0.00  0.00    +0.023 A 
ATOM     32  C   UNL     1      -0.726  -0.696  -0.936  0.00  0.00    +0.005 A 
ENDBRANCH  22  30
ENDBRANCH  21  23
ENDBRANCH   1  21
TORSDOF 6
