REMARK  Name = ZINC64623038
REMARK  8 active torsions:
REMARK  status: ('A' for Active; 'I' for Inactive)
REMARK    1  A    between atoms: C_1  and  O_2
REMARK    2  A    between atoms: O_2  and  C_3
REMARK    3  A    between atoms: C_6  and  C_9
REMARK    4  A    between atoms: N_26  and  C_27
REMARK    5  A    between atoms: C_30  and  O_35
REMARK    6  A    between atoms: C_32  and  O_33
REMARK    7  A    between atoms: O_33  and  C_34
REMARK    8  A    between atoms: O_35  and  C_36
REMARK                            x       y       z     vdW  Elec       q    Type
REMARK                         _______ _______ _______ _____ _____    ______ ____
ROOT
ATOM      1  C   UNL     1       2.612  -2.328  -3.434  0.00  0.00    +0.134 C 
ATOM      2  C   UNL     1       1.523  -2.453  -4.506  0.00  0.00    +0.131 C 
ATOM      3  C   UNL     1       0.857  -3.807  -4.293  0.00  0.00    -0.035 C 
ATOM      4  C   UNL     1      -0.439  -3.566  -4.135  0.00  0.00    -0.001 A 
ATOM      5  C   UNL     1      -1.589  -4.469  -3.964  0.00  0.00    +0.010 A 
ATOM      6  C   UNL     1      -2.801  -3.873  -3.814  0.00  0.00    +0.001 A 
ATOM      7  C   UNL     1      -2.983  -2.486  -3.818  0.00  0.00    +0.002 A 
ATOM      8  C   UNL     1      -1.983  -1.582  -3.973  0.00  0.00    +0.026 A 
ATOM      9  C   UNL     1      -0.661  -2.088  -4.144  0.00  0.00    +0.043 A 
ATOM     10  N   UNL     1       0.476  -1.444  -4.339  0.00  0.00    -0.375 N 
ATOM     11  C   UNL     1       1.643  -5.093  -4.217  0.00  0.00    +0.052 C 
ATOM     12  C   UNL     1       2.768  -4.864  -3.192  0.00  0.00    +0.114 C 
ATOM     13  N   UNL     1       3.405  -3.567  -3.449  0.00  0.00    -0.276 N 
ATOM     14  C   UNL     1       4.728  -3.509  -3.701  0.00  0.00    +0.307 C 
ATOM     15  O   UNL     1       5.277  -2.431  -3.822  0.00  0.00    -0.252 OA
ATOM     16  N   UNL     1       5.441  -4.647  -3.820  0.00  0.00    -0.266 N 
ATOM     17  H   UNL     1       4.993  -5.506  -3.789  0.00  0.00    +0.156 HD
ATOM     18  H   UNL     1       0.605  -0.483  -4.362  0.00  0.00    +0.160 HD
ENDROOT
BRANCH  16  19
ATOM     19  C   UNL     1       6.833  -4.587  -3.989  0.00  0.00    +0.078 A 
ATOM     20  C   UNL     1       7.413  -3.483  -4.597  0.00  0.00    +0.050 A 
ATOM     21  C   UNL     1       8.784  -3.425  -4.763  0.00  0.00    +0.084 A 
ATOM     22  C   UNL     1       9.583  -4.471  -4.322  0.00  0.00    +0.142 A 
ATOM     23  C   UNL     1       9.008  -5.576  -3.713  0.00  0.00    +0.094 A 
ATOM     24  C   UNL     1       7.635  -5.634  -3.540  0.00  0.00    +0.145 A 
ATOM     25 CL   UNL     1       9.507  -2.043  -5.525  0.00  0.00    -0.080 Cl
BRANCH  24  26
ATOM     26  O   UNL     1       7.070  -6.715  -2.938  0.00  0.00    -0.493 OA
ATOM     27  C   UNL     1       7.953  -7.750  -2.503  0.00  0.00    +0.277 C 
ENDBRANCH  24  26
BRANCH  22  28
ATOM     28  O   UNL     1      10.932  -4.412  -4.488  0.00  0.00    -0.494 OA
ATOM     29  C   UNL     1      11.694  -5.523  -4.010  0.00  0.00    +0.277 C 
ENDBRANCH  22  28
ENDBRANCH  16  19
BRANCH   1  33
ATOM     30  C   UNL     1       0.808  -1.810   0.405  0.00  0.00    +0.120 A 
ATOM     31  C   UNL     1       0.540  -2.949  -0.340  0.00  0.00    +0.046 A 
ATOM     32  C   UNL     1       1.124  -3.114  -1.581  0.00  0.00    +0.009 A 
ATOM     33  C   UNL     1       1.976  -2.145  -2.080  0.00  0.00    -0.024 A 
ATOM     34  C   UNL     1       2.244  -1.010  -1.339  0.00  0.00    +0.009 A 
ATOM     35  C   UNL     1       1.658  -0.837  -0.100  0.00  0.00    +0.046 A 
BRANCH  30  37
ATOM     36  C   UNL     1      -0.629  -2.688   2.083  0.00  0.00    +0.277 C 
ATOM     37  O   UNL     1       0.235  -1.645   1.626  0.00  0.00    -0.495 OA
ENDBRANCH  30  37
ENDBRANCH   1  33
TORSDOF 5
