REMARK  Name = ZINC35486908
REMARK  17 active torsions:
REMARK  status: ('A' for Active; 'I' for Inactive)
REMARK    1  A    between atoms: C_1  and  C_2
REMARK    2  A    between atoms: C_2  and  C_3
REMARK    3  A    between atoms: C_3  and  C_4
REMARK    4  A    between atoms: C_4  and  C_5
REMARK    5  A    between atoms: C_5  and  O_6
REMARK    6  A    between atoms: O_6  and  C_7
REMARK    7  A    between atoms: C_10  and  C_16
REMARK    8  A    between atoms: C_12  and  O_13
REMARK    9  A    between atoms: O_13  and  C_14
REMARK   10  A    between atoms: C_14  and  C_15
REMARK   11  A    between atoms: C_23  and  C_38
REMARK   12  A    between atoms: N_31  and  C_32
REMARK   13  A    between atoms: C_32  and  C_33
REMARK   14  A    between atoms: C_33  and  C_34
REMARK   15  A    between atoms: C_34  and  N_35
REMARK   16  A    between atoms: N_35  and  C_36
REMARK   17  A    between atoms: N_35  and  C_37
REMARK                            x       y       z     vdW  Elec       q    Type
REMARK                         _______ _______ _______ _____ _____    ______ ____
ROOT
ATOM      1  C   UNL     1       4.110  -6.520   6.778  0.00  0.00    +0.145 C 
ATOM      2  C   UNL     1       3.231  -6.507   7.986  0.00  0.00    +0.072 A 
ATOM      3  C   UNL     1       1.899  -7.077   8.218  0.00  0.00    +0.199 A 
ATOM      4  O   UNL     1       1.355  -7.840   7.439  0.00  0.00    -0.287 OA
ATOM      5  C   UNL     1       1.278  -6.637   9.492  0.00  0.00    +0.065 A 
ATOM      6  C   UNL     1      -0.058  -6.928   9.765  0.00  0.00    +0.018 A 
ATOM      7  C   UNL     1      -0.617  -6.511  10.941  0.00  0.00    -0.050 A 
ATOM      8  C   UNL     1       0.141  -5.800  11.861  0.00  0.00    +0.007 A 
ATOM      9  C   UNL     1       1.462  -5.504  11.608  0.00  0.00    +0.047 A 
ATOM     10  C   UNL     1       2.056  -5.921  10.417  0.00  0.00    +0.139 A 
ATOM     11  O   UNL     1       3.358  -5.629  10.195  0.00  0.00    -0.450 OA
ATOM     12  C   UNL     1       3.882  -5.817   8.968  0.00  0.00    +0.199 A 
ATOM     13  C   UNL     1       5.179  -5.365   8.433  0.00  0.00    +0.283 C 
ATOM     14  O   UNL     1       6.000  -4.719   9.053  0.00  0.00    -0.267 OA
ATOM     15  N   UNL     1       5.321  -5.772   7.154  0.00  0.00    -0.284 N 
ATOM     16  C   UNL     1      -2.060  -6.825  11.239  0.00  0.00    +0.044 C 
ENDROOT
BRANCH   1  20
ATOM     17  C   UNL     1       2.146  -4.591   3.505  0.00  0.00    +0.162 A 
ATOM     18  C   UNL     1       2.722  -3.836   4.514  0.00  0.00    +0.050 A 
ATOM     19  C   UNL     1       3.356  -4.462   5.571  0.00  0.00    +0.009 A 
ATOM     20  C   UNL     1       3.417  -5.842   5.624  0.00  0.00    -0.019 A 
ATOM     21  C   UNL     1       2.845  -6.602   4.621  0.00  0.00    +0.055 A 
ATOM     22  C   UNL     1       2.203  -5.980   3.562  0.00  0.00    +0.162 A 
BRANCH  17  23
ATOM     23  O   UNL     1       1.522  -3.976   2.465  0.00  0.00    -0.488 OA
BRANCH  23  24
ATOM     24  C   UNL     1       1.503  -2.548   2.473  0.00  0.00    +0.229 C 
BRANCH  24  25
ATOM     25  C   UNL     1       0.763  -2.041   1.233  0.00  0.00    +0.041 C 
BRANCH  25  26
ATOM     26  C   UNL     1       0.742  -0.511   1.242  0.00  0.00    +0.003 C 
BRANCH  26  28
ATOM     27  C   UNL     1      -0.019   1.526   0.010  0.00  0.00    +0.004 C 
ATOM     28  C   UNL     1       0.002  -0.004   0.002  0.00  0.00    -0.003 C 
ENDBRANCH  26  28
ENDBRANCH  25  26
ENDBRANCH  24  25
ENDBRANCH  23  24
ENDBRANCH  17  23
BRANCH  22  29
ATOM     29  O   UNL     1       1.635  -6.726   2.577  0.00  0.00    -0.489 OA
BRANCH  29  30
ATOM     30  C   UNL     1       1.732  -8.147   2.701  0.00  0.00    +0.226 C 
ATOM     31  C   UNL     1       1.040  -8.811   1.509  0.00  0.00    +0.048 C 
ENDBRANCH  29  30
ENDBRANCH  22  29
ENDBRANCH   1  20
BRANCH  15  32
ATOM     32  C   UNL     1       6.476  -5.516   6.290  0.00  0.00    +0.107 C 
BRANCH  32  33
ATOM     33  C   UNL     1       6.266  -4.204   5.532  0.00  0.00    +0.000 C 
BRANCH  33  34
ATOM     34  C   UNL     1       7.473  -3.937   4.630  0.00  0.00    -0.078 C 
BRANCH  34  35
ATOM     35  N   UNL     1       7.270  -2.677   3.902  0.00  0.00    +0.376 N 
ATOM     36  C   UNL     1       8.478  -2.359   3.129  0.00  0.00    -0.097 C 
ATOM     37  C   UNL     1       6.127  -2.816   2.990  0.00  0.00    -0.097 C 
ATOM     38  H   UNL     1       7.087  -1.934   4.560  0.00  0.00    -0.083 HD
ENDBRANCH  34  35
ENDBRANCH  33  34
ENDBRANCH  32  33
ENDBRANCH  15  32
TORSDOF 12
