REMARK  Name = ZINC59306555
REMARK  7 active torsions:
REMARK  status: ('A' for Active; 'I' for Inactive)
REMARK    1  A    between atoms: C_1  and  C_2
REMARK    2  A    between atoms: C_3  and  C_29
REMARK    3  A    between atoms: C_4  and  C_22
REMARK    4  A    between atoms: C_10  and  C_11
REMARK    5  A    between atoms: C_16  and  O_17
REMARK    6  A    between atoms: O_17  and  C_18
REMARK    7  A    between atoms: N_31  and  C_32
REMARK                            x       y       z     vdW  Elec       q    Type
REMARK                         _______ _______ _______ _____ _____    ______ ____
ROOT
ATOM      1  C   UNL     1      -0.170   0.702  -0.123  0.00  0.00    +0.066 C 
ATOM      2  C   UNL     1      -0.064  -0.693  -0.684  0.00  0.00    +0.051 C 
ATOM      3  C   UNL     1      -0.940  -1.103  -1.648  0.00  0.00    +0.063 C 
ATOM      4  C   UNL     1      -0.800  -2.509  -2.186  0.00  0.00    +0.160 C 
ATOM      5  N   UNL     1       0.293  -3.348  -1.618  0.00  0.00    -0.275 N 
ATOM      6  C   UNL     1       0.575  -4.611  -1.964  0.00  0.00    +0.268 A 
ATOM      7  O   UNL     1      -0.078  -5.190  -2.812  0.00  0.00    -0.266 OA
ATOM      8  C   UNL     1       1.698  -5.276  -1.289  0.00  0.00    +0.081 A 
ATOM      9  C   UNL     1       2.183  -6.534  -1.456  0.00  0.00    +0.032 C 
ATOM     10  S   UNL     1       2.254  -3.982  -0.191  0.00  0.00    -0.046 S 
ATOM     11  C   UNL     1       1.063  -2.739  -0.654  0.00  0.00    +0.178 A 
ATOM     12  N   UNL     1       0.884  -1.510  -0.241  0.00  0.00    -0.228 NA
ENDROOT
BRANCH   4  13
ATOM     13  C   UNL     1      -0.587  -2.417  -3.675  0.00  0.00    -0.020 A 
ATOM     14  C   UNL     1       0.634  -2.002  -4.174  0.00  0.00    +0.007 A 
ATOM     15  C   UNL     1       0.830  -1.918  -5.539  0.00  0.00    +0.020 A 
ATOM     16  C   UNL     1      -0.196  -2.247  -6.407  0.00  0.00    +0.041 A 
ATOM     17  C   UNL     1      -1.418  -2.662  -5.907  0.00  0.00    +0.020 A 
ATOM     18  C   UNL     1      -1.611  -2.752  -4.541  0.00  0.00    +0.007 A 
ATOM     19 CL   UNL     1       0.049  -2.140  -8.122  0.00  0.00    -0.084 Cl
ENDBRANCH   4  13
BRANCH   9  20
ATOM     20  C   UNL     1       1.455  -7.496  -2.291  0.00  0.00    +0.018 A 
ATOM     21  C   UNL     1       0.066  -7.626  -2.168  0.00  0.00    +0.011 A 
ATOM     22  C   UNL     1      -0.610  -8.532  -2.956  0.00  0.00    +0.001 A 
ATOM     23  C   UNL     1       0.077  -9.315  -3.870  0.00  0.00    +0.004 A 
ATOM     24  C   UNL     1       1.448  -9.197  -4.002  0.00  0.00    +0.046 A 
ATOM     25  C   UNL     1       2.146  -8.288  -3.223  0.00  0.00    +0.127 A 
BRANCH  25  26
ATOM     26  O   UNL     1       3.491  -8.167  -3.356  0.00  0.00    -0.495 OA
ATOM     27  C   UNL     1       4.125  -9.005  -4.324  0.00  0.00    +0.277 C 
ENDBRANCH  25  26
ENDBRANCH   9  20
BRANCH   3  28
ATOM     28  C   UNL     1      -1.945  -0.242  -2.127  0.00  0.00    +0.248 C 
ATOM     29  O   UNL     1      -3.094  -0.373  -1.742  0.00  0.00    -0.270 OA
ATOM     30  N   UNL     1      -1.636   0.727  -3.011  0.00  0.00    -0.282 N 
ATOM     31  H   UNL     1      -0.741   0.779  -3.381  0.00  0.00    +0.155 HD
BRANCH  30  32
ATOM     32  C   UNL     1      -2.607   1.657  -3.396  0.00  0.00    +0.034 A 
ATOM     33  C   UNL     1      -3.574   2.069  -2.488  0.00  0.00    +0.023 A 
ATOM     34  C   UNL     1      -4.531   2.989  -2.871  0.00  0.00    +0.002 A 
ATOM     35  C   UNL     1      -4.527   3.499  -4.156  0.00  0.00    +0.000 A 
ATOM     36  C   UNL     1      -3.566   3.090  -5.062  0.00  0.00    +0.002 A 
ATOM     37  C   UNL     1      -2.603   2.175  -4.685  0.00  0.00    +0.023 A 
ENDBRANCH  30  32
ENDBRANCH   3  28
TORSDOF 5
