REMARK  Name = ZINC34971578
REMARK  7 active torsions:
REMARK  status: ('A' for Active; 'I' for Inactive)
REMARK    1  A    between atoms: C_4  and  N_7
REMARK    2  A    between atoms: N_7  and  C_8
REMARK    3  A    between atoms: C_8  and  C_9
REMARK    4  A    between atoms: C_9  and  C_10
REMARK    5  A    between atoms: C_10  and  N_11
REMARK    6  A    between atoms: N_14  and  C_15
REMARK    7  A    between atoms: C_25  and  C_27
REMARK                            x       y       z     vdW  Elec       q    Type
REMARK                         _______ _______ _______ _____ _____    ______ ____
ROOT
ATOM      1  C   UNL     1       3.625  -2.950   0.335  0.00  0.00    +0.038 C 
ENDROOT
BRANCH   1   2
ATOM      2  C   UNL     1       3.893  -1.784   1.288  0.00  0.00    +0.115 C 
BRANCH   2   3
ATOM      3  N   UNL     1       3.690  -0.518   0.579  0.00  0.00    -0.267 N 
ATOM      4  C   UNL     1       4.751   0.239   0.234  0.00  0.00    +0.251 C 
ATOM      5  O   UNL     1       4.580   1.318  -0.300  0.00  0.00    -0.270 OA
BRANCH   4   6
ATOM      6  C   UNL     1       6.121  -0.242   0.504  0.00  0.00    +0.037 A 
ATOM      7  C   UNL     1       6.386  -1.613   0.554  0.00  0.00    +0.014 A 
ATOM      8  C   UNL     1       7.667  -2.056   0.807  0.00  0.00    +0.021 A 
ATOM      9  C   UNL     1       8.690  -1.145   1.012  0.00  0.00    +0.041 A 
ATOM     10  C   UNL     1       8.434   0.215   0.963  0.00  0.00    +0.021 A 
ATOM     11  C   UNL     1       7.158   0.671   0.706  0.00  0.00    +0.014 A 
ATOM     12 CL   UNL     1      10.300  -1.711   1.330  0.00  0.00    -0.084 Cl
ENDBRANCH   4   6
BRANCH   3  16
ATOM     13  C   UNL     1      -0.165   0.743  -0.369  0.00  0.00    +0.000 A 
ATOM     14  C   UNL     1       0.928   1.434  -0.861  0.00  0.00    +0.002 A 
ATOM     15  C   UNL     1       2.207   1.019  -0.548  0.00  0.00    +0.023 A 
ATOM     16  C   UNL     1       2.396  -0.094   0.261  0.00  0.00    +0.037 A 
ATOM     17  C   UNL     1       1.297  -0.786   0.753  0.00  0.00    +0.023 A 
ATOM     18  C   UNL     1       0.020  -0.365   0.437  0.00  0.00    +0.002 A 
ENDBRANCH   3  16
ENDBRANCH   2   3
ENDBRANCH   1   2
BRANCH   1  19
ATOM     19  C   UNL     1       3.837  -4.272   1.075  0.00  0.00    +0.107 C 
BRANCH  19  20
ATOM     20  N   UNL     1       3.580  -5.389   0.163  0.00  0.00    -0.299 N 
ATOM     21  C   UNL     1       3.705  -6.658   0.599  0.00  0.00    +0.300 C 
ATOM     22  O   UNL     1       4.032  -6.876   1.749  0.00  0.00    -0.253 OA
ATOM     23  N   UNL     1       3.469  -7.686  -0.241  0.00  0.00    -0.294 N 
ATOM     24  H   UNL     1       3.319  -5.216  -0.755  0.00  0.00    +0.150 HD
ATOM     25  H   UNL     1       3.208  -7.512  -1.159  0.00  0.00    +0.151 HD
BRANCH  23  26
ATOM     26  C   UNL     1       3.606  -9.065   0.233  0.00  0.00    +0.037 C 
ATOM     27  C   UNL     1       5.040  -9.301   0.711  0.00  0.00    +0.029 C 
ATOM     28  C   UNL     1       5.183 -10.742   1.206  0.00  0.00    -0.008 C 
ATOM     29  C   UNL     1       4.860 -11.707   0.064  0.00  0.00    +0.007 C 
ATOM     30  C   UNL     1       3.426 -11.472  -0.413  0.00  0.00    -0.008 C 
ATOM     31  C   UNL     1       3.283 -10.031  -0.909  0.00  0.00    +0.029 C 
ATOM     32  C   UNL     1       2.457 -11.711   0.746  0.00  0.00    +0.007 C 
ATOM     33  C   UNL     1       2.779 -10.745   1.888  0.00  0.00    -0.008 C 
ATOM     34  C   UNL     1       4.213 -10.981   2.365  0.00  0.00    +0.007 C 
ATOM     35  C   UNL     1       2.636  -9.305   1.393  0.00  0.00    +0.029 C 
ENDBRANCH  23  26
ENDBRANCH  19  20
ENDBRANCH   1  19
TORSDOF 7
