REMARK  Name = ZINC35156421
REMARK  10 active torsions:
REMARK  status: ('A' for Active; 'I' for Inactive)
REMARK    1  A    between atoms: C_4  and  C_7
REMARK    2  A    between atoms: C_7  and  C_8
REMARK    3  A    between atoms: C_8  and  N_9
REMARK    4  A    between atoms: C_10  and  C_12
REMARK    5  A    between atoms: C_12  and  C_13
REMARK    6  A    between atoms: C_13  and  C_14
REMARK    7  A    between atoms: C_14  and  S_15
REMARK    8  A    between atoms: S_15  and  C_16
REMARK    9  A    between atoms: N_26  and  C_27
REMARK   10  A    between atoms: C_27  and  C_28
REMARK                            x       y       z     vdW  Elec       q    Type
REMARK                         _______ _______ _______ _____ _____    ______ ____
ROOT
ATOM      1  C   UNL     1      11.235  -4.911   5.457  0.00  0.00    +0.211 A 
ATOM      2  N   UNL     1      11.905  -5.291   6.537  0.00  0.00    -0.201 NA
ATOM      3  C   UNL     1      13.059  -5.937   6.393  0.00  0.00    +0.165 A 
ATOM      4  C   UNL     1      13.524  -6.192   5.087  0.00  0.00    +0.138 A 
ATOM      5  C   UNL     1      14.803  -6.909   5.236  0.00  0.00    +0.029 A 
ATOM      6  C   UNL     1      15.727  -7.422   4.330  0.00  0.00    +0.012 A 
ATOM      7  C   UNL     1      16.860  -8.058   4.792  0.00  0.00    +0.001 A 
ATOM      8  C   UNL     1      17.080  -8.187   6.155  0.00  0.00    +0.002 A 
ATOM      9  C   UNL     1      16.173  -7.684   7.063  0.00  0.00    +0.026 A 
ATOM     10  C   UNL     1      15.025  -7.039   6.615  0.00  0.00    +0.053 A 
ATOM     11  N   UNL     1      13.966  -6.449   7.287  0.00  0.00    -0.319 N 
ATOM     12  N   UNL     1      12.807  -5.787   4.049  0.00  0.00    -0.143 NA
ATOM     13  N   UNL     1      11.692  -5.168   4.236  0.00  0.00    -0.122 NA
ENDROOT
BRANCH   1  14
ATOM     14  S   UNL     1       9.706  -4.056   5.646  0.00  0.00    -0.084 S 
BRANCH  14  15
ATOM     15  C   UNL     1       9.161  -3.752   3.943  0.00  0.00    +0.078 C 
BRANCH  15  16
ATOM     16  C   UNL     1       7.825  -3.005   3.960  0.00  0.00    +0.020 C 
BRANCH  16  17
ATOM     17  C   UNL     1       7.365  -2.749   2.524  0.00  0.00    +0.096 C 
BRANCH  17  19
ATOM     18  N   UNL     1       5.450  -1.678   1.382  0.00  0.00    -0.315 N 
ATOM     19  C   UNL     1       6.050  -2.013   2.541  0.00  0.00    +0.213 C 
ATOM     20  O   UNL     1       5.532  -1.722   3.599  0.00  0.00    -0.276 OA
ATOM     21  H   UNL     1       5.864  -1.911   0.536  0.00  0.00    +0.149 HD
BRANCH  18  22
ATOM     22  C   UNL     1       4.171  -0.963   1.399  0.00  0.00    +0.109 C 
BRANCH  22  23
ATOM     23  C   UNL     1       3.711  -0.707  -0.038  0.00  0.00    +0.054 C 
BRANCH  23  27
ATOM     24  C   UNL     1      -0.017   1.378   0.010  0.00  0.00    +0.000 A 
ATOM     25  C   UNL     1       1.171   2.086   0.002  0.00  0.00    +0.000 A 
ATOM     26  C   UNL     1       2.377   1.411  -0.013  0.00  0.00    +0.004 A 
ATOM     27  C   UNL     1       2.396   0.029  -0.020  0.00  0.00    -0.046 A 
ATOM     28  C   UNL     1       1.208  -0.679  -0.012  0.00  0.00    +0.004 A 
ATOM     29  C   UNL     1       0.002  -0.004   0.002  0.00  0.00    +0.000 A 
ENDBRANCH  23  27
ENDBRANCH  22  23
ENDBRANCH  18  22
ENDBRANCH  17  19
ENDBRANCH  16  17
ENDBRANCH  15  16
ENDBRANCH  14  15
ENDBRANCH   1  14
BRANCH  11  30
ATOM     30  C   UNL     1      13.834  -6.381   8.744  0.00  0.00    +0.159 C 
BRANCH  30  31
ATOM     31  C   UNL     1      13.095  -7.597   9.239  0.00  0.00    -0.028 A 
ATOM     32  C   UNL     1      11.716  -7.574   9.339  0.00  0.00    +0.008 A 
ATOM     33  C   UNL     1      11.037  -8.689   9.793  0.00  0.00    +0.038 A 
ATOM     34  C   UNL     1      11.739  -9.830  10.147  0.00  0.00    +0.123 A 
ATOM     35  C   UNL     1      13.119  -9.851  10.046  0.00  0.00    +0.038 A 
ATOM     36  C   UNL     1      13.796  -8.737   9.588  0.00  0.00    +0.008 A 
ATOM     37  F   UNL     1      11.076 -10.920  10.591  0.00  0.00    -0.205 F 
ENDBRANCH  30  31
ENDBRANCH  11  30
TORSDOF 10
