REMARK  Name = ZINC41019446
REMARK  7 active torsions:
REMARK  status: ('A' for Active; 'I' for Inactive)
REMARK    1  A    between atoms: C_4  and  C_7
REMARK    2  A    between atoms: C_10  and  C_12
REMARK    3  A    between atoms: C_12  and  C_13
REMARK    4  A    between atoms: C_13  and  C_14
REMARK    5  A    between atoms: N_16  and  C_17
REMARK    6  A    between atoms: C_25  and  C_26
REMARK    7  A    between atoms: C_26  and  C_28
REMARK                            x       y       z     vdW  Elec       q    Type
REMARK                         _______ _______ _______ _____ _____    ______ ____
ROOT
ATOM      1  C   UNL     1       7.529  -7.363   2.493  0.00  0.00    +0.091 A 
ATOM      2  C   UNL     1       8.196  -8.043   1.375  0.00  0.00    +0.042 A 
ATOM      3  C   UNL     1       8.521  -7.670   0.070  0.00  0.00    +0.013 A 
ATOM      4  C   UNL     1       9.161  -8.558  -0.749  0.00  0.00    +0.001 A 
ATOM      5  C   UNL     1       9.488  -9.827  -0.290  0.00  0.00    +0.004 A 
ATOM      6  C   UNL     1       9.174 -10.213   0.996  0.00  0.00    +0.047 A 
ATOM      7  C   UNL     1       8.524  -9.326   1.846  0.00  0.00    +0.138 A 
ATOM      8  O   UNL     1       8.101  -9.423   3.123  0.00  0.00    -0.450 OA
ATOM      9  C   UNL     1       7.516  -8.275   3.530  0.00  0.00    +0.197 A 
ENDROOT
BRANCH   1  12
ATOM     10  C   UNL     1       6.473  -5.551   1.390  0.00  0.00    +0.218 C 
ATOM     11  O   UNL     1       6.508  -6.174   0.350  0.00  0.00    -0.275 OA
ATOM     12  N   UNL     1       7.023  -6.071   2.506  0.00  0.00    -0.282 N 
ATOM     13  H   UNL     1       7.065  -5.541   3.317  0.00  0.00    +0.155 HD
BRANCH  10  14
ATOM     14  C   UNL     1       5.816  -4.195   1.435  0.00  0.00    +0.105 C 
BRANCH  14  15
ATOM     15  C   UNL     1       5.277  -3.843   0.047  0.00  0.00    +0.105 C 
BRANCH  15  19
ATOM     16  C   UNL     1       3.127  -0.924   0.309  0.00  0.00    +0.155 A 
ATOM     17  C   UNL     1       4.322  -0.359  -0.003  0.00  0.00    +0.161 A 
ATOM     18  N   UNL     1       5.217  -1.350  -0.129  0.00  0.00    -0.221 NA
ATOM     19  C   UNL     1       4.620  -2.488   0.092  0.00  0.00    +0.197 A 
ATOM     20  O   UNL     1       3.330  -2.258   0.371  0.00  0.00    -0.440 OA
BRANCH  16  24
ATOM     21  C   UNL     1      -0.538   1.115   0.981  0.00  0.00    +0.000 A 
ATOM     22  C   UNL     1       0.601   1.833   0.664  0.00  0.00    +0.001 A 
ATOM     23  C   UNL     1       1.795   1.177   0.444  0.00  0.00    +0.011 A 
ATOM     24  C   UNL     1       1.852  -0.214   0.544  0.00  0.00    +0.019 A 
ATOM     25  C   UNL     1       0.699  -0.933   0.865  0.00  0.00    +0.011 A 
ATOM     26  C   UNL     1      -0.488  -0.265   1.081  0.00  0.00    +0.001 A 
ENDBRANCH  16  24
ENDBRANCH  15  19
ENDBRANCH  14  15
ENDBRANCH  10  14
ENDBRANCH   1  12
BRANCH   9  27
ATOM     27  C   UNL     1       6.971  -8.044   4.817  0.00  0.00    +0.230 C 
ATOM     28  O   UNL     1       6.374  -7.008   5.049  0.00  0.00    -0.283 OA
BRANCH  27  29
ATOM     29  C   UNL     1       7.128  -9.061   5.880  0.00  0.00    +0.026 A 
ATOM     30  C   UNL     1       7.702 -10.299   5.586  0.00  0.00    +0.013 A 
ATOM     31  C   UNL     1       7.845 -11.243   6.581  0.00  0.00    +0.016 A 
ATOM     32  C   UNL     1       7.420 -10.965   7.869  0.00  0.00    +0.018 A 
ATOM     33  C   UNL     1       6.850  -9.739   8.167  0.00  0.00    +0.016 A 
ATOM     34  C   UNL     1       6.707  -8.784   7.182  0.00  0.00    +0.013 A 
ATOM     35 BR   UNL     1       7.620 -12.265   9.227  0.00  0.00    -0.050 Br
ENDBRANCH  27  29
ENDBRANCH   9  27
TORSDOF 7
