REMARK  Name = ZINC35930144
REMARK  3 active torsions:
REMARK  status: ('A' for Active; 'I' for Inactive)
REMARK    1  A    between atoms: C_15  and  C_30
REMARK    2  A    between atoms: C_17  and  N_29
REMARK    3  A    between atoms: N_18  and  C_22
REMARK                            x       y       z     vdW  Elec       q    Type
REMARK                         _______ _______ _______ _____ _____    ______ ____
ROOT
ATOM      1  C   UNL     1       2.298   1.436   0.600  0.00  0.00    +0.005 A 
ATOM      2  C   UNL     1       1.053   2.044   0.685  0.00  0.00    +0.018 A 
ATOM      3  C   UNL     1      -0.084   1.262   0.672  0.00  0.00    +0.084 A 
ATOM      4  N   UNL     1      -0.001  -0.052   0.581  0.00  0.00    -0.350 N 
ATOM      5  C   UNL     1       1.167  -0.669   0.499  0.00  0.00    +0.099 A 
ATOM      6  C   UNL     1       2.354   0.057   0.506  0.00  0.00    +0.042 A 
ATOM      7  N   UNL     1       1.208  -2.055   0.405  0.00  0.00    -0.314 N 
ATOM      8  C   UNL     1       2.481  -2.752   0.172  0.00  0.00    +0.125 C 
ATOM      9  C   UNL     1       2.686  -3.786   1.285  0.00  0.00    +0.127 C 
ATOM     10  N   UNL     1       1.457  -4.582   1.419  0.00  0.00    -0.297 N 
ATOM     11  C   UNL     1       0.184  -3.886   1.652  0.00  0.00    +0.127 C 
ATOM     12  C   UNL     1      -0.019  -2.851   0.544  0.00  0.00    +0.125 C 
ATOM     13  C   UNL     1       1.498  -5.961   1.325  0.00  0.00    +0.220 A 
ATOM     14  N   UNL     1       0.358  -6.634   1.447  0.00  0.00    -0.214 NA
ATOM     15  C   UNL     1       0.307  -7.958   1.370  0.00  0.00    +0.089 A 
ATOM     16  C   UNL     1       1.513  -8.662   1.151  0.00  0.00    +0.086 A 
ATOM     17  C   UNL     1       1.875  -9.996   1.014  0.00  0.00    +0.131 A 
ATOM     18  N   UNL     1       3.208 -10.037   0.819  0.00  0.00    -0.216 N 
ATOM     19  N   UNL     1       3.729  -8.738   0.826  0.00  0.00    -0.144 NA
ATOM     20  C   UNL     1       2.754  -7.878   1.021  0.00  0.00    +0.189 A 
ATOM     21  N   UNL     1       2.665  -6.537   1.115  0.00  0.00    -0.193 NA
ATOM     22  H   UNL     1      -0.816  -0.578   0.575  0.00  0.00    +0.166 HD
ENDROOT
BRANCH  18  23
ATOM     23  C   UNL     1       3.959 -11.204   0.636  0.00  0.00    +0.070 A 
ATOM     24  C   UNL     1       3.608 -12.369   1.307  0.00  0.00    +0.028 A 
ATOM     25  C   UNL     1       4.350 -13.519   1.126  0.00  0.00    +0.005 A 
ATOM     26  C   UNL     1       5.442 -13.514   0.278  0.00  0.00    +0.038 A 
ATOM     27  C   UNL     1       5.796 -12.355  -0.393  0.00  0.00    +0.125 A 
ATOM     28  C   UNL     1       5.052 -11.201  -0.220  0.00  0.00    +0.066 A 
ATOM     29  F   UNL     1       6.864 -12.352  -1.220  0.00  0.00    -0.205 F 
ENDBRANCH  18  23
BRANCH  15  30
ATOM     30  C   UNL     1      -0.978  -8.678   1.511  0.00  0.00    +0.001 A 
ATOM     31  C   UNL     1      -1.072  -9.784   2.357  0.00  0.00    +0.013 A 
ATOM     32  C   UNL     1      -2.271 -10.451   2.484  0.00  0.00    +0.039 A 
ATOM     33  C   UNL     1      -3.383 -10.025   1.774  0.00  0.00    +0.123 A 
ATOM     34  C   UNL     1      -3.295  -8.928   0.932  0.00  0.00    +0.039 A 
ATOM     35  C   UNL     1      -2.101  -8.250   0.802  0.00  0.00    +0.013 A 
ATOM     36  F   UNL     1      -4.556 -10.683   1.903  0.00  0.00    -0.205 F 
ENDBRANCH  15  30
BRANCH  17  37
ATOM     37  N   UNL     1       1.024 -11.084   1.069  0.00  0.00    -0.342 N 
ATOM     38  H   UNL     1       0.064 -10.947   1.107  0.00  0.00    +0.144 HD
ATOM     39  H   UNL     1       1.386 -11.984   1.068  0.00  0.00    +0.144 HD
ENDBRANCH  17  37
TORSDOF 3
