REMARK  Name = ZINC44774682
REMARK  4 active torsions:
REMARK  status: ('A' for Active; 'I' for Inactive)
REMARK    1  A    between atoms: C_5  and  N_8
REMARK    2  A    between atoms: C_9  and  C_11
REMARK    3  A    between atoms: C_11  and  C_16
REMARK    4  A    between atoms: C_16  and  N_18
REMARK                            x       y       z     vdW  Elec       q    Type
REMARK                         _______ _______ _______ _____ _____    ______ ____
ROOT
ATOM      1  N   UNL     1       1.171  -2.035   0.035  0.00  0.00    -0.282 N 
ATOM      2  C   UNL     1       0.114  -2.770   0.434  0.00  0.00    +0.230 C 
ATOM      3  O   UNL     1      -0.920  -2.222   0.753  0.00  0.00    -0.274 OA
ATOM      4  H   UNL     1       1.980  -2.474  -0.270  0.00  0.00    +0.155 HD
ENDROOT
BRANCH   1   9
ATOM      5  C   UNL     1       1.541   1.486  -0.969  0.00  0.00    +0.037 A 
ATOM      6  C   UNL     1       0.963   2.129   0.112  0.00  0.00    +0.021 A 
ATOM      7  C   UNL     1       0.454   1.393   1.167  0.00  0.00    +0.037 A 
ATOM      8  C   UNL     1       0.521   0.012   1.144  0.00  0.00    +0.065 A 
ATOM      9  C   UNL     1       1.101  -0.636   0.061  0.00  0.00    +0.071 A 
ATOM     10  C   UNL     1       1.611   0.106  -0.997  0.00  0.00    +0.065 A 
ATOM     11 CL   UNL     1       2.336  -0.700  -2.354  0.00  0.00    -0.082 Cl
ATOM     12 CL   UNL     1      -0.117  -0.910   2.469  0.00  0.00    -0.082 Cl
ATOM     13 BR   UNL     1       0.870   4.017   0.147  0.00  0.00    -0.050 Br
ENDBRANCH   1   9
BRANCH   2  14
ATOM     14  C   UNL     1       0.217  -4.272   0.485  0.00  0.00    +0.091 C 
ATOM     15  C   UNL     1       0.623  -4.820  -0.895  0.00  0.00    +0.023 C 
ATOM     16  C   UNL     1      -0.521  -5.747  -1.355  0.00  0.00    +0.001 C 
ATOM     17  C   UNL     1      -1.757  -5.244  -0.569  0.00  0.00    +0.001 C 
ATOM     18  C   UNL     1      -1.160  -4.886   0.814  0.00  0.00    +0.023 C 
BRANCH  14  19
ATOM     19  C   UNL     1       1.228  -4.686   1.523  0.00  0.00    +0.061 C 
ATOM     20  S   UNL     1       0.753  -5.465   2.836  0.00  0.00    -0.040 S 
BRANCH  19  21
ATOM     21  N   UNL     1       2.533  -4.398   1.345  0.00  0.00    -0.355 N 
ATOM     22  H   UNL     1       2.812  -3.866   0.584  0.00  0.00    +0.143 HD
ATOM     23  H   UNL     1       3.192  -4.723   1.978  0.00  0.00    +0.143 HD
ENDBRANCH  19  21
ENDBRANCH  14  19
ENDBRANCH   2  14
TORSDOF 4
