REMARK  Name = ZINC67337329
REMARK  10 active torsions:
REMARK  status: ('A' for Active; 'I' for Inactive)
REMARK    1  A    between atoms: C_1  and  C_2
REMARK    2  A    between atoms: C_2  and  N_3
REMARK    3  A    between atoms: C_5  and  C_24
REMARK    4  A    between atoms: C_6  and  S_8
REMARK    5  A    between atoms: S_8  and  N_11
REMARK    6  A    between atoms: N_14  and  C_17
REMARK    7  A    between atoms: N_29  and  C_32
REMARK    8  A    between atoms: C_32  and  C_33
REMARK    9  A    between atoms: C_33  and  C_34
REMARK   10  A    between atoms: C_33  and  C_35
REMARK                            x       y       z     vdW  Elec       q    Type
REMARK                         _______ _______ _______ _____ _____    ______ ____
ROOT
ATOM      1  N   UNL     1      -1.331  -0.646   0.122  0.00  0.00    -0.269 N 
ATOM      2  C   UNL     1      -1.838  -1.595  -0.681  0.00  0.00    +0.123 A 
ATOM      3  C   UNL     1      -3.209  -1.587  -0.517  0.00  0.00    +0.101 A 
ATOM      4  C   UNL     1      -3.509  -0.582   0.430  0.00  0.00    +0.227 A 
ATOM      5  N   UNL     1      -2.387  -0.034   0.807  0.00  0.00    -0.150 NA
ENDROOT
BRANCH   3   6
ATOM      6  C   UNL     1      -4.178  -2.462  -1.201  0.00  0.00    +0.251 C 
ATOM      7  O   UNL     1      -5.249  -2.017  -1.565  0.00  0.00    -0.270 OA
ATOM      8  N   UNL     1      -3.877  -3.757  -1.422  0.00  0.00    -0.301 N 
ATOM      9  C   UNL     1      -2.642  -4.349  -0.884  0.00  0.00    +0.089 C 
ATOM     10  C   UNL     1      -3.004  -5.645  -0.151  0.00  0.00    -0.060 C 
ATOM     11  N   UNL     1      -3.754  -6.525  -1.056  0.00  0.00    +0.382 N 
ATOM     12  C   UNL     1      -5.035  -5.902  -1.412  0.00  0.00    -0.060 C 
ATOM     13  C   UNL     1      -4.776  -4.620  -2.203  0.00  0.00    +0.089 C 
ATOM     14  H   UNL     1      -3.214  -6.684  -1.893  0.00  0.00    -0.082 HD
BRANCH  11  15
ATOM     15  C   UNL     1      -4.005  -7.810  -0.390  0.00  0.00    -0.076 C 
BRANCH  15  16
ATOM     16  C   UNL     1      -4.676  -8.772  -1.373  0.00  0.00    -0.034 C 
ATOM     17  C   UNL     1      -3.709  -9.091  -2.515  0.00  0.00    +0.005 C 
ATOM     18  C   UNL     1      -5.050 -10.065  -0.646  0.00  0.00    +0.005 C 
ENDBRANCH  15  16
ENDBRANCH  11  15
ENDBRANCH   3   6
BRANCH   4  19
ATOM     19  S   UNL     1      -5.117  -0.150   1.007  0.00  0.00    +0.081 S 
ATOM     20  O   UNL     1      -5.544   0.958   0.227  0.00  0.00    -0.151 OA
ATOM     21  O   UNL     1      -5.860  -1.359   1.083  0.00  0.00    -0.151 OA
BRANCH  19  22
ATOM     22  N   UNL     1      -4.949   0.400   2.559  0.00  0.00    -0.172 NA
ATOM     23  C   UNL     1      -5.028  -0.529   3.695  0.00  0.00    +0.128 C 
ATOM     24  C   UNL     1      -3.751  -0.388   4.533  0.00  0.00    +0.122 C 
ATOM     25  N   UNL     1      -3.520   1.039   4.800  0.00  0.00    -0.326 N 
ATOM     26  C   UNL     1      -3.442   1.969   3.664  0.00  0.00    +0.122 C 
ATOM     27  C   UNL     1      -4.713   1.826   2.826  0.00  0.00    +0.128 C 
BRANCH  25  28
ATOM     28  C   UNL     1      -3.379   1.504   6.111  0.00  0.00    +0.048 A 
ATOM     29  C   UNL     1      -2.121   1.561   6.697  0.00  0.00    +0.024 A 
ATOM     30  C   UNL     1      -1.984   2.021   7.992  0.00  0.00    +0.002 A 
ATOM     31  C   UNL     1      -3.097   2.424   8.706  0.00  0.00    +0.002 A 
ATOM     32  C   UNL     1      -4.351   2.369   8.126  0.00  0.00    +0.022 A 
ATOM     33  C   UNL     1      -4.495   1.915   6.829  0.00  0.00    +0.062 A 
ATOM     34 CL   UNL     1      -6.069   1.852   6.099  0.00  0.00    -0.082 Cl
ENDBRANCH  25  28
ENDBRANCH  19  22
ENDBRANCH   4  19
BRANCH   1  36
ATOM     35  C   UNL     1       0.289   1.182  -0.001  0.00  0.00    +0.029 C 
ATOM     36  C   UNL     1       0.088  -0.312   0.263  0.00  0.00    +0.140 C 
ENDBRANCH   1  36
TORSDOF 7
