REMARK  Name = ZINC39947080
REMARK  9 active torsions:
REMARK  status: ('A' for Active; 'I' for Inactive)
REMARK    1  A    between atoms: C_1  and  S_2
REMARK    2  A    between atoms: S_2  and  N_5
REMARK    3  A    between atoms: N_5  and  C_6
REMARK    4  A    between atoms: C_9  and  C_12
REMARK    5  A    between atoms: C_12  and  C_13
REMARK    6  A    between atoms: C_16  and  C_19
REMARK    7  A    between atoms: C_22  and  C_29
REMARK    8  A    between atoms: C_29  and  C_30
REMARK    9  A    between atoms: C_30  and  N_31
REMARK                            x       y       z     vdW  Elec       q    Type
REMARK                         _______ _______ _______ _____ _____    ______ ____
ROOT
ATOM      1  C   UNL     1       7.084   0.467  -0.339  0.00  0.00    +0.142 C 
ATOM      2  N   UNL     1       6.497  -0.211   0.579  0.00  0.00    -0.071 NA
ATOM      3  O   UNL     1       7.412  -0.600   1.586  0.00  0.00    -0.365 OA
ATOM      4  C   UNL     1       8.691  -0.077   1.194  0.00  0.00    +0.323 C 
ATOM      5  N   UNL     1       8.427   0.612  -0.079  0.00  0.00    -0.289 N 
ATOM      6  H   UNL     1       9.075   1.080  -0.629  0.00  0.00    +0.151 HD
ENDROOT
BRANCH   4   7
ATOM      7  C   UNL     1       9.204   0.892   2.229  0.00  0.00    +0.014 C 
ATOM      8  C   UNL     1      10.407   0.666   2.838  0.00  0.00    +0.015 C 
ATOM      9  C   UNL     1      10.759   1.601   3.829  0.00  0.00    -0.014 C 
ATOM     10  C   UNL     1      11.939   2.071   4.264  0.00  0.00    -0.026 C 
ATOM     11  C   UNL     1      11.720   3.212   5.069  0.00  0.00    +0.109 C 
ATOM     12  N   UNL     1      10.452   3.429   5.276  0.00  0.00    -0.279 NA
ATOM     13  C   UNL     1       9.712   2.353   4.634  0.00  0.00    +0.158 C 
ATOM     14  C   UNL     1       8.640   2.793   3.682  0.00  0.00    +0.005 C 
ATOM     15  C   UNL     1       8.418   2.073   2.575  0.00  0.00    +0.007 C 
BRANCH  10  16
ATOM     16  C   UNL     1      13.287   1.476   3.945  0.00  0.00    +0.017 C 
BRANCH  16  17
ATOM     17  C   UNL     1      13.893   2.203   2.742  0.00  0.00    -0.082 C 
BRANCH  17  18
ATOM     18  N   UNL     1      15.206   1.623   2.431  0.00  0.00    +0.378 N 
ATOM     19  H   UNL     1      15.606   2.102   1.638  0.00  0.00    -0.090 HD
ATOM     20  H   UNL     1      15.816   1.724   3.228  0.00  0.00    -0.090 HD
ATOM     21  H   UNL     1      15.098   0.643   2.213  0.00  0.00    -0.090 HD
ENDBRANCH  17  18
ENDBRANCH  16  17
ENDBRANCH  10  16
ENDBRANCH   4   7
BRANCH   1  22
ATOM     22  C   UNL     1       6.390   1.028  -1.554  0.00  0.00    +0.110 C 
BRANCH  22  26
ATOM     23  C   UNL     1       2.238   0.024  -1.414  0.00  0.00    +0.048 A 
ATOM     24  C   UNL     1       2.688   1.204  -0.838  0.00  0.00    +0.025 A 
ATOM     25  C   UNL     1       4.031   1.526  -0.884  0.00  0.00    +0.006 A 
ATOM     26  C   UNL     1       4.926   0.674  -1.504  0.00  0.00    -0.040 A 
ATOM     27  C   UNL     1       4.481  -0.502  -2.079  0.00  0.00    +0.006 A 
ATOM     28  C   UNL     1       3.141  -0.833  -2.031  0.00  0.00    +0.025 A 
BRANCH  23  29
ATOM     29  N   UNL     1       0.881  -0.304  -1.369  0.00  0.00    -0.221 N 
ATOM     30  H   UNL     1       0.334  -0.215  -2.165  0.00  0.00    +0.173 HD
BRANCH  29  32
ATOM     31  C   UNL     1       1.053  -2.412   0.394  0.00  0.00    +0.218 C 
ATOM     32  S   UNL     1       0.207  -0.845   0.044  0.00  0.00    +0.040 S 
ATOM     33  O   UNL     1      -1.157  -1.086  -0.274  0.00  0.00    -0.155 OA
ATOM     34  O   UNL     1       0.563   0.131   1.013  0.00  0.00    -0.155 OA
ENDBRANCH  29  32
ENDBRANCH  23  29
ENDBRANCH  22  26
ENDBRANCH   1  22
TORSDOF 8
