REMARK  Name = ZINC09805886
REMARK  12 active torsions:
REMARK  status: ('A' for Active; 'I' for Inactive)
REMARK    1  A    between atoms: C_1  and  C_2
REMARK    2  A    between atoms: C_2  and  N_3
REMARK    3  A    between atoms: C_14  and  N_16
REMARK    4  A    between atoms: C_17  and  C_19
REMARK    5  A    between atoms: C_19  and  C_20
REMARK    6  A    between atoms: C_20  and  C_22
REMARK    7  A    between atoms: C_20  and  C_23
REMARK    8  A    between atoms: C_23  and  C_24
REMARK    9  A    between atoms: N_26  and  C_27
REMARK   10  A    between atoms: C_30  and  C_33
REMARK   11  A    between atoms: C_33  and  C_34
REMARK   12  A    between atoms: C_33  and  C_35
REMARK                            x       y       z     vdW  Elec       q    Type
REMARK                         _______ _______ _______ _____ _____    ______ ____
ROOT
ATOM      1  N   UNL     1      -0.711   8.841   0.043  0.00  0.00    -0.285 N 
ATOM      2  C   UNL     1      -0.125  10.051   0.140  0.00  0.00    +0.217 C 
ATOM      3  O   UNL     1       1.084  10.143   0.114  0.00  0.00    -0.275 OA
ATOM      4  H   UNL     1      -1.677   8.774  -0.011  0.00  0.00    +0.155 HD
ENDROOT
BRANCH   1  16
ATOM      5  N   UNL     1       2.567   4.366   0.112  0.00  0.00    -0.340 N 
ATOM      6  C   UNL     1       3.587   4.789   0.944  0.00  0.00    +0.050 A 
ATOM      7  C   UNL     1       4.746   4.165   1.397  0.00  0.00    +0.026 A 
ATOM      8  C   UNL     1       5.606   4.836   2.240  0.00  0.00    +0.002 A 
ATOM      9  C   UNL     1       5.326   6.131   2.649  0.00  0.00    +0.001 A 
ATOM     10  C   UNL     1       4.187   6.767   2.206  0.00  0.00    +0.010 A 
ATOM     11  C   UNL     1       3.309   6.101   1.354  0.00  0.00    +0.008 A 
ATOM     12  C   UNL     1       2.033   6.478   0.718  0.00  0.00    +0.009 A 
ATOM     13  C   UNL     1       1.622   5.369  -0.037  0.00  0.00    +0.050 A 
ATOM     14  C   UNL     1       0.433   5.434  -0.757  0.00  0.00    +0.028 A 
ATOM     15  C   UNL     1      -0.331   6.580  -0.727  0.00  0.00    +0.025 A 
ATOM     16  C   UNL     1       0.075   7.681   0.021  0.00  0.00    +0.034 A 
ATOM     17  C   UNL     1       1.256   7.633   0.743  0.00  0.00    +0.034 A 
BRANCH   5  19
ATOM     18  C   UNL     1       1.750   2.079   0.398  0.00  0.00    +0.027 C 
ATOM     19  C   UNL     1       2.495   3.048  -0.523  0.00  0.00    +0.119 C 
ENDBRANCH   5  19
ENDBRANCH   1  16
BRANCH   2  20
ATOM     20  C   UNL     1      -0.972  11.290   0.279  0.00  0.00    +0.100 C 
BRANCH  20  21
ATOM     21  C   UNL     1      -0.066  12.520   0.368  0.00  0.00    +0.003 C 
ATOM     22  C   UNL     1       0.691  12.693  -0.951  0.00  0.00    +0.008 C 
BRANCH  21  23
ATOM     23  C   UNL     1      -0.918  13.762   0.634  0.00  0.00    +0.100 C 
BRANCH  23  24
ATOM     24  C   UNL     1      -0.018  14.953   0.844  0.00  0.00    +0.217 C 
ATOM     25  O   UNL     1       1.187  14.820   0.786  0.00  0.00    -0.275 OA
ATOM     26  N   UNL     1      -0.551  16.165   1.096  0.00  0.00    -0.285 N 
ATOM     27  H   UNL     1      -1.510  16.259   1.208  0.00  0.00    +0.155 HD
BRANCH  26  28
ATOM     28  C   UNL     1       0.279  17.287   1.195  0.00  0.00    +0.033 A 
ATOM     29  C   UNL     1       1.541  17.172   1.761  0.00  0.00    +0.023 A 
ATOM     30  C   UNL     1       2.359  18.280   1.853  0.00  0.00    +0.006 A 
ATOM     31  C   UNL     1       1.919  19.507   1.391  0.00  0.00    -0.045 A 
ATOM     32  C   UNL     1       0.660  19.627   0.831  0.00  0.00    +0.006 A 
ATOM     33  C   UNL     1      -0.161  18.520   0.731  0.00  0.00    +0.023 A 
BRANCH  31  34
ATOM     34  C   UNL     1       2.812  20.716   1.497  0.00  0.00    +0.013 C 
ATOM     35  C   UNL     1       3.149  20.974   2.967  0.00  0.00    +0.012 C 
ATOM     36  C   UNL     1       4.103  20.466   0.714  0.00  0.00    +0.012 C 
ENDBRANCH  31  34
ENDBRANCH  26  28
ENDBRANCH  23  24
ENDBRANCH  21  23
ENDBRANCH  20  21
ENDBRANCH   2  20
TORSDOF 8
