REMARK  Name = ZINC04899492
REMARK  5 active torsions:
REMARK  status: ('A' for Active; 'I' for Inactive)
REMARK    1  A    between atoms: C_6  and  N_11
REMARK    2  A    between atoms: C_12  and  C_14
REMARK    3  A    between atoms: C_14  and  C_16
REMARK    4  A    between atoms: C_14  and  N_44
REMARK    5  A    between atoms: C_16  and  C_17
REMARK                            x       y       z     vdW  Elec       q    Type
REMARK                         _______ _______ _______ _____ _____    ______ ____
ROOT
ATOM      1  C   UNL     1       2.200   9.531   0.243  0.00  0.00    +0.017 C 
ENDROOT
BRANCH   1   3
ATOM      2  N   UNL     1       1.064   7.345   0.028  0.00  0.00    -0.287 N 
ATOM      3  C   UNL     1       2.221   8.029   0.122  0.00  0.00    +0.203 C 
ATOM      4  O   UNL     1       3.279   7.437   0.109  0.00  0.00    -0.277 OA
ATOM      5  H   UNL     1       0.222   7.822  -0.039  0.00  0.00    +0.155 HD
BRANCH   2  11
ATOM      6  C   UNL     1       0.230   1.079  -0.681  0.00  0.00    +0.001 A 
ATOM      7  C   UNL     1      -0.727   1.752  -1.438  0.00  0.00    +0.001 A 
ATOM      8  C   UNL     1      -0.775   3.112  -1.457  0.00  0.00    +0.008 A 
ATOM      9  C   UNL     1       0.160   3.852  -0.713  0.00  0.00    -0.016 A 
ATOM     10  C   UNL     1       0.144   5.256  -0.714  0.00  0.00    +0.031 A 
ATOM     11  C   UNL     1       1.077   5.946   0.027  0.00  0.00    +0.034 A 
ATOM     12  C   UNL     1       2.039   5.262   0.780  0.00  0.00    +0.024 A 
ATOM     13  C   UNL     1       2.075   3.903   0.798  0.00  0.00    +0.010 A 
ATOM     14  C   UNL     1       1.138   3.167   0.052  0.00  0.00    -0.018 A 
ATOM     15  C   UNL     1       1.152   1.762   0.052  0.00  0.00    +0.008 A 
ENDBRANCH   2  11
ENDBRANCH   1   3
BRANCH   1  18
ATOM     16  H   UNL     1       3.610   9.652   1.738  0.00  0.00    -0.089 HD
ATOM     17  H   UNL     1       4.248   9.730   0.204  0.00  0.00    -0.089 HD
ATOM     18  N   UNL     1       3.474  10.021   0.798  0.00  0.00    +0.386 N 
ATOM     19  H   UNL     1       3.451  11.046   0.841  0.00  0.00    -0.089 HD
ENDBRANCH   1  18
BRANCH   1  20
ATOM     20  C   UNL     1       1.989  10.151  -1.140  0.00  0.00    +0.030 C 
BRANCH  20  21
ATOM     21  C   UNL     1       1.845  11.645  -1.004  0.00  0.00    -0.023 A 
ATOM     22  C   UNL     1       0.695  12.332  -0.919  0.00  0.00    +0.087 A 
ATOM     23  N   UNL     1       0.958  13.670  -0.803  0.00  0.00    -0.360 N 
ATOM     24  H   UNL     1       0.286  14.366  -0.725  0.00  0.00    +0.165 HD
ATOM     25  C   UNL     1       2.319  13.883  -0.819  0.00  0.00    +0.047 A 
ATOM     26  C   UNL     1       2.934  12.624  -0.945  0.00  0.00    +0.003 A 
ATOM     27  C   UNL     1       4.326  12.530  -0.988  0.00  0.00    +0.010 A 
ATOM     28  C   UNL     1       5.085  13.664  -0.906  0.00  0.00    +0.001 A 
ATOM     29  C   UNL     1       4.483  14.908  -0.782  0.00  0.00    +0.002 A 
ATOM     30  C   UNL     1       3.111  15.023  -0.738  0.00  0.00    +0.026 A 
ENDBRANCH  20  21
ENDBRANCH   1  20
TORSDOF 5
