REMARK  Name = ZINC51122690
REMARK  4 active torsions:
REMARK  status: ('A' for Active; 'I' for Inactive)
REMARK    1  A    between atoms: C_3  and  N_19
REMARK    2  A    between atoms: C_6  and  C_7
REMARK    3  A    between atoms: N_9  and  C_10
REMARK    4  A    between atoms: N_19  and  N_20
REMARK                            x       y       z     vdW  Elec       q    Type
REMARK                         _______ _______ _______ _____ _____    ______ ____
ROOT
ATOM      1  C   UNL     1      -0.746  -1.444   1.066  0.00  0.00    +0.250 C 
ATOM      2  O   UNL     1      -1.390  -1.393   2.097  0.00  0.00    -0.270 OA
ATOM      3  N   UNL     1      -1.229  -2.117   0.003  0.00  0.00    -0.279 N 
ATOM      4  H   UNL     1      -0.752  -2.097  -0.841  0.00  0.00    +0.155 HD
ENDROOT
BRANCH   3   5
ATOM      5  C   UNL     1      -2.421  -2.844   0.117  0.00  0.00    +0.071 A 
ATOM      6  C   UNL     1      -2.390  -4.171   0.528  0.00  0.00    +0.065 A 
ATOM      7  C   UNL     1      -3.568  -4.886   0.639  0.00  0.00    +0.042 A 
ATOM      8  C   UNL     1      -4.776  -4.281   0.342  0.00  0.00    +0.044 A 
ATOM      9  C   UNL     1      -4.810  -2.960  -0.068  0.00  0.00    +0.042 A 
ATOM     10  C   UNL     1      -3.636  -2.238  -0.176  0.00  0.00    +0.065 A 
ATOM     11 CL   UNL     1      -3.680  -0.579  -0.684  0.00  0.00    -0.082 Cl
ATOM     12 CL   UNL     1      -6.253  -5.183   0.482  0.00  0.00    -0.083 Cl
ATOM     13 CL   UNL     1      -0.874  -4.930   0.900  0.00  0.00    -0.082 Cl
ENDBRANCH   3   5
BRANCH   1  19
ATOM     14  C   UNL     1       1.076  -0.068   2.081  0.00  0.00    +0.018 A 
ATOM     15  C   UNL     1       2.295   0.542   1.956  0.00  0.00    +0.045 A 
ATOM     16  C   UNL     1       2.986   0.448   0.750  0.00  0.00    +0.132 A 
ATOM     17  N   UNL     1       2.479  -0.222  -0.276  0.00  0.00    -0.239 NA
ATOM     18  C   UNL     1       1.310  -0.823  -0.198  0.00  0.00    +0.126 A 
ATOM     19  C   UNL     1       0.563  -0.770   0.980  0.00  0.00    +0.055 A 
BRANCH  16  20
ATOM     20  N   UNL     1       4.220   1.064   0.621  0.00  0.00    -0.268 N 
ATOM     21  H   UNL     1       4.597   1.556   1.366  0.00  0.00    +0.167 HD
BRANCH  20  22
ATOM     22  N   UNL     1       4.905   0.978  -0.558  0.00  0.00    -0.255 NA
ATOM     23  H   UNL     1       4.347   1.317  -1.327  0.00  0.00    +0.140 HD
ATOM     24  H   UNL     1       5.783   1.473  -0.502  0.00  0.00    +0.140 HD
ENDBRANCH  20  22
ENDBRANCH  16  20
ENDBRANCH   1  19
TORSDOF 4
