REMARK  Name = ZINC35142869
REMARK  15 active torsions:
REMARK  status: ('A' for Active; 'I' for Inactive)
REMARK    1  A    between atoms: C_1  and  C_2
REMARK    2  A    between atoms: C_7  and  N_8
REMARK    3  A    between atoms: C_9  and  N_17
REMARK    4  A    between atoms: C_11  and  C_13
REMARK    5  A    between atoms: C_13  and  C_14
REMARK    6  A    between atoms: C_13  and  C_15
REMARK    7  A    between atoms: C_13  and  C_16
REMARK    8  A    between atoms: C_18  and  C_20
REMARK    9  A    between atoms: C_20  and  N_21
REMARK   10  A    between atoms: N_21  and  C_22
REMARK   11  A    between atoms: C_22  and  C_23
REMARK   12  A    between atoms: C_23  and  C_24
REMARK   13  A    between atoms: C_24  and  O_25
REMARK   14  A    between atoms: O_25  and  C_26
REMARK   15  A    between atoms: C_27  and  C_29
REMARK                            x       y       z     vdW  Elec       q    Type
REMARK                         _______ _______ _______ _____ _____    ______ ____
ROOT
ATOM      1  N   UNL     1       0.460  -2.679   3.595  0.00  0.00    -0.269 N 
ATOM      2  C   UNL     1       0.549  -2.759   4.937  0.00  0.00    +0.236 C 
ATOM      3  O   UNL     1       0.317  -1.784   5.620  0.00  0.00    -0.274 OA
ATOM      4  H   UNL     1       0.646  -3.459   3.049  0.00  0.00    +0.156 HD
ENDROOT
BRANCH   1   6
ATOM      5  N   UNL     1      -0.141  -1.279   1.666  0.00  0.00    -0.218 N 
ATOM      6  C   UNL     1       0.101  -1.475   2.991  0.00  0.00    +0.129 A 
ATOM      7  C   UNL     1      -0.074  -0.279   3.619  0.00  0.00    +0.069 A 
ATOM      8  C   UNL     1      -0.430   0.665   2.652  0.00  0.00    +0.071 A 
ATOM      9  N   UNL     1      -0.465   0.072   1.486  0.00  0.00    -0.169 NA
BRANCH   5  16
ATOM     10  C   UNL     1      -2.298  -1.461  -0.181  0.00  0.00    +0.046 C 
ATOM     11  C   UNL     1      -1.103  -2.376  -0.261  0.00  0.00    -0.025 A 
ATOM     12  C   UNL     1      -1.029  -3.333  -1.254  0.00  0.00    +0.005 A 
ATOM     13  C   UNL     1       0.067  -4.173  -1.327  0.00  0.00    +0.000 A 
ATOM     14  C   UNL     1       1.093  -4.056  -0.407  0.00  0.00    +0.002 A 
ATOM     15  C   UNL     1       1.025  -3.102   0.589  0.00  0.00    +0.028 A 
ATOM     16  C   UNL     1      -0.072  -2.253   0.661  0.00  0.00    +0.070 A 
ENDBRANCH   5  16
BRANCH   8  17
ATOM     17  C   UNL     1      -0.719   2.122   2.908  0.00  0.00    +0.006 C 
ATOM     18  C   UNL     1       0.594   2.866   3.159  0.00  0.00    +0.017 C 
ATOM     19  C   UNL     1      -1.422   2.724   1.690  0.00  0.00    +0.017 C 
ATOM     20  C   UNL     1      -1.623   2.254   4.136  0.00  0.00    +0.017 C 
ENDBRANCH   8  17
ENDBRANCH   1   6
BRANCH   2  21
ATOM     21  C   UNL     1       0.938  -4.061   5.590  0.00  0.00    +0.204 C 
BRANCH  21  22
ATOM     22  N   UNL     1       0.964  -3.889   7.045  0.00  0.00    -0.289 N 
ATOM     23  C   UNL     1       2.128  -3.630   7.672  0.00  0.00    +0.247 C 
ATOM     24  O   UNL     1       2.165  -3.574   8.886  0.00  0.00    -0.270 OA
BRANCH  23  25
ATOM     25  C   UNL     1       3.360  -3.415   6.885  0.00  0.00    +0.038 A 
ATOM     26  C   UNL     1       3.344  -2.531   5.792  0.00  0.00    +0.013 A 
ATOM     27  C   UNL     1       4.462  -2.316   5.053  0.00  0.00    +0.009 A 
ATOM     28  C   UNL     1       5.658  -2.983   5.377  0.00  0.00    -0.018 A 
ATOM     29  C   UNL     1       6.829  -2.778   4.628  0.00  0.00    +0.008 A 
ATOM     30  C   UNL     1       7.971  -3.437   4.965  0.00  0.00    +0.001 A 
ATOM     31  C   UNL     1       8.000  -4.316   6.046  0.00  0.00    +0.001 A 
ATOM     32  C   UNL     1       6.886  -4.541   6.795  0.00  0.00    +0.008 A 
ATOM     33  C   UNL     1       5.687  -3.878   6.477  0.00  0.00    -0.017 A 
ATOM     34  C   UNL     1       4.523  -4.082   7.233  0.00  0.00    +0.021 A 
ENDBRANCH  23  25
BRANCH  22  35
ATOM     35  C   UNL     1      -0.276  -3.999   7.817  0.00  0.00    +0.111 C 
BRANCH  35  36
ATOM     36  C   UNL     1      -0.423  -5.427   8.345  0.00  0.00    +0.047 C 
BRANCH  36  37
ATOM     37  C   UNL     1      -1.718  -5.542   9.152  0.00  0.00    +0.161 C 
BRANCH  37  38
ATOM     38  O   UNL     1      -1.856  -6.876   9.645  0.00  0.00    -0.383 OA
ATOM     39  C   UNL     1      -3.039  -7.091  10.417  0.00  0.00    +0.193 C 
ENDBRANCH  37  38
ENDBRANCH  36  37
ENDBRANCH  35  36
ENDBRANCH  22  35
ENDBRANCH  21  22
ENDBRANCH   2  21
TORSDOF 10
