REMARK  Name = ZINC59577954
REMARK  13 active torsions:
REMARK  status: ('A' for Active; 'I' for Inactive)
REMARK    1  A    between atoms: C_1  and  C_2
REMARK    2  A    between atoms: C_4  and  C_15
REMARK    3  A    between atoms: C_6  and  C_14
REMARK    4  A    between atoms: C_7  and  O_8
REMARK    5  A    between atoms: O_8  and  C_9
REMARK    6  A    between atoms: C_9  and  C_10
REMARK    7  A    between atoms: C_15  and  N_16
REMARK    8  A    between atoms: N_16  and  C_17
REMARK    9  A    between atoms: N_16  and  C_18
REMARK   10  A    between atoms: C_18  and  C_19
REMARK   11  A    between atoms: N_24  and  C_25
REMARK   12  A    between atoms: C_25  and  C_26
REMARK   13  A    between atoms: C_26  and  C_27
REMARK                            x       y       z     vdW  Elec       q    Type
REMARK                         _______ _______ _______ _____ _____    ______ ____
ROOT
ATOM      1  N   UNL     1       1.414  -3.039  -2.949  0.00  0.00    +0.386 N 
ATOM      2  C   UNL     1       2.088  -3.929  -1.994  0.00  0.00    -0.095 C 
ATOM      3  H   UNL     1       1.901  -2.156  -2.987  0.00  0.00    -0.081 HD
ENDROOT
BRANCH   1   4
ATOM      4  C   UNL     1       0.028  -2.816  -2.516  0.00  0.00    -0.043 C 
BRANCH   4   8
ATOM      5  C   UNL     1      -0.018   1.503   0.010  0.00  0.00    +0.047 C 
ATOM      6  C   UNL     1       0.002  -0.004   0.002  0.00  0.00    -0.008 A 
ATOM      7  C   UNL     1       0.006  -0.689  -1.198  0.00  0.00    +0.008 A 
ATOM      8  C   UNL     1       0.024  -2.071  -1.206  0.00  0.00    -0.063 A 
ATOM      9  C   UNL     1       0.040  -2.772  -0.014  0.00  0.00    +0.008 A 
ATOM     10  C   UNL     1       0.036  -2.092   1.188  0.00  0.00    -0.008 A 
ATOM     11  C   UNL     1       0.023  -0.705   1.199  0.00  0.00    +0.127 A 
ATOM     12  C   UNL     1       0.052  -2.856   2.487  0.00  0.00    +0.047 C 
BRANCH  11  13
ATOM     13  O   UNL     1       0.025  -0.033   2.381  0.00  0.00    -0.483 OA
BRANCH  13  14
ATOM     14  C   UNL     1      -1.246   0.270   2.957  0.00  0.00    +0.342 C 
BRANCH  14  15
ATOM     15  C   UNL     1      -1.043   1.022   4.274  0.00  0.00    +0.424 C 
ATOM     16  F   UNL     1      -0.346   2.211   4.030  0.00  0.00    -0.167 F 
ATOM     17  F   UNL     1      -2.288   1.320   4.838  0.00  0.00    -0.167 F 
ATOM     18  F   UNL     1      -0.309   0.225   5.158  0.00  0.00    -0.167 F 
ENDBRANCH  14  15
ENDBRANCH  13  14
ENDBRANCH  11  13
ENDBRANCH   4   8
ENDBRANCH   1   4
BRANCH   1  19
ATOM     19  C   UNL     1       1.417  -3.657  -4.282  0.00  0.00    +0.019 C 
BRANCH  19  20
ATOM     20  C   UNL     1       2.835  -3.773  -4.778  0.00  0.00    +0.204 C 
ATOM     21  O   UNL     1       3.753  -3.380  -4.089  0.00  0.00    -0.277 OA
ATOM     22  N   UNL     1       3.084  -4.315  -5.987  0.00  0.00    -0.242 N 
ATOM     23  C   UNL     1       4.353  -4.419  -6.431  0.00  0.00    +0.306 C 
ATOM     24  O   UNL     1       5.272  -4.025  -5.740  0.00  0.00    -0.252 OA
ATOM     25  N   UNL     1       4.601  -4.960  -7.640  0.00  0.00    -0.299 N 
ATOM     26  H   UNL     1       2.350  -4.629  -6.538  0.00  0.00    +0.159 HD
ATOM     27  H   UNL     1       3.867  -5.275  -8.190  0.00  0.00    +0.150 HD
BRANCH  25  28
ATOM     28  C   UNL     1       5.980  -5.073  -8.122  0.00  0.00    +0.111 C 
BRANCH  28  29
ATOM     29  C   UNL     1       5.983  -5.717  -9.510  0.00  0.00    +0.061 C 
BRANCH  29  30
ATOM     30  C   UNL     1       7.402  -5.834 -10.006  0.00  0.00    -0.009 A 
ATOM     31  C   UNL     1       8.280  -6.855  -9.850  0.00  0.00    +0.011 A 
ATOM     32  C   UNL     1       9.543  -6.742 -10.398  0.00  0.00    +0.008 A 
ATOM     33  C   UNL     1       9.867  -5.614 -11.076  0.00  0.00    +0.045 A 
ATOM     34  S   UNL     1       8.359  -4.666 -10.959  0.00  0.00    -0.102 S 
ENDBRANCH  29  30
ENDBRANCH  28  29
ENDBRANCH  25  28
ENDBRANCH  19  20
ENDBRANCH   1  19
TORSDOF 10
