REMARK  Name = ZINC13494922
REMARK  12 active torsions:
REMARK  status: ('A' for Active; 'I' for Inactive)
REMARK    1  A    between atoms: C_1  and  C_2
REMARK    2  A    between atoms: C_2  and  C_3
REMARK    3  A    between atoms: C_3  and  C_5
REMARK    4  A    between atoms: C_3  and  N_18
REMARK    5  A    between atoms: N_9  and  C_10
REMARK    6  A    between atoms: C_10  and  C_11
REMARK    7  A    between atoms: C_11  and  C_12
REMARK    8  A    between atoms: N_18  and  C_19
REMARK    9  A    between atoms: N_18  and  C_27
REMARK   10  A    between atoms: C_19  and  C_20
REMARK   11  A    between atoms: C_27  and  C_28
REMARK   12  A    between atoms: C_32  and  C_40
REMARK                            x       y       z     vdW  Elec       q    Type
REMARK                         _______ _______ _______ _____ _____    ______ ____
ROOT
ATOM      1  N   UNL     1       4.060  -0.305   0.966  0.00  0.00    -0.284 NA
ENDROOT
BRANCH   1   2
ATOM      2  C   UNL     1       3.520   0.636  -0.025  0.00  0.00    +0.127 C 
BRANCH   2   3
ATOM      3  C   UNL     1       2.040   0.401  -0.186  0.00  0.00    +0.168 A 
ATOM      4  N   UNL     1       1.440  -0.759  -0.307  0.00  0.00    -0.112 NA
ATOM      5  N   UNL     1       0.176  -0.542  -0.422  0.00  0.00    -0.023 NA
ATOM      6  N   UNL     1      -0.047   0.725  -0.379  0.00  0.00    -0.044 NA
ATOM      7  N   UNL     1       1.077   1.340  -0.234  0.00  0.00    -0.227 N 
BRANCH   7   8
ATOM      8  C   UNL     1       1.270   2.789  -0.140  0.00  0.00    +0.152 C 
BRANCH   8   9
ATOM      9  C   UNL     1       1.194   3.220   1.327  0.00  0.00    +0.058 C 
BRANCH   9  10
ATOM     10  C   UNL     1       1.393   4.710   1.424  0.00  0.00    -0.046 A 
ATOM     11  C   UNL     1       2.664   5.229   1.584  0.00  0.00    +0.004 A 
ATOM     12  C   UNL     1       2.846   6.597   1.667  0.00  0.00    +0.000 A 
ATOM     13  C   UNL     1       1.757   7.445   1.602  0.00  0.00    +0.000 A 
ATOM     14  C   UNL     1       0.485   6.926   1.448  0.00  0.00    +0.000 A 
ATOM     15  C   UNL     1       0.303   5.558   1.358  0.00  0.00    +0.004 A 
ENDBRANCH   9  10
ENDBRANCH   8   9
ENDBRANCH   7   8
ENDBRANCH   2   3
BRANCH   2  17
ATOM     16  C   UNL     1       3.704   1.442  -2.382  0.00  0.00    +0.006 C 
ATOM     17  C   UNL     1       4.220   0.419  -1.367  0.00  0.00    +0.023 C 
ENDBRANCH   2  17
ENDBRANCH   1   2
BRANCH   1  18
ATOM     18  C   UNL     1       3.431  -0.105   2.279  0.00  0.00    +0.122 C 
BRANCH  18  19
ATOM     19  C   UNL     1       1.996  -0.561   2.223  0.00  0.00    -0.015 A 
ATOM     20  C   UNL     1       0.981   0.366   2.078  0.00  0.00    +0.006 A 
ATOM     21  C   UNL     1      -0.336  -0.053   2.022  0.00  0.00    +0.000 A 
ATOM     22  C   UNL     1      -0.638  -1.398   2.120  0.00  0.00    +0.001 A 
ATOM     23  C   UNL     1       0.375  -2.326   2.269  0.00  0.00    +0.020 A 
ATOM     24  C   UNL     1       1.693  -1.908   2.321  0.00  0.00    +0.045 A 
ATOM     25 CL   UNL     1       2.967  -3.072   2.509  0.00  0.00    -0.083 Cl
ENDBRANCH  18  19
ENDBRANCH   1  18
BRANCH   1  26
ATOM     26  C   UNL     1       5.521  -0.189   1.060  0.00  0.00    +0.126 C 
BRANCH  26  27
ATOM     27  C   UNL     1       6.051  -1.251   1.989  0.00  0.00    +0.031 A 
ATOM     28  C   UNL     1       6.494  -2.429   1.486  0.00  0.00    +0.020 A 
ATOM     29  C   UNL     1       7.007  -3.438   2.415  0.00  0.00    -0.001 A 
ATOM     30  C   UNL     1       7.482  -4.670   1.955  0.00  0.00    +0.013 A 
ATOM     31  C   UNL     1       7.948  -5.593   2.848  0.00  0.00    -0.050 A 
ATOM     32  C   UNL     1       7.954  -5.318   4.209  0.00  0.00    +0.005 A 
ATOM     33  C   UNL     1       7.492  -4.110   4.685  0.00  0.00    +0.026 A 
ATOM     34  C   UNL     1       7.012  -3.155   3.794  0.00  0.00    +0.049 A 
ATOM     35  N   UNL     1       6.542  -1.940   4.242  0.00  0.00    -0.322 N 
ATOM     36  H   UNL     1       6.543  -1.712   5.319  0.00  0.00    +0.169 HD
ATOM     37  C   UNL     1       6.077  -1.017   3.381  0.00  0.00    +0.254 A 
ATOM     38  O   UNL     1       5.670   0.047   3.813  0.00  0.00    -0.268 OA
ATOM     39  C   UNL     1       8.459  -6.921   2.352  0.00  0.00    +0.044 C 
ENDBRANCH  26  27
ENDBRANCH   1  26
TORSDOF 10
