REMARK  Name = ZINC40982425
REMARK  15 active torsions:
REMARK  status: ('A' for Active; 'I' for Inactive)
REMARK    1  A    between atoms: C_1  and  C_2
REMARK    2  A    between atoms: C_2  and  C_3
REMARK    3  A    between atoms: C_3  and  O_4
REMARK    4  A    between atoms: O_4  and  C_5
REMARK    5  A    between atoms: C_10  and  C_11
REMARK    6  A    between atoms: C_13  and  C_26
REMARK    7  A    between atoms: C_14  and  C_25
REMARK    8  A    between atoms: C_19  and  S_21
REMARK    9  A    between atoms: S_21  and  C_22
REMARK   10  A    between atoms: C_22  and  C_23
REMARK   11  A    between atoms: C_23  and  C_24
REMARK   12  A    between atoms: C_26  and  O_28
REMARK   13  A    between atoms: O_28  and  C_29
REMARK   14  A    between atoms: C_29  and  C_30
REMARK   15  A    between atoms: C_30  and  C_31
REMARK                            x       y       z     vdW  Elec       q    Type
REMARK                         _______ _______ _______ _____ _____    ______ ____
ROOT
ATOM      1  C   UNL     1       0.673  -4.763  -1.290  0.00  0.00    +0.183 C 
ATOM      2  C   UNL     1       1.694  -5.573  -0.536  0.00  0.00    +0.082 C 
ATOM      3  C   UNL     1       1.879  -6.887  -0.736  0.00  0.00    +0.020 C 
ATOM      4  N   UNL     1       1.137  -7.600  -1.643  0.00  0.00    -0.287 N 
ATOM      5  C   UNL     1       0.005  -6.988  -2.166  0.00  0.00    +0.219 A 
ATOM      6  N   UNL     1      -0.229  -5.662  -2.006  0.00  0.00    -0.220 N 
ATOM      7  N   UNL     1      -1.440  -5.391  -2.641  0.00  0.00    -0.141 NA
ATOM      8  C   UNL     1      -1.866  -6.529  -3.145  0.00  0.00    +0.210 A 
ATOM      9  N   UNL     1      -0.982  -7.494  -2.854  0.00  0.00    -0.187 NA
ATOM     10  C   UNL     1       2.938  -7.603   0.062  0.00  0.00    +0.061 C 
ATOM     11  H   UNL     1       1.392  -8.497  -1.909  0.00  0.00    +0.155 HD
ENDROOT
BRANCH   1  17
ATOM     12  C   UNL     1       1.223  -2.488  -2.189  0.00  0.00    +0.126 A 
ATOM     13  C   UNL     1       1.873  -1.662  -3.094  0.00  0.00    +0.047 A 
ATOM     14  C   UNL     1       2.664  -2.212  -4.085  0.00  0.00    +0.019 A 
ATOM     15  C   UNL     1       2.807  -3.585  -4.174  0.00  0.00    +0.018 A 
ATOM     16  C   UNL     1       2.159  -4.410  -3.272  0.00  0.00    +0.025 A 
ATOM     17  C   UNL     1       1.373  -3.864  -2.276  0.00  0.00    +0.024 A 
ATOM     18 BR   UNL     1       3.890  -4.335  -5.530  0.00  0.00    -0.050 Br
BRANCH  12  19
ATOM     19  O   UNL     1       0.445  -1.949  -1.214  0.00  0.00    -0.492 OA
BRANCH  19  20
ATOM     20  C   UNL     1       0.336  -0.524  -1.183  0.00  0.00    +0.229 C 
BRANCH  20  22
ATOM     21  C   UNL     1      -0.691   1.419   0.005  0.00  0.00    +0.007 C 
ATOM     22  C   UNL     1      -0.574  -0.106  -0.027  0.00  0.00    +0.038 C 
ENDBRANCH  20  22
ENDBRANCH  19  20
ENDBRANCH  12  19
ENDBRANCH   1  17
BRANCH   2  23
ATOM     23  C   UNL     1       2.495  -4.918   0.426  0.00  0.00    +0.339 C 
ATOM     24  O   UNL     1       2.055  -4.704   1.540  0.00  0.00    -0.245 OA
BRANCH  23  25
ATOM     25  O   UNL     1       3.749  -4.531   0.109  0.00  0.00    -0.461 OA
BRANCH  25  26
ATOM     26  C   UNL     1       4.502  -3.875   1.131  0.00  0.00    +0.232 C 
BRANCH  26  27
ATOM     27  C   UNL     1       5.888  -3.514   0.590  0.00  0.00    +0.038 C 
ATOM     28  C   UNL     1       6.694  -2.811   1.684  0.00  0.00    +0.007 C 
ENDBRANCH  26  27
ENDBRANCH  25  26
ENDBRANCH  23  25
ENDBRANCH   2  23
BRANCH   8  29
ATOM     29  S   UNL     1      -3.358  -6.748  -4.056  0.00  0.00    -0.084 S 
BRANCH  29  30
ATOM     30  C   UNL     1      -3.367  -8.516  -4.463  0.00  0.00    +0.077 C 
BRANCH  30  31
ATOM     31  C   UNL     1      -4.627  -8.848  -5.266  0.00  0.00    +0.008 C 
ATOM     32  C   UNL     1      -4.635 -10.339  -5.609  0.00  0.00    +0.004 C 
ENDBRANCH  30  31
ENDBRANCH  29  30
ENDBRANCH   8  29
TORSDOF 11
