REMARK  Name = ZINC27754202
REMARK  6 active torsions:
REMARK  status: ('A' for Active; 'I' for Inactive)
REMARK    1  A    between atoms: C_4  and  C_7
REMARK    2  A    between atoms: C_7  and  O_34
REMARK    3  A    between atoms: C_8  and  C_28
REMARK    4  A    between atoms: C_10  and  C_16
REMARK    5  A    between atoms: C_19  and  C_21
REMARK    6  A    between atoms: C_28  and  C_30
REMARK                            x       y       z     vdW  Elec       q    Type
REMARK                         _______ _______ _______ _____ _____    ______ ____
ROOT
ATOM      1  C   UNL     1       0.236   5.691  -0.034  0.00  0.00    +0.172 C 
ATOM      2  C   UNL     1      -0.174   5.785   1.439  0.00  0.00    +0.147 C 
ATOM      3  C   UNL     1      -0.166   7.260   1.855  0.00  0.00    +0.156 C 
ATOM      4  N   UNL     1       1.151   7.831   1.572  0.00  0.00    -0.289 N 
ATOM      5  C   UNL     1       1.915   7.364   0.573  0.00  0.00    +0.303 C 
ATOM      6  O   UNL     1       2.997   7.881   0.374  0.00  0.00    -0.253 OA
ATOM      7  N   UNL     1       1.532   6.348  -0.214  0.00  0.00    -0.267 N 
ATOM      8  H   UNL     1       1.534   8.662   2.184  0.00  0.00    +0.151 HD
ATOM      9  H   UNL     1       2.214   6.010  -1.009  0.00  0.00    +0.153 HD
ENDROOT
BRANCH   1  13
ATOM     10  C   UNL     1       0.545   1.586  -1.174  0.00  0.00    +0.000 A 
ATOM     11  C   UNL     1      -0.655   2.256  -1.322  0.00  0.00    +0.000 A 
ATOM     12  C   UNL     1      -0.756   3.583  -0.948  0.00  0.00    +0.008 A 
ATOM     13  C   UNL     1       0.345   4.243  -0.436  0.00  0.00    +0.003 A 
ATOM     14  C   UNL     1       1.547   3.575  -0.293  0.00  0.00    +0.008 A 
ATOM     15  C   UNL     1       1.647   2.246  -0.662  0.00  0.00    +0.000 A 
ENDBRANCH   1  13
BRANCH   3  16
ATOM     16  C   UNL     1      -0.456   7.369   3.330  0.00  0.00    +0.127 A 
ATOM     17  C   UNL     1      -1.666   7.597   3.878  0.00  0.00    +0.047 A 
ATOM     18  C   UNL     1      -1.488   7.621   5.276  0.00  0.00    +0.050 A 
ATOM     19  C   UNL     1      -0.164   7.412   5.506  0.00  0.00    +0.137 A 
ATOM     20  O   UNL     1       0.449   7.261   4.316  0.00  0.00    -0.458 OA
BRANCH  19  21
ATOM     21  C   UNL     1       0.488   7.361   6.831  0.00  0.00    +0.036 A 
ATOM     22  C   UNL     1       1.332   6.298   7.156  0.00  0.00    +0.013 A 
ATOM     23  C   UNL     1       1.938   6.256   8.395  0.00  0.00    +0.001 A 
ATOM     24  C   UNL     1       1.711   7.265   9.314  0.00  0.00    +0.001 A 
ATOM     25  C   UNL     1       0.876   8.321   9.000  0.00  0.00    +0.021 A 
ATOM     26  C   UNL     1       0.268   8.379   7.761  0.00  0.00    +0.052 A 
ATOM     27 CL   UNL     1      -0.774   9.710   7.365  0.00  0.00    -0.083 Cl
ENDBRANCH  19  21
ENDBRANCH   3  16
BRANCH   2  28
ATOM     28  C   UNL     1       0.805   5.014   2.287  0.00  0.00    +0.245 C 
ATOM     29  O   UNL     1       1.992   5.157   2.119  0.00  0.00    -0.287 OA
BRANCH  28  30
ATOM     30  C   UNL     1       0.302   4.065   3.344  0.00  0.00    +0.451 C 
ATOM     31  F   UNL     1       1.386   3.556   4.067  0.00  0.00    -0.163 F 
ATOM     32  F   UNL     1      -0.559   4.746   4.211  0.00  0.00    -0.163 F 
ATOM     33  F   UNL     1      -0.387   3.011   2.734  0.00  0.00    -0.163 F 
ENDBRANCH  28  30
ENDBRANCH   2  28
BRANCH   1  34
ATOM     34  O   UNL     1      -0.745   6.340  -0.846  0.00  0.00    -0.367 OA
ATOM     35  H   UNL     1      -0.964   7.408  -0.698  0.00  0.00    +0.212 HD
ENDBRANCH   1  34
TORSDOF 6
