REMARK  Name = ZINC40683296
REMARK  6 active torsions:
REMARK  status: ('A' for Active; 'I' for Inactive)
REMARK    1  A    between atoms: C_10  and  O_11
REMARK    2  A    between atoms: O_11  and  C_12
REMARK    3  A    between atoms: C_13  and  N_29
REMARK    4  A    between atoms: C_14  and  N_18
REMARK    5  A    between atoms: N_18  and  N_19
REMARK    6  A    between atoms: C_20  and  C_22
REMARK                            x       y       z     vdW  Elec       q    Type
REMARK                         _______ _______ _______ _____ _____    ______ ____
ROOT
ATOM      1  C   UNL     1       5.997  -0.619   0.047  0.00  0.00    +0.246 A 
ATOM      2  C   UNL     1       7.217   0.047   0.155  0.00  0.00    +0.129 A 
ATOM      3  C   UNL     1       8.382  -0.721   0.245  0.00  0.00    +0.163 A 
ATOM      4  N   UNL     1       8.282  -2.047   0.224  0.00  0.00    -0.217 NA
ATOM      5  C   UNL     1       7.108  -2.636   0.121  0.00  0.00    +0.227 A 
ATOM      6  N   UNL     1       5.986  -1.948   0.040  0.00  0.00    -0.199 NA
ENDROOT
BRANCH   2   7
ATOM      7  N   UNL     1       7.274   1.449   0.172  0.00  0.00    -0.351 N 
ATOM      8  H   UNL     1       6.458   1.968   0.108  0.00  0.00    +0.143 HD
ATOM      9  H   UNL     1       8.131   1.898   0.247  0.00  0.00    +0.143 HD
ENDBRANCH   2   7
BRANCH   3  10
ATOM     10  N   UNL     1       9.624  -0.108   0.353  0.00  0.00    -0.246 N 
ATOM     11  H   UNL     1       9.688   0.860   0.367  0.00  0.00    +0.172 HD
BRANCH  10  12
ATOM     12  N   UNL     1      10.784  -0.887   0.443  0.00  0.00    -0.231 N 
ATOM     13  C   UNL     1      11.989  -0.293   0.548  0.00  0.00    +0.260 C 
ATOM     14  O   UNL     1      12.069   0.920   0.565  0.00  0.00    -0.269 OA
ATOM     15  H   UNL     1      10.721  -1.855   0.429  0.00  0.00    +0.173 HD
BRANCH  13  16
ATOM     16  C   UNL     1      13.213  -1.115   0.642  0.00  0.00    +0.038 A 
ATOM     17  C   UNL     1      13.124  -2.509   0.617  0.00  0.00    +0.016 A 
ATOM     18  C   UNL     1      14.269  -3.271   0.705  0.00  0.00    +0.039 A 
ATOM     19  C   UNL     1      15.507  -2.657   0.819  0.00  0.00    +0.123 A 
ATOM     20  C   UNL     1      15.601  -1.274   0.845  0.00  0.00    +0.039 A 
ATOM     21  C   UNL     1      14.463  -0.502   0.751  0.00  0.00    +0.016 A 
ATOM     22  F   UNL     1      16.626  -3.409   0.906  0.00  0.00    -0.205 F 
ENDBRANCH  13  16
ENDBRANCH  10  12
ENDBRANCH   3  10
BRANCH   1  23
ATOM     23  O   UNL     1       4.838   0.079  -0.043  0.00  0.00    -0.436 OA
BRANCH  23  33
ATOM     24  C   UNL     1       1.788  -1.786   3.481  0.00  0.00    +0.001 A 
ATOM     25  C   UNL     1       2.982  -1.069   3.527  0.00  0.00    +0.001 A 
ATOM     26  C   UNL     1       3.611  -0.680   2.384  0.00  0.00    +0.012 A 
ATOM     27  C   UNL     1       3.050  -1.004   1.138  0.00  0.00    +0.024 A 
ATOM     28  C   UNL     1       1.836  -1.732   1.090  0.00  0.00    -0.014 A 
ATOM     29  C   UNL     1       1.215  -2.117   2.291  0.00  0.00    +0.008 A 
ATOM     30  C   UNL     1       1.274  -2.058  -0.156  0.00  0.00    +0.009 A 
ATOM     31  C   UNL     1       1.897  -1.673  -1.304  0.00  0.00    +0.004 A 
ATOM     32  C   UNL     1       3.091  -0.957  -1.268  0.00  0.00    +0.047 A 
ATOM     33  C   UNL     1       3.673  -0.619  -0.067  0.00  0.00    +0.138 A 
ENDBRANCH  23  33
ENDBRANCH   1  23
TORSDOF 6
