REMARK  Name = ZINC16569920
REMARK  9 active torsions:
REMARK  status: ('A' for Active; 'I' for Inactive)
REMARK    1  A    between atoms: C_1  and  C_2
REMARK    2  A    between atoms: C_2  and  C_3
REMARK    3  A    between atoms: C_8  and  N_9
REMARK    4  A    between atoms: N_12  and  C_13
REMARK    5  A    between atoms: N_12  and  C_37
REMARK    6  A    between atoms: C_13  and  C_14
REMARK    7  A    between atoms: C_28  and  C_30
REMARK    8  A    between atoms: C_37  and  C_38
REMARK    9  A    between atoms: C_37  and  C_39
REMARK                            x       y       z     vdW  Elec       q    Type
REMARK                         _______ _______ _______ _____ _____    ______ ____
ROOT
ATOM      1  C   UNL     1       3.607   7.877   1.218  0.00  0.00    +0.238 C 
ATOM      2  O   UNL     1       3.787   7.088   2.122  0.00  0.00    -0.273 OA
ATOM      3  N   UNL     1       3.514   9.195   1.482  0.00  0.00    -0.255 N 
ATOM      4  C   UNL     1       3.736   9.665   2.784  0.00  0.00    +0.061 A 
ATOM      5  C   UNL     1       4.593   8.985   3.639  0.00  0.00    +0.025 A 
ATOM      6  C   UNL     1       4.801   9.453   4.923  0.00  0.00    +0.002 A 
ATOM      7  C   UNL     1       4.162  10.599   5.362  0.00  0.00    +0.002 A 
ATOM      8  C   UNL     1       3.313  11.289   4.515  0.00  0.00    +0.028 A 
ATOM      9  C   UNL     1       3.105  10.829   3.229  0.00  0.00    +0.068 A 
ATOM     10  N   UNL     1       2.261  11.498   2.331  0.00  0.00    -0.316 N 
ATOM     11  C   UNL     1       1.353  12.479   2.550  0.00  0.00    +0.092 A 
ATOM     12  C   UNL     1       0.779  12.793   1.367  0.00  0.00    +0.020 A 
ATOM     13  C   UNL     1       1.362  11.971   0.379  0.00  0.00    +0.025 A 
ATOM     14  C   UNL     1       2.264  11.193   0.987  0.00  0.00    +0.049 A 
ATOM     15  C   UNL     1       3.174  10.139   0.405  0.00  0.00    +0.159 C 
ENDROOT
BRANCH  15  16
ATOM     16  C   UNL     1       4.429  10.783  -0.125  0.00  0.00    -0.021 A 
ATOM     17  C   UNL     1       5.430  11.166   0.748  0.00  0.00    +0.008 A 
ATOM     18  C   UNL     1       6.583  11.753   0.263  0.00  0.00    +0.038 A 
ATOM     19  C   UNL     1       6.731  11.967  -1.097  0.00  0.00    +0.123 A 
ATOM     20  C   UNL     1       5.726  11.588  -1.970  0.00  0.00    +0.038 A 
ATOM     21  C   UNL     1       4.575  10.997  -1.483  0.00  0.00    +0.008 A 
ATOM     22  F   UNL     1       7.856  12.545  -1.571  0.00  0.00    -0.205 F 
ENDBRANCH  15  16
BRANCH   1  23
ATOM     23  C   UNL     1       3.487   7.383  -0.201  0.00  0.00    +0.205 C 
BRANCH  23  27
ATOM     24  N   UNL     1       2.386   3.881  -0.014  0.00  0.00    -0.269 N 
ATOM     25  C   UNL     1       2.358   5.225  -0.111  0.00  0.00    +0.307 C 
ATOM     26  O   UNL     1       1.293   5.813  -0.108  0.00  0.00    -0.252 OA
ATOM     27  N   UNL     1       3.510   5.918  -0.211  0.00  0.00    -0.274 N 
ATOM     28  H   UNL     1       3.236   3.418   0.054  0.00  0.00    +0.156 HD
BRANCH  24  34
ATOM     29  C   UNL     1       1.135   1.904  -0.612  0.00  0.00    -0.026 A 
ATOM     30  C   UNL     1      -0.047   1.189  -0.607  0.00  0.00    +0.005 A 
ATOM     31  C   UNL     1      -1.175   1.720  -0.010  0.00  0.00    +0.000 A 
ATOM     32  C   UNL     1      -1.122   2.963   0.594  0.00  0.00    +0.002 A 
ATOM     33  C   UNL     1       0.057   3.683   0.593  0.00  0.00    +0.023 A 
ATOM     34  C   UNL     1       1.190   3.155  -0.011  0.00  0.00    +0.038 A 
BRANCH  29  36
ATOM     35  C   UNL     1       3.220   0.622  -0.215  0.00  0.00    +0.009 C 
ATOM     36  C   UNL     1       2.363   1.327  -1.268  0.00  0.00    +0.033 C 
ENDBRANCH  29  36
ENDBRANCH  24  34
BRANCH  27  37
ATOM     37  C   UNL     1       4.785   5.207  -0.331  0.00  0.00    +0.072 C 
ATOM     38  C   UNL     1       5.406   5.500  -1.698  0.00  0.00    +0.028 C 
ATOM     39  C   UNL     1       5.735   5.675   0.773  0.00  0.00    +0.028 C 
ENDBRANCH  27  37
ENDBRANCH  23  27
ENDBRANCH   1  23
TORSDOF 6
