REMARK  Name = ZINC19931941
REMARK  8 active torsions:
REMARK  status: ('A' for Active; 'I' for Inactive)
REMARK    1  A    between atoms: C_1  and  C_2
REMARK    2  A    between atoms: C_2  and  C_31
REMARK    3  A    between atoms: C_6  and  C_19
REMARK    4  A    between atoms: C_9  and  N_18
REMARK    5  A    between atoms: C_10  and  C_16
REMARK    6  A    between atoms: C_22  and  N_25
REMARK    7  A    between atoms: N_25  and  C_26
REMARK    8  A    between atoms: N_25  and  C_27
REMARK                            x       y       z     vdW  Elec       q    Type
REMARK                         _______ _______ _______ _____ _____    ______ ____
ROOT
ATOM      1  C   UNL     1       0.693   5.918   5.815  0.00  0.00    +0.012 C 
ATOM      2  C   UNL     1       0.782   7.444   5.889  0.00  0.00    -0.021 C 
ATOM      3  C   UNL     1      -0.625   8.043   5.859  0.00  0.00    +0.081 C 
ATOM      4  C   UNL     1      -1.312   7.665   4.567  0.00  0.00    +0.115 C 
ATOM      5  C   UNL     1      -0.600   7.487   3.439  0.00  0.00    +0.045 C 
ATOM      6  C   UNL     1      -1.285   7.121   2.145  0.00  0.00    +0.093 C 
ATOM      7  C   UNL     1      -2.747   7.461   2.222  0.00  0.00    +0.048 A 
ATOM      8  C   UNL     1      -3.489   7.593   1.050  0.00  0.00    +0.055 A 
ATOM      9  C   UNL     1      -4.857   7.917   1.159  0.00  0.00    +0.112 A 
ATOM     10  C   UNL     1      -5.404   8.094   2.441  0.00  0.00    +0.139 A 
ATOM     11  N   UNL     1      -4.652   7.954   3.519  0.00  0.00    -0.196 NA
ATOM     12  C   UNL     1      -3.361   7.646   3.447  0.00  0.00    +0.228 A 
ATOM     13  O   UNL     1      -2.648   7.513   4.587  0.00  0.00    -0.441 OA
ATOM     14  N   UNL     1      -6.743   8.418   2.577  0.00  0.00    -0.342 N 
ATOM     15  C   UNL     1       0.800   7.634   3.427  0.00  0.00    +0.164 C 
ATOM     16  O   UNL     1       1.406   7.484   2.385  0.00  0.00    -0.292 OA
ATOM     17  C   UNL     1       1.560   7.974   4.680  0.00  0.00    +0.086 C 
ATOM     18  C   UNL     1       1.493   7.856   7.179  0.00  0.00    +0.012 C 
ATOM     19  H   UNL     1      -7.176   8.558   3.578  0.00  0.00    +0.144 HD
ATOM     20  H   UNL     1      -7.373   8.536   1.683  0.00  0.00    +0.144 HD
ENDROOT
BRANCH   6  21
ATOM     21  C   UNL     1      -1.129   5.643   1.898  0.00  0.00    -0.035 A 
ATOM     22  C   UNL     1      -0.481   5.199   0.760  0.00  0.00    +0.006 A 
ATOM     23  C   UNL     1      -0.336   3.845   0.530  0.00  0.00    +0.023 A 
ATOM     24  C   UNL     1      -0.843   2.928   1.443  0.00  0.00    +0.029 A 
ATOM     25  C   UNL     1      -1.498   3.378   2.583  0.00  0.00    +0.023 A 
ATOM     26  C   UNL     1      -1.634   4.734   2.809  0.00  0.00    +0.006 A 
BRANCH  24  27
ATOM     27  N   UNL     1      -0.698   1.558   1.213  0.00  0.00    -0.336 N 
ATOM     28  C   UNL     1      -0.013   1.086   0.008  0.00  0.00    +0.129 C 
ATOM     29  C   UNL     1      -1.233   0.594   2.178  0.00  0.00    +0.129 C 
ENDBRANCH  24  27
ENDBRANCH   6  21
BRANCH   8  30
ATOM     30  N   UNL     1      -2.899   7.410  -0.191  0.00  0.00    -0.357 N 
ATOM     31  H   UNL     1      -3.499   7.518  -1.107  0.00  0.00    +0.142 HD
ATOM     32  H   UNL     1      -1.830   7.158  -0.260  0.00  0.00    +0.142 HD
ENDBRANCH   8  30
BRANCH   9  33
ATOM     33  C   UNL     1      -5.670   8.063  -0.010  0.00  0.00    +0.104 C 
ATOM     34  N   UNL     1      -6.315   8.179  -0.938  0.00  0.00    -0.191 NA
ENDBRANCH   9  33
TORSDOF 4
