REMARK  Name = ZINC03611623
REMARK  8 active torsions:
REMARK  status: ('A' for Active; 'I' for Inactive)
REMARK    1  A    between atoms: C_1  and  C_2
REMARK    2  A    between atoms: C_2  and  C_3
REMARK    3  A    between atoms: C_3  and  C_5
REMARK    4  A    between atoms: C_3  and  C_6
REMARK    5  A    between atoms: C_6  and  C_8
REMARK    6  A    between atoms: C_6  and  N_19
REMARK    7  A    between atoms: N_10  and  C_11
REMARK    8  A    between atoms: C_15  and  C_17
REMARK                            x       y       z     vdW  Elec       q    Type
REMARK                         _______ _______ _______ _____ _____    ______ ____
ROOT
ATOM      1  C   UNL     1       5.582   3.313   0.237  0.00  0.00    +0.163 C 
ENDROOT
BRANCH   1   2
ATOM      2  N   UNL     1       5.244   4.626  -0.318  0.00  0.00    -0.288 N 
ATOM      3  C   UNL     1       6.171   5.330  -0.996  0.00  0.00    +0.298 C 
ATOM      4  O   UNL     1       7.258   4.837  -1.231  0.00  0.00    -0.253 OA
ATOM      5  N   UNL     1       5.895   6.581  -1.415  0.00  0.00    -0.313 N 
ATOM      6  H   UNL     1       4.352   4.988  -0.198  0.00  0.00    +0.151 HD
ATOM      7  H   UNL     1       5.028   6.974  -1.228  0.00  0.00    +0.146 HD
ATOM      8  H   UNL     1       6.562   7.088  -1.903  0.00  0.00    +0.146 HD
ENDBRANCH   1   2
BRANCH   1   9
ATOM      9  C   UNL     1       4.379   2.409   0.160  0.00  0.00    +0.238 C 
ATOM     10  O   UNL     1       3.311   2.852  -0.205  0.00  0.00    -0.273 OA
ATOM     11  N   UNL     1       4.490   1.109   0.497  0.00  0.00    -0.284 N 
ATOM     12  H   UNL     1       5.325   0.771   0.856  0.00  0.00    +0.155 HD
BRANCH  11  13
ATOM     13  C   UNL     1       3.400   0.247   0.330  0.00  0.00    +0.034 A 
ATOM     14  C   UNL     1       2.107   0.716   0.523  0.00  0.00    +0.024 A 
ATOM     15  C   UNL     1       1.033  -0.137   0.358  0.00  0.00    +0.017 A 
ATOM     16  C   UNL     1       1.245  -1.457   0.000  0.00  0.00    +0.021 A 
ATOM     17  C   UNL     1       2.532  -1.926  -0.194  0.00  0.00    -0.035 A 
ATOM     18  C   UNL     1       3.610  -1.077  -0.030  0.00  0.00    +0.027 A 
ATOM     19  C   UNL     1       2.759  -3.364  -0.584  0.00  0.00    +0.045 C 
ATOM     20 BR   UNL     1      -0.228  -2.622  -0.225  0.00  0.00    -0.050 Br
ENDBRANCH  11  13
ENDBRANCH   1   9
BRANCH   1  21
ATOM     21  C   UNL     1       6.008   3.472   1.699  0.00  0.00    +0.015 C 
ATOM     22  C   UNL     1       7.326   4.246   1.765  0.00  0.00    +0.010 C 
BRANCH  21  24
ATOM     23  C   UNL     1       3.671   3.373   2.578  0.00  0.00    +0.004 C 
ATOM     24  C   UNL     1       4.928   4.239   2.464  0.00  0.00    +0.002 C 
ENDBRANCH  21  24
ENDBRANCH   1  21
TORSDOF 5
