REMARK  Name = ZINC20418855
REMARK  5 active torsions:
REMARK  status: ('A' for Active; 'I' for Inactive)
REMARK    1  A    between atoms: C_1  and  C_2
REMARK    2  A    between atoms: C_7  and  N_8
REMARK    3  A    between atoms: N_11  and  N_12
REMARK    4  A    between atoms: C_13  and  C_15
REMARK    5  A    between atoms: C_24  and  O_25
REMARK                            x       y       z     vdW  Elec       q    Type
REMARK                         _______ _______ _______ _____ _____    ______ ____
ROOT
ATOM      1  N   UNL     1      -0.011   0.965   0.034  0.00  0.00    -0.229 N 
ATOM      2  C   UNL     1       1.147   1.654   0.039  0.00  0.00    +0.264 C 
ATOM      3  O   UNL     1       1.131   2.870   0.049  0.00  0.00    -0.269 OA
ATOM      4  H   UNL     1       0.004  -0.135   0.029  0.00  0.00    +0.173 HD
ENDROOT
BRANCH   2   5
ATOM      5  C   UNL     1       2.435   0.933   0.033  0.00  0.00    +0.080 A 
ATOM      6  C   UNL     1       2.449  -0.452   0.022  0.00  0.00    +0.025 A 
ATOM      7  C   UNL     1       3.675  -1.131   0.016  0.00  0.00    -0.017 A 
ATOM      8  C   UNL     1       3.726  -2.537   0.004  0.00  0.00    +0.008 A 
ATOM      9  C   UNL     1       4.931  -3.168  -0.002  0.00  0.00    +0.001 A 
ATOM     10  C   UNL     1       6.121  -2.441   0.004  0.00  0.00    +0.001 A 
ATOM     11  C   UNL     1       6.112  -1.080   0.016  0.00  0.00    +0.008 A 
ATOM     12  C   UNL     1       4.886  -0.392   0.022  0.00  0.00    -0.014 A 
ATOM     13  C   UNL     1       4.845   1.012   0.034  0.00  0.00    +0.054 A 
ATOM     14  C   UNL     1       3.645   1.660   0.033  0.00  0.00    +0.130 A 
BRANCH  14  15
ATOM     15  O   UNL     1       3.614   3.017   0.039  0.00  0.00    -0.506 OA
ATOM     16  H   UNL     1       4.553   3.588   0.039  0.00  0.00    +0.292 HD
ENDBRANCH  14  15
ENDBRANCH   2   5
BRANCH   1  20
ATOM     17  N   UNL     1      -2.373  -0.388   0.011  0.00  0.00    -0.268 N 
ATOM     18  C   UNL     1      -2.391   0.960   0.022  0.00  0.00    +0.320 C 
ATOM     19  O   UNL     1      -3.452   1.554   0.022  0.00  0.00    -0.251 OA
ATOM     20  N   UNL     1      -1.233   1.649   0.034  0.00  0.00    -0.218 N 
ATOM     21  H   UNL     1      -1.418  -0.924  -0.082  0.00  0.00    +0.156 HD
ATOM     22  H   UNL     1      -1.248   2.749   0.043  0.00  0.00    +0.174 HD
BRANCH  17  29
ATOM     23  C   UNL     1      -2.459  -3.028  -1.045  0.00  0.00    +0.045 C 
ATOM     24  C   UNL     1      -3.656  -2.396  -0.384  0.00  0.00    -0.029 A 
ATOM     25  C   UNL     1      -4.839  -3.100  -0.276  0.00  0.00    +0.005 A 
ATOM     26  C   UNL     1      -5.938  -2.521   0.331  0.00  0.00    +0.000 A 
ATOM     27  C   UNL     1      -5.856  -1.235   0.833  0.00  0.00    +0.002 A 
ATOM     28  C   UNL     1      -4.674  -0.527   0.733  0.00  0.00    +0.023 A 
ATOM     29  C   UNL     1      -3.571  -1.104   0.119  0.00  0.00    +0.038 A 
ENDBRANCH  17  29
ENDBRANCH   1  20
TORSDOF 4
