REMARK  Name = ZINC35675858
REMARK  13 active torsions:
REMARK  status: ('A' for Active; 'I' for Inactive)
REMARK    1  A    between atoms: C_1  and  C_2
REMARK    2  A    between atoms: C_2  and  C_3
REMARK    3  A    between atoms: C_2  and  C_4
REMARK    4  A    between atoms: C_6  and  N_28
REMARK    5  A    between atoms: C_8  and  S_10
REMARK    6  A    between atoms: S_10  and  C_11
REMARK    7  A    between atoms: C_11  and  C_12
REMARK    8  A    between atoms: C_15  and  C_18
REMARK    9  A    between atoms: N_20  and  C_21
REMARK   10  A    between atoms: C_21  and  C_22
REMARK   11  A    between atoms: N_28  and  C_29
REMARK   12  A    between atoms: N_28  and  C_30
REMARK   13  A    between atoms: C_30  and  C_31
REMARK                            x       y       z     vdW  Elec       q    Type
REMARK                         _______ _______ _______ _____ _____    ______ ____
ROOT
ATOM      1  S   UNL     1       4.342  -1.616  -2.179  0.00  0.00    -0.081 S 
ENDROOT
BRANCH   1   6
ATOM      2  C   UNL     1       0.707  -0.490  -1.238  0.00  0.00    +0.050 A 
ATOM      3  C   UNL     1       0.017  -0.622  -2.427  0.00  0.00    +0.067 A 
ATOM      4  C   UNL     1       0.709  -1.076  -3.552  0.00  0.00    +0.126 A 
ATOM      5  N   UNL     1       2.002  -1.364  -3.442  0.00  0.00    -0.207 NA
ATOM      6  C   UNL     1       2.628  -1.224  -2.283  0.00  0.00    +0.190 A 
ATOM      7  N   UNL     1       1.997  -0.790  -1.200  0.00  0.00    -0.226 NA
BRANCH   2   9
ATOM      8  C   UNL     1      -0.019   1.526   0.010  0.00  0.00    +0.014 C 
ATOM      9  C   UNL     1       0.002  -0.004   0.002  0.00  0.00    +0.032 C 
ATOM     10  C   UNL     1      -1.433  -0.534   0.013  0.00  0.00    +0.014 C 
ENDBRANCH   2   9
BRANCH   4  11
ATOM     11  N   UNL     1       0.057  -1.224  -4.766  0.00  0.00    -0.314 N 
ATOM     12  C   UNL     1      -1.339  -0.801  -4.904  0.00  0.00    +0.131 C 
BRANCH  11  13
ATOM     13  C   UNL     1       0.763  -1.804  -5.911  0.00  0.00    +0.141 C 
BRANCH  13  14
ATOM     14  C   UNL     1       0.574  -3.299  -5.913  0.00  0.00    -0.030 A 
ATOM     15  C   UNL     1       1.468  -4.110  -5.239  0.00  0.00    +0.005 A 
ATOM     16  C   UNL     1       1.295  -5.481  -5.242  0.00  0.00    +0.000 A 
ATOM     17  C   UNL     1       0.227  -6.042  -5.918  0.00  0.00    +0.000 A 
ATOM     18  C   UNL     1      -0.667  -5.231  -6.591  0.00  0.00    +0.000 A 
ATOM     19  C   UNL     1      -0.496  -3.859  -6.585  0.00  0.00    +0.005 A 
ENDBRANCH  13  14
ENDBRANCH  11  13
ENDBRANCH   4  11
ENDBRANCH   1   6
BRANCH   1  20
ATOM     20  C   UNL     1       4.774  -2.147  -3.859  0.00  0.00    +0.112 C 
BRANCH  20  21
ATOM     21  C   UNL     1       6.234  -2.517  -3.910  0.00  0.00    -0.037 A 
ATOM     22  C   UNL     1       7.178  -1.552  -4.214  0.00  0.00    +0.005 A 
ATOM     23  C   UNL     1       8.516  -1.884  -4.262  0.00  0.00    +0.013 A 
ATOM     24  C   UNL     1       8.916  -3.196  -4.003  0.00  0.00    +0.037 A 
ATOM     25  C   UNL     1       7.959  -4.164  -3.697  0.00  0.00    +0.013 A 
ATOM     26  C   UNL     1       6.624  -3.817  -3.647  0.00  0.00    +0.005 A 
BRANCH  24  27
ATOM     27  C   UNL     1      10.349  -3.559  -4.053  0.00  0.00    +0.244 C 
ATOM     28  O   UNL     1      11.181  -2.714  -4.321  0.00  0.00    -0.270 OA
ATOM     29  N   UNL     1      10.732  -4.826  -3.803  0.00  0.00    -0.307 N 
ATOM     30  H   UNL     1      10.068  -5.500  -3.590  0.00  0.00    +0.149 HD
BRANCH  29  31
ATOM     31  C   UNL     1      12.152  -5.186  -3.853  0.00  0.00    +0.140 C 
BRANCH  31  32
ATOM     32  C   UNL     1      12.310  -6.651  -3.537  0.00  0.00    -0.027 A 
ATOM     33  C   UNL     1      12.486  -7.080  -2.231  0.00  0.00    +0.025 A 
ATOM     34  C   UNL     1      12.628  -8.432  -1.980  0.00  0.00    +0.111 A 
ATOM     35  N   UNL     1      12.598  -9.308  -2.965  0.00  0.00    -0.263 NA
ATOM     36  C   UNL     1      12.433  -8.935  -4.219  0.00  0.00    +0.111 A 
ATOM     37  C   UNL     1      12.278  -7.602  -4.546  0.00  0.00    +0.025 A 
ENDBRANCH  31  32
ENDBRANCH  29  31
ENDBRANCH  24  27
ENDBRANCH  20  21
ENDBRANCH   1  20
TORSDOF 10
