REMARK  Name = ZINC15443187
REMARK  3 active torsions:
REMARK  status: ('A' for Active; 'I' for Inactive)
REMARK    1  A    between atoms: C_1  and  S_2
REMARK    2  A    between atoms: S_2  and  C_5
REMARK    3  A    between atoms: C_9  and  N_11
REMARK                            x       y       z     vdW  Elec       q    Type
REMARK                         _______ _______ _______ _____ _____    ______ ____
ROOT
ATOM      1  C   UNL     1      -0.798   1.847   1.530  0.00  0.00    +0.090 A 
ATOM      2  C   UNL     1      -0.520   3.063   2.128  0.00  0.00    +0.028 A 
ATOM      3  C   UNL     1      -1.135   3.408   3.318  0.00  0.00    +0.019 A 
ATOM      4  C   UNL     1      -2.020   2.533   3.919  0.00  0.00    +0.039 A 
ATOM      5  C   UNL     1      -2.297   1.308   3.322  0.00  0.00    +0.041 A 
ATOM      6  C   UNL     1      -1.681   0.968   2.124  0.00  0.00    +0.050 A 
ATOM      7 BR   UNL     1      -2.855   3.002   5.549  0.00  0.00    -0.048 Br
ENDROOT
BRANCH   1   9
ATOM      8  C   UNL     1      -1.135   2.034  -1.279  0.00  0.00    +0.200 C 
ATOM      9  S   UNL     1      -0.017   1.417   0.010  0.00  0.00    -0.006 S 
ATOM     10  O   UNL     1       0.002  -0.004   0.002  0.00  0.00    -0.170 OA
ATOM     11  O   UNL     1       1.195   2.158   0.002  0.00  0.00    -0.170 OA
ENDBRANCH   1   9
BRANCH   5  12
ATOM     12  N   UNL     1      -3.192   0.421   3.926  0.00  0.00    -0.357 N 
ATOM     13  H   UNL     1      -3.384  -0.433   3.509  0.00  0.00    +0.142 HD
ATOM     14  H   UNL     1      -3.620   0.660   4.763  0.00  0.00    +0.142 HD
ENDBRANCH   5  12
TORSDOF 2
