REMARK  Name = ZINC21775829
REMARK  8 active torsions:
REMARK  status: ('A' for Active; 'I' for Inactive)
REMARK    1  A    between atoms: C_1  and  C_2
REMARK    2  A    between atoms: C_2  and  C_20
REMARK    3  A    between atoms: N_7  and  C_8
REMARK    4  A    between atoms: C_8  and  C_9
REMARK    5  A    between atoms: C_9  and  C_10
REMARK    6  A    between atoms: C_13  and  S_16
REMARK    7  A    between atoms: S_16  and  N_19
REMARK    8  A    between atoms: N_22  and  C_23
REMARK                            x       y       z     vdW  Elec       q    Type
REMARK                         _______ _______ _______ _____ _____    ______ ____
ROOT
ATOM      1  C   UNL     1      -0.480  -2.744   1.766  0.00  0.00    +0.042 C 
ATOM      2  C   UNL     1      -1.134  -2.189   0.499  0.00  0.00    +0.111 C 
ATOM      3  C   UNL     1      -2.611  -2.636   0.420  0.00  0.00    +0.044 C 
ATOM      4  C   UNL     1      -2.797  -2.839  -1.102  0.00  0.00    +0.098 C 
ATOM      5  C   UNL     1      -1.400  -3.118  -1.612  0.00  0.00    +0.216 C 
ATOM      6  O   UNL     1      -1.140  -3.604  -2.693  0.00  0.00    -0.276 OA
ATOM      7  N   UNL     1      -0.490  -2.749  -0.694  0.00  0.00    -0.287 N 
ENDROOT
BRANCH   2   8
ATOM      8  C   UNL     1      -1.043  -0.685   0.483  0.00  0.00    +0.237 C 
ATOM      9  O   UNL     1      -0.985  -0.069   1.527  0.00  0.00    -0.273 OA
ATOM     10  N   UNL     1      -1.026  -0.023  -0.691  0.00  0.00    -0.311 N 
ATOM     11  H   UNL     1      -0.997  -0.583  -1.637  0.00  0.00    +0.149 HD
BRANCH  10  12
ATOM     12  C   UNL     1      -1.047   1.442  -0.707  0.00  0.00    +0.073 C 
ATOM     13  C   UNL     1      -2.504   1.950  -0.691  0.00  0.00    +0.022 C 
ATOM     14  C   UNL     1      -2.482   3.195  -1.611  0.00  0.00    +0.002 C 
ATOM     15  C   UNL     1      -1.509   2.771  -2.738  0.00  0.00    +0.002 C 
ATOM     16  C   UNL     1      -0.414   1.964  -2.009  0.00  0.00    +0.022 C 
ENDBRANCH  10  12
ENDBRANCH   2   8
BRANCH   7  17
ATOM     17  C   UNL     1       0.958  -2.890  -0.864  0.00  0.00    +0.113 C 
BRANCH  17  18
ATOM     18  C   UNL     1       1.384  -4.304  -0.465  0.00  0.00    +0.054 C 
BRANCH  18  19
ATOM     19  C   UNL     1       2.873  -4.449  -0.639  0.00  0.00    -0.046 A 
ATOM     20  C   UNL     1       3.389  -4.888  -1.843  0.00  0.00    +0.005 A 
ATOM     21  C   UNL     1       4.756  -5.016  -2.005  0.00  0.00    +0.029 A 
ATOM     22  C   UNL     1       5.607  -4.714  -0.958  0.00  0.00    +0.105 A 
ATOM     23  C   UNL     1       5.091  -4.279   0.249  0.00  0.00    +0.029 A 
ATOM     24  C   UNL     1       3.724  -4.146   0.408  0.00  0.00    +0.005 A 
BRANCH  22  25
ATOM     25  S   UNL     1       7.349  -4.884  -1.161  0.00  0.00    +0.056 S 
ATOM     26  O   UNL     1       7.607  -4.784  -2.555  0.00  0.00    -0.153 OA
ATOM     27  O   UNL     1       7.955  -4.018  -0.210  0.00  0.00    -0.153 OA
BRANCH  25  28
ATOM     28  N   UNL     1       7.746  -6.428  -0.715  0.00  0.00    -0.204 NA
ATOM     29  H   UNL     1       8.830  -6.575  -0.828  0.00  0.00    +0.144 HD
ATOM     30  H   UNL     1       7.210  -7.144  -1.356  0.00  0.00    +0.144 HD
ENDBRANCH  25  28
ENDBRANCH  22  25
ENDBRANCH  18  19
ENDBRANCH  17  18
ENDBRANCH   7  17
TORSDOF 7
