REMARK  Name = ZINC13500343
REMARK  13 active torsions:
REMARK  status: ('A' for Active; 'I' for Inactive)
REMARK    1  A    between atoms: C_1  and  C_2
REMARK    2  A    between atoms: C_5  and  C_8
REMARK    3  A    between atoms: C_8  and  N_9
REMARK    4  A    between atoms: N_9  and  C_10
REMARK    5  A    between atoms: N_9  and  C_24
REMARK    6  A    between atoms: C_10  and  C_11
REMARK    7  A    between atoms: C_15  and  C_23
REMARK    8  A    between atoms: C_24  and  C_26
REMARK    9  A    between atoms: C_24  and  C_37
REMARK   10  A    between atoms: N_30  and  C_31
REMARK   11  A    between atoms: C_31  and  C_32
REMARK   12  A    between atoms: C_37  and  C_38
REMARK   13  A    between atoms: C_37  and  C_39
REMARK                            x       y       z     vdW  Elec       q    Type
REMARK                         _______ _______ _______ _____ _____    ______ ____
ROOT
ATOM      1  N   UNL     1       1.277  -4.434  -0.183  0.00  0.00    -0.284 NA
ENDROOT
BRANCH   1   2
ATOM      2  C   UNL     1       0.079  -3.599  -0.338  0.00  0.00    +0.120 C 
BRANCH   2   7
ATOM      3  C   UNL     1       0.683   1.239   2.764  0.00  0.00    +0.044 C 
ATOM      4  C   UNL     1       0.526  -0.023   1.955  0.00  0.00    -0.050 A 
ATOM      5  C   UNL     1       0.174   0.051   0.620  0.00  0.00    +0.003 A 
ATOM      6  C   UNL     1       0.030  -1.106  -0.122  0.00  0.00    +0.005 A 
ATOM      7  C   UNL     1       0.237  -2.337   0.471  0.00  0.00    -0.033 A 
ATOM      8  C   UNL     1       0.589  -2.412   1.806  0.00  0.00    +0.005 A 
ATOM      9  C   UNL     1       0.738  -1.254   2.546  0.00  0.00    +0.003 A 
ENDBRANCH   2   7
ENDBRANCH   1   2
BRANCH   1  10
ATOM     10  C   UNL     1       0.925  -5.860  -0.149  0.00  0.00    +0.126 C 
BRANCH  10  11
ATOM     11  C   UNL     1       0.344  -6.202   1.198  0.00  0.00    +0.031 A 
ATOM     12  C   UNL     1      -1.001  -6.203   1.374  0.00  0.00    +0.020 A 
ATOM     13  C   UNL     1      -1.533  -6.540   2.695  0.00  0.00    -0.001 A 
ATOM     14  C   UNL     1      -2.911  -6.558   2.937  0.00  0.00    +0.013 A 
ATOM     15  C   UNL     1      -3.376  -6.878   4.181  0.00  0.00    -0.050 A 
ATOM     16  C   UNL     1      -2.494  -7.184   5.208  0.00  0.00    +0.005 A 
ATOM     17  C   UNL     1      -1.133  -7.173   4.993  0.00  0.00    +0.026 A 
ATOM     18  C   UNL     1      -0.636  -6.851   3.734  0.00  0.00    +0.049 A 
ATOM     19  N   UNL     1       0.721  -6.833   3.490  0.00  0.00    -0.322 N 
ATOM     20  H   UNL     1       1.339  -7.047   4.207  0.00  0.00    +0.169 HD
ATOM     21  C   UNL     1       1.201  -6.527   2.272  0.00  0.00    +0.254 A 
ATOM     22  O   UNL     1       2.406  -6.525   2.091  0.00  0.00    -0.268 OA
ATOM     23  C   UNL     1      -4.860  -6.897   4.441  0.00  0.00    +0.044 C 
ENDBRANCH  10  11
ENDBRANCH   1  10
BRANCH   1  24
ATOM     24  C   UNL     1       2.253  -4.158  -1.246  0.00  0.00    +0.130 C 
BRANCH  24  25
ATOM     25  C   UNL     1       1.661  -4.531  -2.580  0.00  0.00    +0.169 A 
ATOM     26  N   UNL     1       0.424  -4.340  -2.969  0.00  0.00    -0.112 NA
ATOM     27  N   UNL     1       0.309  -4.793  -4.169  0.00  0.00    -0.023 NA
ATOM     28  N   UNL     1       1.441  -5.269  -4.556  0.00  0.00    -0.043 NA
ATOM     29  N   UNL     1       2.301  -5.122  -3.606  0.00  0.00    -0.220 N 
BRANCH  29  30
ATOM     30  C   UNL     1       3.709  -5.524  -3.637  0.00  0.00    +0.221 C 
BRANCH  30  31
ATOM     31  C   UNL     1       3.824  -6.981  -3.268  0.00  0.00    +0.126 A 
ATOM     32  C   UNL     1       3.788  -8.015  -4.128  0.00  0.00    +0.046 A 
ATOM     33  C   UNL     1       3.930  -9.192  -3.357  0.00  0.00    +0.041 A 
ATOM     34  C   UNL     1       4.044  -8.807  -2.074  0.00  0.00    +0.195 A 
ATOM     35  O   UNL     1       3.986  -7.466  -2.027  0.00  0.00    -0.466 OA
ENDBRANCH  30  31
ENDBRANCH  29  30
ENDBRANCH  24  25
BRANCH  24  36
ATOM     36  C   UNL     1       2.602  -2.668  -1.242  0.00  0.00    +0.008 C 
ATOM     37  C   UNL     1       3.226  -2.294   0.104  0.00  0.00    +0.009 C 
ATOM     38  C   UNL     1       3.600  -2.376  -2.365  0.00  0.00    +0.009 C 
ENDBRANCH  24  36
ENDBRANCH   1  24
TORSDOF 9
