REMARK  Name = ZINC36643646
REMARK  15 active torsions:
REMARK  status: ('A' for Active; 'I' for Inactive)
REMARK    1  A    between atoms: C_1  and  C_2
REMARK    2  A    between atoms: C_7  and  C_8
REMARK    3  A    between atoms: N_12  and  C_13
REMARK    4  A    between atoms: C_13  and  C_14
REMARK    5  A    between atoms: C_14  and  C_15
REMARK    6  A    between atoms: C_15  and  N_16
REMARK    7  A    between atoms: N_16  and  C_17
REMARK    8  A    between atoms: N_16  and  C_18
REMARK    9  A    between atoms: C_19  and  C_21
REMARK   10  A    between atoms: C_24  and  S_27
REMARK   11  A    between atoms: S_27  and  N_30
REMARK   12  A    between atoms: N_30  and  C_31
REMARK   13  A    between atoms: N_30  and  C_34
REMARK   14  A    between atoms: C_31  and  C_32
REMARK   15  A    between atoms: C_34  and  C_35
REMARK                            x       y       z     vdW  Elec       q    Type
REMARK                         _______ _______ _______ _____ _____    ______ ____
ROOT
ATOM      1  C   UNL     1       1.137   1.814   1.177  0.00  0.00    +0.044 C 
ATOM      2  C   UNL     1       0.877   0.345   0.963  0.00  0.00    -0.045 A 
ATOM      3  C   UNL     1       0.799  -0.148  -0.332  0.00  0.00    +0.005 A 
ATOM      4  C   UNL     1       0.560  -1.496  -0.530  0.00  0.00    +0.017 A 
ATOM      5  C   UNL     1       0.403  -2.322   0.554  0.00  0.00    +0.041 A 
ATOM      6  C   UNL     1       0.476  -1.856   1.887  0.00  0.00    +0.083 A 
ATOM      7  C   UNL     1       0.727  -0.474   2.051  0.00  0.00    -0.021 A 
ATOM      8  C   UNL     1       0.826   0.106   3.439  0.00  0.00    +0.046 C 
ATOM      9  N   UNL     1       0.301  -2.791   2.845  0.00  0.00    -0.224 NA
ATOM     10  C   UNL     1       0.077  -4.054   2.565  0.00  0.00    +0.168 A 
ATOM     11  S   UNL     1       0.091  -4.057   0.778  0.00  0.00    -0.052 S 
ATOM     12  N   UNL     1      -0.119  -5.114   3.433  0.00  0.00    -0.246 N 
ATOM     13  C   UNL     1      -0.093  -4.908   4.765  0.00  0.00    +0.252 C 
ATOM     14  O   UNL     1       0.030  -3.781   5.203  0.00  0.00    -0.270 OA
ENDROOT
BRANCH  13  15
ATOM     15  C   UNL     1      -0.213  -6.053   5.692  0.00  0.00    +0.037 A 
ATOM     16  C   UNL     1       0.430  -7.258   5.405  0.00  0.00    +0.015 A 
ATOM     17  C   UNL     1       0.314  -8.323   6.275  0.00  0.00    +0.029 A 
ATOM     18  C   UNL     1      -0.439  -8.198   7.429  0.00  0.00    +0.106 A 
ATOM     19  C   UNL     1      -1.079  -7.006   7.720  0.00  0.00    +0.029 A 
ATOM     20  C   UNL     1      -0.966  -5.932   6.862  0.00  0.00    +0.015 A 
BRANCH  18  21
ATOM     21  S   UNL     1      -0.583  -9.563   8.534  0.00  0.00    +0.061 S 
ATOM     22  O   UNL     1      -1.785  -9.367   9.267  0.00  0.00    -0.153 OA
ATOM     23  O   UNL     1      -0.341 -10.734   7.767  0.00  0.00    -0.153 OA
BRANCH  21  24
ATOM     24  N   UNL     1       0.659  -9.445   9.623  0.00  0.00    -0.169 NA
BRANCH  24  25
ATOM     25  C   UNL     1       0.473  -8.696  10.869  0.00  0.00    +0.136 C 
BRANCH  25  26
ATOM     26  C   UNL     1       0.075  -9.645  11.970  0.00  0.00    -0.018 C 
ATOM     27  C   UNL     1       0.771  -9.689  13.079  0.00  0.00    +0.005 C 
ENDBRANCH  25  26
ENDBRANCH  24  25
BRANCH  24  28
ATOM     28  C   UNL     1       1.944 -10.089   9.341  0.00  0.00    +0.136 C 
BRANCH  28  29
ATOM     29  C   UNL     1       2.879  -9.089   8.711  0.00  0.00    -0.018 C 
ATOM     30  C   UNL     1       4.056  -8.867   9.243  0.00  0.00    +0.005 C 
ENDBRANCH  28  29
ENDBRANCH  24  28
ENDBRANCH  21  24
ENDBRANCH  18  21
ENDBRANCH  13  15
BRANCH  12  31
ATOM     31  C   UNL     1      -0.356  -6.460   2.905  0.00  0.00    +0.114 C 
BRANCH  31  32
ATOM     32  C   UNL     1       0.955  -7.032   2.361  0.00  0.00    +0.001 C 
BRANCH  32  33
ATOM     33  C   UNL     1       0.742  -8.490   1.948  0.00  0.00    -0.078 C 
BRANCH  33  34
ATOM     34  N   UNL     1       2.001  -9.039   1.426  0.00  0.00    +0.376 N 
ATOM     35  C   UNL     1       3.000  -9.081   2.502  0.00  0.00    -0.097 C 
ATOM     36  C   UNL     1       1.769 -10.399   0.920  0.00  0.00    -0.097 C 
ATOM     37  H   UNL     1       2.338  -8.454   0.676  0.00  0.00    -0.083 HD
ENDBRANCH  33  34
ENDBRANCH  32  33
ENDBRANCH  31  32
ENDBRANCH  12  31
TORSDOF 11
