REMARK  Name = ZINC60280772
REMARK  7 active torsions:
REMARK  status: ('A' for Active; 'I' for Inactive)
REMARK    1  A    between atoms: C_1  and  C_2
REMARK    2  A    between atoms: C_2  and  C_3
REMARK    3  A    between atoms: C_2  and  C_4
REMARK    4  A    between atoms: C_2  and  C_5
REMARK    5  A    between atoms: C_7  and  C_14
REMARK    6  A    between atoms: N_9  and  C_10
REMARK    7  A    between atoms: C_10  and  C_11
REMARK                            x       y       z     vdW  Elec       q    Type
REMARK                         _______ _______ _______ _____ _____    ______ ____
ROOT
ATOM      1  C   UNL     1       0.696  -0.522  -1.606  0.00  0.00    +0.082 C 
ATOM      2  N   UNL     1       0.066  -1.261  -2.448  0.00  0.00    -0.362 N 
ATOM      3  C   UNL     1       1.046  -1.820  -3.392  0.00  0.00    +0.176 C 
ATOM      4  C   UNL     1       2.370  -1.250  -2.920  0.00  0.00    +0.101 C 
ATOM      5  N   UNL     1       2.043  -0.470  -1.832  0.00  0.00    -0.274 N 
ATOM      6  N   UNL     1       3.542  -1.448  -3.428  0.00  0.00    -0.388 N 
ATOM      7  H   UNL     1       3.644  -2.020  -4.204  0.00  0.00    +0.157 HD
ATOM      8  H   UNL     1       4.320  -1.023  -3.032  0.00  0.00    +0.157 HD
ATOM      9  H   UNL     1      -0.890  -1.423  -2.459  0.00  0.00    +0.162 HD
ENDROOT
BRANCH   3  10
ATOM     10  C   UNL     1       1.059  -3.325  -3.312  0.00  0.00    +0.035 A 
ATOM     11  C   UNL     1       1.027  -3.953  -2.079  0.00  0.00    +0.130 A 
ATOM     12  C   UNL     1       1.039  -5.336  -2.008  0.00  0.00    +0.039 A 
ATOM     13  C   UNL     1       1.084  -6.088  -3.167  0.00  0.00    +0.004 A 
ATOM     14  C   UNL     1       1.116  -5.460  -4.397  0.00  0.00    +0.020 A 
ATOM     15  C   UNL     1       1.098  -4.078  -4.471  0.00  0.00    +0.049 A 
ATOM     16 CL   UNL     1       1.131  -3.291  -6.018  0.00  0.00    -0.083 Cl
ATOM     17  F   UNL     1       0.984  -3.218  -0.947  0.00  0.00    -0.205 F 
ENDBRANCH   3  10
BRANCH   1  19
ATOM     18  C   UNL     1       0.094   1.725  -0.746  0.00  0.00    +0.018 C 
ATOM     19  C   UNL     1       0.016   0.220  -0.484  0.00  0.00    +0.016 C 
ATOM     20  C   UNL     1       0.714  -0.105   0.839  0.00  0.00    +0.018 C 
ATOM     21  C   UNL     1      -1.451  -0.209  -0.405  0.00  0.00    +0.018 C 
ENDBRANCH   1  19
BRANCH   5  22
ATOM     22  C   UNL     1       2.999   0.299  -1.032  0.00  0.00    +0.140 C 
BRANCH  22  23
ATOM     23  C   UNL     1       3.632  -0.602  -0.003  0.00  0.00    -0.015 C 
ATOM     24  C   UNL     1       4.936  -0.700   0.068  0.00  0.00    +0.005 C 
ENDBRANCH  22  23
ENDBRANCH   5  22
TORSDOF 4
