REMARK  Name = ZINC08564948
REMARK  12 active torsions:
REMARK  status: ('A' for Active; 'I' for Inactive)
REMARK    1  A    between atoms: C_1  and  C_2
REMARK    2  A    between atoms: C_2  and  C_28
REMARK    3  A    between atoms: N_3  and  N_4
REMARK    4  A    between atoms: C_5  and  C_7
REMARK    5  A    between atoms: C_7  and  S_8
REMARK    6  A    between atoms: S_8  and  C_9
REMARK    7  A    between atoms: N_19  and  C_20
REMARK    8  A    between atoms: C_23  and  O_26
REMARK    9  A    between atoms: O_26  and  C_27
REMARK   10  A    between atoms: C_31  and  O_34
REMARK   11  A    between atoms: O_34  and  C_35
REMARK   12  A    between atoms: C_35  and  C_37
REMARK                            x       y       z     vdW  Elec       q    Type
REMARK                         _______ _______ _______ _____ _____    ______ ____
ROOT
ATOM      1  S   UNL     1      -4.290   0.862  -1.482  0.00  0.00    -0.078 S 
ENDROOT
BRANCH   1   2
ATOM      2  C   UNL     1      -5.258  -0.329  -0.618  0.00  0.00    +0.177 A 
ATOM      3  N   UNL     1      -4.803  -1.554  -0.523  0.00  0.00    -0.223 NA
ATOM      4  C   UNL     1      -5.489  -2.515   0.128  0.00  0.00    +0.079 A 
ATOM      5  C   UNL     1      -5.001  -3.821   0.232  0.00  0.00    +0.028 A 
ATOM      6  C   UNL     1      -5.732  -4.765   0.897  0.00  0.00    +0.002 A 
ATOM      7  C   UNL     1      -6.956  -4.447   1.472  0.00  0.00    +0.001 A 
ATOM      8  C   UNL     1      -7.460  -3.179   1.386  0.00  0.00    +0.015 A 
ATOM      9  C   UNL     1      -6.735  -2.195   0.714  0.00  0.00    +0.065 A 
ATOM     10  C   UNL     1      -7.228  -0.817   0.590  0.00  0.00    +0.267 A 
ATOM     11  O   UNL     1      -8.293  -0.481   1.074  0.00  0.00    -0.267 OA
ATOM     12  N   UNL     1      -6.452   0.066  -0.082  0.00  0.00    -0.255 N 
BRANCH  12  13
ATOM     13  C   UNL     1      -6.876   1.394  -0.228  0.00  0.00    +0.052 A 
ATOM     14  C   UNL     1      -6.464   2.359   0.681  0.00  0.00    +0.030 A 
ATOM     15  C   UNL     1      -6.877   3.668   0.532  0.00  0.00    +0.047 A 
ATOM     16  C   UNL     1      -7.713   4.017  -0.518  0.00  0.00    +0.120 A 
ATOM     17  C   UNL     1      -8.130   3.053  -1.424  0.00  0.00    +0.047 A 
ATOM     18  C   UNL     1      -7.713   1.744  -1.280  0.00  0.00    +0.030 A 
BRANCH  16  19
ATOM     19  O   UNL     1      -8.124   5.305  -0.660  0.00  0.00    -0.495 OA
ATOM     20  C   UNL     1      -7.657   6.246   0.308  0.00  0.00    +0.277 C 
ENDBRANCH  16  19
ENDBRANCH  12  13
ENDBRANCH   1   2
BRANCH   1  21
ATOM     21  C   UNL     1      -2.877  -0.165  -1.957  0.00  0.00    +0.174 C 
BRANCH  21  23
ATOM     22  N   UNL     1      -0.750   0.110  -3.190  0.00  0.00    -0.206 N 
ATOM     23  C   UNL     1      -1.888   0.668  -2.731  0.00  0.00    +0.242 C 
ATOM     24  O   UNL     1      -2.115   1.841  -2.941  0.00  0.00    -0.273 OA
ATOM     25  H   UNL     1      -0.568  -0.828  -3.022  0.00  0.00    +0.177 HD
BRANCH  22  28
ATOM     26  C   UNL     1       1.542  -1.114  -4.100  0.00  0.00    +0.068 C 
ATOM     27  C   UNL     1       1.260   0.344  -4.361  0.00  0.00    +0.063 C 
ATOM     28  N   UNL     1       0.167   0.882  -3.914  0.00  0.00    -0.185 NA
BRANCH  27  29
ATOM     29  C   UNL     1       2.224   1.157  -5.123  0.00  0.00    -0.002 A 
ATOM     30  C   UNL     1       3.405   0.580  -5.600  0.00  0.00    +0.013 A 
ATOM     31  C   UNL     1       4.301   1.343  -6.317  0.00  0.00    +0.047 A 
ATOM     32  C   UNL     1       4.038   2.685  -6.556  0.00  0.00    +0.132 A 
ATOM     33  C   UNL     1       2.869   3.264  -6.079  0.00  0.00    +0.047 A 
ATOM     34  C   UNL     1       1.964   2.508  -5.366  0.00  0.00    +0.013 A 
BRANCH  32  35
ATOM     35  O   UNL     1       4.928   3.435  -7.258  0.00  0.00    -0.426 OA
BRANCH  35  36
ATOM     36  C   UNL     1       5.706   4.274  -6.557  0.00  0.00    +0.309 C 
ATOM     37  O   UNL     1       5.582   4.352  -5.357  0.00  0.00    -0.251 OA
ATOM     38  C   UNL     1       6.733   5.120  -7.265  0.00  0.00    +0.136 C 
ENDBRANCH  35  36
ENDBRANCH  32  35
ENDBRANCH  27  29
ENDBRANCH  22  28
ENDBRANCH  21  23
ENDBRANCH   1  21
TORSDOF 9
