REMARK  Name = ZINC33898201
REMARK  9 active torsions:
REMARK  status: ('A' for Active; 'I' for Inactive)
REMARK    1  A    between atoms: C_4  and  C_7
REMARK    2  A    between atoms: C_7  and  O_8
REMARK    3  A    between atoms: O_8  and  C_9
REMARK    4  A    between atoms: C_17  and  C_19
REMARK    5  A    between atoms: C_22  and  C_24
REMARK    6  A    between atoms: C_24  and  C_26
REMARK    7  A    between atoms: C_24  and  N_34
REMARK    8  A    between atoms: C_26  and  C_27
REMARK    9  A    between atoms: C_30  and  O_33
REMARK                            x       y       z     vdW  Elec       q    Type
REMARK                         _______ _______ _______ _____ _____    ______ ____
ROOT
ATOM      1  C   UNL     1       5.782  -3.107   7.381  0.00  0.00    +0.164 A 
ATOM      2  C   UNL     1       6.183  -3.199   8.678  0.00  0.00    +0.230 A 
ATOM      3  O   UNL     1       5.243  -2.595   9.422  0.00  0.00    -0.449 OA
ATOM      4  C   UNL     1       4.286  -2.140   8.601  0.00  0.00    +0.182 A 
ATOM      5  N   UNL     1       4.598  -2.436   7.375  0.00  0.00    -0.210 NA
ENDROOT
BRANCH   1  14
ATOM      6  C   UNL     1       5.342  -1.557   1.475  0.00  0.00    +0.403 C 
ATOM      7  O   UNL     1       5.981  -1.908   0.503  0.00  0.00    -0.226 OA
ATOM      8  N   UNL     1       5.796  -1.826   2.715  0.00  0.00    -0.264 N 
ATOM      9  C   UNL     1       5.030  -1.413   3.899  0.00  0.00    +0.130 C 
ATOM     10  C   UNL     1       4.772  -2.647   4.771  0.00  0.00    +0.127 C 
ATOM     11  N   UNL     1       6.043  -3.360   4.963  0.00  0.00    -0.293 N 
ATOM     12  C   UNL     1       6.809  -3.774   3.780  0.00  0.00    +0.127 C 
ATOM     13  C   UNL     1       7.064  -2.544   2.907  0.00  0.00    +0.130 C 
ATOM     14  C   UNL     1       6.498  -3.629   6.203  0.00  0.00    +0.268 C 
ATOM     15  O   UNL     1       7.499  -4.303   6.351  0.00  0.00    -0.268 OA
BRANCH   6  16
ATOM     16  O   UNL     1       4.178  -0.898   1.313  0.00  0.00    -0.445 OA
BRANCH  16  17
ATOM     17  C   UNL     1       3.757  -0.647  -0.029  0.00  0.00    +0.269 C 
BRANCH  17  21
ATOM     18  C   UNL     1       0.037   1.453   0.014  0.00  0.00    +0.000 A 
ATOM     19  C   UNL     1       1.228   2.156   0.019  0.00  0.00    +0.000 A 
ATOM     20  C   UNL     1       2.431   1.476   0.005  0.00  0.00    +0.007 A 
ATOM     21  C   UNL     1       2.445   0.094  -0.013  0.00  0.00    -0.010 A 
ATOM     22  C   UNL     1       1.254  -0.609  -0.017  0.00  0.00    +0.007 A 
ATOM     23  C   UNL     1       0.050   0.071  -0.004  0.00  0.00    +0.000 A 
ENDBRANCH  17  21
ENDBRANCH  16  17
ENDBRANCH   6  16
ENDBRANCH   1  14
BRANCH   4  24
ATOM     24  C   UNL     1       3.046  -1.400   9.032  0.00  0.00    +0.017 C 
BRANCH  24  25
ATOM     25  N   UNL     1       2.451  -2.074  10.193  0.00  0.00    +0.386 N 
ATOM     26  H   UNL     1       3.116  -2.087  10.952  0.00  0.00    -0.089 HD
ATOM     27  H   UNL     1       1.621  -1.579  10.481  0.00  0.00    -0.089 HD
ATOM     28  H   UNL     1       2.208  -3.021   9.944  0.00  0.00    -0.089 HD
ENDBRANCH  24  25
BRANCH  24  29
ATOM     29  C   UNL     1       3.415   0.036   9.410  0.00  0.00    +0.028 C 
BRANCH  29  30
ATOM     30  C   UNL     1       2.161   0.811   9.722  0.00  0.00    -0.048 A 
ATOM     31  C   UNL     1       1.498   1.487   8.714  0.00  0.00    +0.007 A 
ATOM     32  C   UNL     1       0.349   2.199   8.998  0.00  0.00    +0.045 A 
ATOM     33  C   UNL     1      -0.140   2.235  10.296  0.00  0.00    +0.117 A 
ATOM     34  C   UNL     1       0.527   1.556  11.306  0.00  0.00    +0.045 A 
ATOM     35  C   UNL     1       1.673   0.842  11.015  0.00  0.00    +0.007 A 
BRANCH  33  36
ATOM     36  O   UNL     1      -1.270   2.935  10.578  0.00  0.00    -0.507 OA
ATOM     37  H   UNL     1      -2.084   2.418  10.496  0.00  0.00    +0.292 HD
ENDBRANCH  33  36
ENDBRANCH  29  30
ENDBRANCH  24  29
ENDBRANCH   4  24
TORSDOF 9
