REMARK  Name = ZINC41240327
REMARK  6 active torsions:
REMARK  status: ('A' for Active; 'I' for Inactive)
REMARK    1  A    between atoms: C_3  and  C_6
REMARK    2  A    between atoms: N_8  and  C_9
REMARK    3  A    between atoms: C_12  and  N_15
REMARK    4  A    between atoms: C_16  and  C_18
REMARK    5  A    between atoms: N_20  and  C_21
REMARK    6  A    between atoms: N_24  and  C_27
REMARK                            x       y       z     vdW  Elec       q    Type
REMARK                         _______ _______ _______ _____ _____    ______ ____
ROOT
ATOM      1  N   UNL     1       9.744  -1.066  -0.299  0.00  0.00    -0.278 N 
ATOM      2  C   UNL     1      10.303  -2.277  -0.492  0.00  0.00    +0.303 C 
ATOM      3  O   UNL     1       9.605  -3.270  -0.518  0.00  0.00    -0.265 OA
ATOM      4  H   UNL     1      10.307  -0.281  -0.211  0.00  0.00    +0.155 HD
ENDROOT
BRANCH   1   8
ATOM      5  C   UNL     1       5.599  -0.693  -0.080  0.00  0.00    +0.034 A 
ATOM      6  C   UNL     1       6.223  -1.822   0.435  0.00  0.00    +0.025 A 
ATOM      7  C   UNL     1       7.596  -1.946   0.362  0.00  0.00    +0.025 A 
ATOM      8  C   UNL     1       8.354  -0.941  -0.226  0.00  0.00    +0.034 A 
ATOM      9  C   UNL     1       7.729   0.188  -0.741  0.00  0.00    +0.025 A 
ATOM     10  C   UNL     1       6.356   0.309  -0.674  0.00  0.00    +0.025 A 
BRANCH   5  13
ATOM     11  C   UNL     1       3.530   0.030  -1.007  0.00  0.00    +0.284 C 
ATOM     12  O   UNL     1       4.136   0.535  -1.934  0.00  0.00    -0.266 OA
ATOM     13  N   UNL     1       4.207  -0.568  -0.006  0.00  0.00    -0.279 N 
ATOM     14  H   UNL     1       3.730  -0.912   0.765  0.00  0.00    +0.155 HD
BRANCH  11  17
ATOM     15  C   UNL     1      -0.063   0.450  -1.494  0.00  0.00    +0.042 A 
ATOM     16  C   UNL     1       1.260   0.642  -1.922  0.00  0.00    +0.054 A 
ATOM     17  C   UNL     1       2.065   0.071  -0.978  0.00  0.00    +0.189 A 
ATOM     18  O   UNL     1       1.276  -0.447  -0.015  0.00  0.00    -0.458 OA
ATOM     19  C   UNL     1      -0.008  -0.221  -0.322  0.00  0.00    +0.196 A 
ENDBRANCH  11  17
ENDBRANCH   5  13
ENDBRANCH   1   8
BRANCH   2  20
ATOM     20  C   UNL     1      11.780  -2.398  -0.673  0.00  0.00    +0.300 C 
ATOM     21  O   UNL     1      12.478  -1.405  -0.647  0.00  0.00    -0.265 OA
ATOM     22  N   UNL     1      12.339  -3.609  -0.866  0.00  0.00    -0.305 N 
ATOM     23  H   UNL     1      11.781  -4.402  -0.887  0.00  0.00    +0.149 HD
BRANCH  22  24
ATOM     24  C   UNL     1      13.788  -3.727  -1.044  0.00  0.00    +0.070 C 
ATOM     25  C   UNL     1      14.144  -3.502  -2.516  0.00  0.00    +0.004 C 
ATOM     26  C   UNL     1      15.648  -3.706  -2.709  0.00  0.00    -0.077 C 
ATOM     27  N   UNL     1      16.015  -5.072  -2.319  0.00  0.00    +0.382 N 
ATOM     28  C   UNL     1      15.743  -5.272  -0.890  0.00  0.00    -0.077 C 
ATOM     29  C   UNL     1      14.243  -5.129  -0.627  0.00  0.00    +0.004 C 
ATOM     30  H   UNL     1      15.474  -5.732  -2.858  0.00  0.00    -0.081 HD
BRANCH  27  31
ATOM     31  C   UNL     1      17.444  -5.287  -2.579  0.00  0.00    -0.069 C 
ATOM     32  C   UNL     1      17.820  -6.260  -3.699  0.00  0.00    -0.017 C 
ATOM     33  C   UNL     1      18.026  -6.660  -2.237  0.00  0.00    -0.017 C 
ENDBRANCH  27  31
ENDBRANCH  22  24
ENDBRANCH   2  20
TORSDOF 6
