REMARK  Name = ZINC04925161
REMARK  8 active torsions:
REMARK  status: ('A' for Active; 'I' for Inactive)
REMARK    1  A    between atoms: C_1  and  C_2
REMARK    2  A    between atoms: C_2  and  C_3
REMARK    3  A    between atoms: C_7  and  C_28
REMARK    4  A    between atoms: C_8  and  N_9
REMARK    5  A    between atoms: N_9  and  C_10
REMARK    6  A    between atoms: C_10  and  N_12
REMARK    7  A    between atoms: N_12  and  C_13
REMARK    8  A    between atoms: C_13  and  C_14
REMARK                            x       y       z     vdW  Elec       q    Type
REMARK                         _______ _______ _______ _____ _____    ______ ____
ROOT
ATOM      1  N   UNL     1      -7.329  -1.971  -1.243  0.00  0.00    -0.322 N 
ATOM      2  H   UNL     1      -7.092  -2.268  -0.350  0.00  0.00    +0.148 HD
ENDROOT
BRANCH   1   3
ATOM      3  C   UNL     1      -8.314  -2.592  -1.921  0.00  0.00    +0.135 C 
ATOM      4  S   UNL     1      -8.733  -2.067  -3.495  0.00  0.00    -0.019 S 
BRANCH   3   5
ATOM      5  N   UNL     1      -8.969  -3.627  -1.359  0.00  0.00    -0.296 N 
ATOM      6  H   UNL     1      -8.695  -3.961  -0.491  0.00  0.00    +0.154 HD
BRANCH   5  12
ATOM      7  C   UNL     1     -10.051  -5.591  -2.258  0.00  0.00    -0.026 A 
ATOM      8  C   UNL     1     -11.114  -6.174  -2.920  0.00  0.00    +0.005 A 
ATOM      9  C   UNL     1     -12.170  -5.396  -3.355  0.00  0.00    +0.001 A 
ATOM     10  C   UNL     1     -12.167  -4.031  -3.129  0.00  0.00    +0.005 A 
ATOM     11  C   UNL     1     -11.110  -3.443  -2.463  0.00  0.00    -0.029 A 
ATOM     12  C   UNL     1     -10.044  -4.221  -2.030  0.00  0.00    +0.039 A 
ATOM     13  C   UNL     1     -11.110  -1.957  -2.212  0.00  0.00    +0.045 C 
BRANCH   7  15
ATOM     14  C   UNL     1      -9.121  -6.831  -0.323  0.00  0.00    +0.009 C 
ATOM     15  C   UNL     1      -8.899  -6.440  -1.785  0.00  0.00    +0.033 C 
ENDBRANCH   7  15
ENDBRANCH   5  12
ENDBRANCH   3   5
ENDBRANCH   1   3
BRANCH   1  16
ATOM     16  C   UNL     1      -6.617  -0.845  -1.853  0.00  0.00    +0.138 C 
BRANCH  16  17
ATOM     17  C   UNL     1      -5.572  -0.333  -0.895  0.00  0.00    -0.030 A 
ATOM     18  C   UNL     1      -5.918   0.663   0.004  0.00  0.00    +0.007 A 
ATOM     19  C   UNL     1      -5.013   1.184   0.913  0.00  0.00    +0.026 A 
ATOM     20  C   UNL     1      -3.723   0.659   0.890  0.00  0.00    +0.047 A 
ATOM     21  C   UNL     1      -3.374  -0.362  -0.032  0.00  0.00    +0.003 A 
ATOM     22  C   UNL     1      -4.309  -0.869  -0.940  0.00  0.00    +0.015 A 
ATOM     23  C   UNL     1      -1.981  -0.666   0.217  0.00  0.00    -0.019 A 
ATOM     24  C   UNL     1      -1.573   0.136   1.224  0.00  0.00    +0.020 A 
ATOM     25  N   UNL     1      -2.610   0.934   1.631  0.00  0.00    -0.358 N 
ATOM     26  H   UNL     1      -2.560   1.595   2.340  0.00  0.00    +0.166 HD
ATOM     27  C   UNL     1      -0.172   0.125   1.791  0.00  0.00    +0.053 C 
ATOM     28  C   UNL     1       0.520  -1.172   1.357  0.00  0.00    +0.006 C 
ATOM     29  C   UNL     1       0.362  -1.351  -0.156  0.00  0.00    +0.005 C 
ATOM     30  C   UNL     1      -1.102  -1.675  -0.478  0.00  0.00    +0.037 C 
ENDBRANCH  16  17
ENDBRANCH   1  16
TORSDOF 6
