REMARK  Name = ZINC12931251
REMARK  13 active torsions:
REMARK  status: ('A' for Active; 'I' for Inactive)
REMARK    1  A    between atoms: C_1  and  C_2
REMARK    2  A    between atoms: C_2  and  C_3
REMARK    3  A    between atoms: C_2  and  C_4
REMARK    4  A    between atoms: C_4  and  C_6
REMARK    5  A    between atoms: C_4  and  N_28
REMARK    6  A    between atoms: C_6  and  O_8
REMARK    7  A    between atoms: O_8  and  C_9
REMARK    8  A    between atoms: C_9  and  C_10
REMARK    9  A    between atoms: C_13  and  C_23
REMARK   10  A    between atoms: C_16  and  C_18
REMARK   11  A    between atoms: C_29  and  C_31
REMARK   12  A    between atoms: C_34  and  O_37
REMARK   13  A    between atoms: O_37  and  C_38
REMARK                            x       y       z     vdW  Elec       q    Type
REMARK                         _______ _______ _______ _____ _____    ______ ____
ROOT
ATOM      1  O   UNL     1      -0.813  -2.709   1.002  0.00  0.00    -0.454 OA
ENDROOT
BRANCH   1   2
ATOM      2  C   UNL     1      -1.413  -2.041   0.005  0.00  0.00    +0.328 C 
ATOM      3  O   UNL     1      -1.936  -2.647  -0.900  0.00  0.00    -0.249 OA
BRANCH   2   4
ATOM      4  C   UNL     1      -1.433  -0.534   0.013  0.00  0.00    +0.185 C 
BRANCH   4   5
ATOM      5  N   UNL     1      -2.142  -0.048  -1.174  0.00  0.00    -0.298 N 
ATOM      6  C   UNL     1      -2.727   1.166  -1.160  0.00  0.00    +0.245 C 
ATOM      7  O   UNL     1      -2.667   1.858  -0.163  0.00  0.00    -0.270 OA
ATOM      8  H   UNL     1      -2.190  -0.601  -1.970  0.00  0.00    +0.150 HD
BRANCH   6   9
ATOM      9  C   UNL     1      -3.441   1.655  -2.356  0.00  0.00    +0.037 A 
ATOM     10  C   UNL     1      -3.506   0.863  -3.505  0.00  0.00    +0.016 A 
ATOM     11  C   UNL     1      -4.178   1.320  -4.617  0.00  0.00    +0.046 A 
ATOM     12  C   UNL     1      -4.781   2.572  -4.600  0.00  0.00    +0.120 A 
ATOM     13  C   UNL     1      -4.713   3.366  -3.461  0.00  0.00    +0.046 A 
ATOM     14  C   UNL     1      -4.048   2.913  -2.344  0.00  0.00    +0.016 A 
BRANCH  12  15
ATOM     15  O   UNL     1      -5.438   3.022  -5.700  0.00  0.00    -0.495 OA
ATOM     16  C   UNL     1      -5.470   2.155  -6.836  0.00  0.00    +0.277 C 
ENDBRANCH  12  15
ENDBRANCH   6   9
ENDBRANCH   4   5
BRANCH   4  18
ATOM     17  C   UNL     1      -0.019   1.526   0.010  0.00  0.00    +0.009 C 
ATOM     18  C   UNL     1       0.002  -0.004   0.002  0.00  0.00    +0.014 C 
ATOM     19  C   UNL     1       0.742  -0.511   1.242  0.00  0.00    +0.009 C 
ENDBRANCH   4  18
ENDBRANCH   2   4
ENDBRANCH   1   2
BRANCH   1  20
ATOM     20  C   UNL     1      -0.832  -4.159   0.929  0.00  0.00    +0.329 C 
BRANCH  20  21
ATOM     21  C   UNL     1      -0.116  -4.732   2.125  0.00  0.00    +0.273 C 
ATOM     22  O   UNL     1       0.362  -3.991   2.958  0.00  0.00    -0.270 OA
ATOM     23  N   UNL     1      -0.009  -6.068   2.269  0.00  0.00    -0.179 N 
ATOM     24  C   UNL     1       0.661  -6.756   3.384  0.00  0.00    +0.173 C 
ATOM     25  C   UNL     1       0.486  -8.250   3.046  0.00  0.00    +0.090 C 
ATOM     26  C   UNL     1      -0.282  -8.241   1.744  0.00  0.00    +0.075 C 
ATOM     27  N   UNL     1      -0.518  -7.022   1.391  0.00  0.00    -0.180 NA
BRANCH  26  28
ATOM     28  C   UNL     1      -0.701  -9.434   1.000  0.00  0.00    +0.035 A 
ATOM     29  C   UNL     1      -1.402  -9.518  -0.191  0.00  0.00    +0.017 A 
ATOM     30  C   UNL     1      -1.681 -10.766  -0.698  0.00  0.00    +0.008 A 
ATOM     31  C   UNL     1      -1.263 -11.867  -0.021  0.00  0.00    +0.046 A 
ATOM     32  S   UNL     1      -0.433 -11.155   1.390  0.00  0.00    -0.095 S 
ENDBRANCH  26  28
BRANCH  24  33
ATOM     33  C   UNL     1      -0.012  -6.427   4.692  0.00  0.00    +0.128 A 
ATOM     34  C   UNL     1       0.609  -6.219   5.866  0.00  0.00    +0.046 A 
ATOM     35  C   UNL     1      -0.398  -5.942   6.819  0.00  0.00    +0.041 A 
ATOM     36  C   UNL     1      -1.574  -5.997   6.170  0.00  0.00    +0.195 A 
ATOM     37  O   UNL     1      -1.335  -6.285   4.881  0.00  0.00    -0.466 OA
ENDBRANCH  24  33
ENDBRANCH  20  21
ENDBRANCH   1  20
TORSDOF 10
