REMARK  Name = ZINC08582536
REMARK  16 active torsions:
REMARK  status: ('A' for Active; 'I' for Inactive)
REMARK    1  A    between atoms: C_1  and  C_2
REMARK    2  A    between atoms: C_2  and  C_3
REMARK    3  A    between atoms: C_3  and  C_4
REMARK    4  A    between atoms: C_4  and  C_6
REMARK    5  A    between atoms: C_4  and  N_71
REMARK    6  A    between atoms: N_10  and  C_11
REMARK    7  A    between atoms: C_11  and  C_12
REMARK    8  A    between atoms: C_12  and  O_14
REMARK    9  A    between atoms: O_14  and  C_15
REMARK   10  A    between atoms: C_15  and  C_16
REMARK   11  A    between atoms: C_17  and  C_18
REMARK   12  A    between atoms: C_17  and  N_71
REMARK   13  A    between atoms: C_21  and  C_30
REMARK   14  A    between atoms: C_23  and  C_29
REMARK   15  A    between atoms: C_27  and  O_28
REMARK   16  A    between atoms: C_31  and  N_71
REMARK                            x       y       z     vdW  Elec       q    Type
REMARK                         _______ _______ _______ _____ _____    ______ ____
ROOT
ATOM      1  N   UNL     1      -5.508   4.099  -1.381  0.00  0.00    +0.391 N 
ATOM      2  H   UNL     1      -5.442   3.099  -1.607  0.00  0.00    -0.080 HD
ENDROOT
BRANCH   1   3
ATOM      3  C   UNL     1      -4.584   4.851  -2.256  0.00  0.00    -0.067 C 
ATOM      4  C   UNL     1      -4.746   6.372  -2.057  0.00  0.00    -0.015 C 
ATOM      5  C   UNL     1      -4.569   6.961  -3.479  0.00  0.00    -0.002 C 
ATOM      6  C   UNL     1      -5.279   5.915  -4.375  0.00  0.00    -0.002 C 
ATOM      7  C   UNL     1      -4.922   4.561  -3.729  0.00  0.00    -0.015 C 
ENDBRANCH   1   3
BRANCH   1   8
ATOM      8  C   UNL     1      -6.897   4.551  -1.606  0.00  0.00    +0.003 C 
BRANCH   8   9
ATOM      9  C   UNL     1      -7.204   5.753  -0.751  0.00  0.00    +0.139 A 
ATOM     10  N   UNL     1      -6.976   5.878   0.534  0.00  0.00    -0.115 NA
ATOM     11  N   UNL     1      -7.375   7.048   0.897  0.00  0.00    -0.023 NA
ATOM     12  N   UNL     1      -7.852   7.672  -0.122  0.00  0.00    -0.043 NA
ATOM     13  N   UNL     1      -7.759   6.909  -1.159  0.00  0.00    -0.220 N 
BRANCH  13  14
ATOM     14  C   UNL     1      -8.182   7.238  -2.522  0.00  0.00    +0.267 C 
BRANCH  14  15
ATOM     15  C   UNL     1      -9.618   6.827  -2.716  0.00  0.00    +0.329 C 
ATOM     16  O   UNL     1     -10.227   6.312  -1.808  0.00  0.00    -0.249 OA
BRANCH  15  17
ATOM     17  O   UNL     1     -10.222   7.032  -3.897  0.00  0.00    -0.464 OA
BRANCH  17  18
ATOM     18  C   UNL     1     -11.607   6.611  -4.012  0.00  0.00    +0.229 C 
ATOM     19  C   UNL     1     -12.120   6.925  -5.418  0.00  0.00    +0.048 C 
ENDBRANCH  17  18
ENDBRANCH  15  17
ENDBRANCH  14  15
ENDBRANCH  13  14
ENDBRANCH   8   9
BRANCH   8  20
ATOM     20  C   UNL     1      -7.847   3.409  -1.241  0.00  0.00    -0.008 C 
BRANCH  20  22
ATOM     21  C   UNL     1      -8.640   1.133  -1.897  0.00  0.00    +0.004 C 
ATOM     22  C   UNL     1      -7.610   2.227  -2.182  0.00  0.00    -0.005 C 
ENDBRANCH  20  22
ENDBRANCH   8  20
ENDBRANCH   1   8
BRANCH   1  23
ATOM     23  C   UNL     1      -5.135   4.296   0.035  0.00  0.00    -0.036 C 
BRANCH  23  24
ATOM     24  C   UNL     1      -3.882   3.509   0.321  0.00  0.00    -0.002 A 
ATOM     25  C   UNL     1      -2.680   4.145   0.403  0.00  0.00    +0.017 A 
ATOM     26  C   UNL     1      -1.533   3.372   0.672  0.00  0.00    +0.004 A 
ATOM     27  C   UNL     1      -0.263   3.962   0.770  0.00  0.00    -0.041 A 
ATOM     28  C   UNL     1       0.823   3.183   1.031  0.00  0.00    +0.007 A 
ATOM     29  C   UNL     1       0.691   1.807   1.201  0.00  0.00    -0.048 A 
ATOM     30  C   UNL     1      -0.525   1.202   1.113  0.00  0.00    +0.031 A 
ATOM     31  C   UNL     1      -1.669   1.973   0.840  0.00  0.00    +0.075 A 
ATOM     32  N   UNL     1      -2.877   1.405   0.752  0.00  0.00    -0.213 NA
ATOM     33  C   UNL     1      -3.952   2.122   0.501  0.00  0.00    +0.214 A 
ATOM     34  C   UNL     1       1.914   0.974   1.488  0.00  0.00    +0.044 C 
ATOM     35  C   UNL     1      -0.102   5.449   0.588  0.00  0.00    +0.044 C 
BRANCH  33  36
ATOM     36  O   UNL     1      -5.155   1.503   0.417  0.00  0.00    -0.492 OA
ATOM     37  H   UNL     1      -5.381   1.204  -0.475  0.00  0.00    +0.294 HD
ENDBRANCH  33  36
ENDBRANCH  23  24
ENDBRANCH   1  23
TORSDOF 12
