REMARK  Name = ZINC43814057
REMARK  6 active torsions:
REMARK  status: ('A' for Active; 'I' for Inactive)
REMARK    1  A    between atoms: C_1  and  C_2
REMARK    2  A    between atoms: C_2  and  C_3
REMARK    3  A    between atoms: C_2  and  C_4
REMARK    4  A    between atoms: C_2  and  C_5
REMARK    5  A    between atoms: C_8  and  C_11
REMARK    6  A    between atoms: CA_20  and  C_23
REMARK                            x       y       z     vdW  Elec       q    Type
REMARK                         _______ _______ _______ _____ _____    ______ ____
ROOT
ATOM      1  C   UNL     1       2.509  -1.483  -4.892  0.00  0.00    +0.134 C 
ATOM      2  C   UNL     1       3.189  -2.712  -4.349  0.00  0.00    +0.060 A 
ATOM      3  C   UNL     1       4.460  -3.062  -4.651  0.00  0.00    +0.066 A 
ATOM      4  N   UNL     1       4.743  -4.191  -4.002  0.00  0.00    -0.240 NA
ATOM      5  C   UNL     1       3.696  -4.560  -3.309  0.00  0.00    +0.197 A 
ATOM      6  N   UNL     1       2.705  -3.658  -3.502  0.00  0.00    -0.346 N 
ATOM      7  H   UNL     1       1.818  -3.683  -3.111  0.00  0.00    +0.167 HD
ATOM      8  C   UNL     1       5.338  -2.255  -5.577  0.00  0.00    +0.087 C 
ATOM      9  CA  UNL     1       4.435  -1.295  -6.363  0.00  0.00    +0.174 C 
ATOM     10  N   UNL     1       3.541  -0.585  -5.437  0.00  0.00    -0.292 NA
ATOM     11  H   UNL     1       3.123   0.219  -5.882  0.00  0.00    +0.124 HD
ENDROOT
BRANCH   1  15
ATOM     12  C   UNL     1       0.391   0.494  -1.753  0.00  0.00    -0.042 A 
ATOM     13  C   UNL     1      -0.291  -0.310  -2.647  0.00  0.00    +0.004 A 
ATOM     14  C   UNL     1       0.394  -0.949  -3.663  0.00  0.00    +0.006 A 
ATOM     15  C   UNL     1       1.761  -0.785  -3.785  0.00  0.00    -0.025 A 
ATOM     16  C   UNL     1       2.443   0.020  -2.891  0.00  0.00    +0.006 A 
ATOM     17  C   UNL     1       1.757   0.663  -1.878  0.00  0.00    +0.004 A 
BRANCH  12  19
ATOM     18  C   UNL     1      -0.182   2.705  -0.787  0.00  0.00    +0.015 C 
ATOM     19  C   UNL     1      -0.357   1.191  -0.645  0.00  0.00    -0.013 C 
ATOM     20  C   UNL     1       0.197   0.738   0.707  0.00  0.00    +0.015 C 
ATOM     21  C   UNL     1      -1.843   0.839  -0.732  0.00  0.00    +0.015 C 
ENDBRANCH  12  19
ENDBRANCH   1  15
BRANCH   9  22
ATOM     22  C   UNL     1       3.611  -2.078  -7.352  0.00  0.00    +0.373 C 
ATOM     23  O   UNL     1       2.417  -1.856  -7.462  0.00  0.00    -0.245 OA
ATOM     24  OXT UNL     1       4.137  -2.933  -8.043  0.00  0.00    -0.245 OA
ENDBRANCH   9  22
TORSDOF 3
