REMARK  Name = ZINC20885418
REMARK  14 active torsions:
REMARK  status: ('A' for Active; 'I' for Inactive)
REMARK    1  A    between atoms: C_1  and  C_2
REMARK    2  A    between atoms: C_7  and  O_8
REMARK    3  A    between atoms: O_8  and  C_9
REMARK    4  A    between atoms: C_9  and  C_10
REMARK    5  A    between atoms: N_12  and  C_13
REMARK    6  A    between atoms: C_14  and  C_32
REMARK    7  A    between atoms: C_15  and  C_31
REMARK    8  A    between atoms: C_16  and  C_18
REMARK    9  A    between atoms: N_20  and  C_21
REMARK   10  A    between atoms: C_26  and  C_27
REMARK   11  A    between atoms: C_27  and  O_29
REMARK   12  A    between atoms: O_29  and  C_30
REMARK   13  A    between atoms: C_32  and  O_34
REMARK   14  A    between atoms: O_34  and  C_35
REMARK                            x       y       z     vdW  Elec       q    Type
REMARK                         _______ _______ _______ _____ _____    ______ ____
ROOT
ATOM      1  C   UNL     1       7.081   1.145   0.012  0.00  0.00    +0.087 A 
ATOM      2  C   UNL     1       8.432   1.506  -0.011  0.00  0.00    +0.091 A 
ATOM      3  C   UNL     1       9.372   0.487  -0.044  0.00  0.00    -0.015 A 
ATOM      4  C   UNL     1       8.912  -0.802  -0.052  0.00  0.00    +0.080 A 
ATOM      5  S   UNL     1       7.143  -0.587  -0.005  0.00  0.00    -0.068 S 
ATOM      6  C   UNL     1      10.848   0.789  -0.071  0.00  0.00    +0.046 C 
ENDROOT
BRANCH   1   9
ATOM      7  C   UNL     1       4.735   1.428   0.066  0.00  0.00    +0.255 C 
ATOM      8  O   UNL     1       4.598   0.223   0.052  0.00  0.00    -0.272 OA
ATOM      9  N   UNL     1       5.971   1.966   0.047  0.00  0.00    -0.277 N 
ATOM     10  H   UNL     1       6.095   3.059   0.059  0.00  0.00    +0.155 HD
BRANCH   7  11
ATOM     11  C   UNL     1       3.524   2.324   0.103  0.00  0.00    +0.324 C 
BRANCH  11  12
ATOM     12  O   UNL     1       2.340   1.524   0.118  0.00  0.00    -0.483 OA
BRANCH  12  19
ATOM     13  C   UNL     1      -0.013  -0.039   0.146  0.00  0.00    +0.047 C 
ATOM     14  C   UNL     1      -0.038   1.467   0.167  0.00  0.00    -0.009 A 
ATOM     15  C   UNL     1      -1.245   2.139   0.196  0.00  0.00    +0.007 A 
ATOM     16  C   UNL     1      -1.269   3.521   0.220  0.00  0.00    +0.000 A 
ATOM     17  C   UNL     1      -0.085   4.235   0.205  0.00  0.00    +0.004 A 
ATOM     18  C   UNL     1       1.125   3.569   0.171  0.00  0.00    +0.046 A 
ATOM     19  C   UNL     1       1.151   2.182   0.152  0.00  0.00    +0.124 A 
ENDBRANCH  12  19
ENDBRANCH  11  12
ENDBRANCH   7  11
ENDBRANCH   1   9
BRANCH   4  20
ATOM     20  C   UNL     1       9.682  -2.046  -0.084  0.00  0.00    +0.255 C 
ATOM     21  O   UNL     1      10.898  -2.010  -0.108  0.00  0.00    -0.269 OA
ATOM     22  N   UNL     1       9.043  -3.233  -0.086  0.00  0.00    -0.280 N 
ATOM     23  H   UNL     1       7.948  -3.269   0.010  0.00  0.00    +0.155 HD
BRANCH  22  24
ATOM     24  C   UNL     1       9.769  -4.414  -0.210  0.00  0.00    +0.048 A 
ATOM     25  C   UNL     1      11.027  -4.523   0.369  0.00  0.00    +0.024 A 
ATOM     26  C   UNL     1      11.743  -5.697   0.250  0.00  0.00    +0.002 A 
ATOM     27  C   UNL     1      11.220  -6.769  -0.456  0.00  0.00    +0.001 A 
ATOM     28  C   UNL     1       9.977  -6.678  -1.042  0.00  0.00    +0.017 A 
ATOM     29  C   UNL     1       9.237  -5.498  -0.925  0.00  0.00    +0.080 A 
BRANCH  29  30
ATOM     30  C   UNL     1       7.906  -5.392  -1.550  0.00  0.00    +0.341 C 
ATOM     31  O   UNL     1       7.308  -4.335  -1.530  0.00  0.00    -0.245 OA
BRANCH  30  32
ATOM     32  O   UNL     1       7.353  -6.469  -2.142  0.00  0.00    -0.464 OA
ATOM     33  C   UNL     1       6.040  -6.292  -2.736  0.00  0.00    +0.280 C 
ENDBRANCH  30  32
ENDBRANCH  29  30
ENDBRANCH  22  24
ENDBRANCH   4  20
BRANCH   2  34
ATOM     34  C   UNL     1       8.841   2.916  -0.002  0.00  0.00    +0.342 C 
ATOM     35  O   UNL     1       9.033   3.486   1.055  0.00  0.00    -0.245 OA
BRANCH  34  36
ATOM     36  O   UNL     1       9.004   3.578  -1.165  0.00  0.00    -0.464 OA
ATOM     37  C   UNL     1       9.409   4.970  -1.080  0.00  0.00    +0.280 C 
ENDBRANCH  34  36
ENDBRANCH   2  34
TORSDOF 10
