REMARK  Name = ZINC36002886
REMARK  8 active torsions:
REMARK  status: ('A' for Active; 'I' for Inactive)
REMARK    1  A    between atoms: C_1  and  C_2
REMARK    2  A    between atoms: C_2  and  C_3
REMARK    3  A    between atoms: C_3  and  C_5
REMARK    4  A    between atoms: C_3  and  C_6
REMARK    5  A    between atoms: N_12  and  C_15
REMARK    6  A    between atoms: N_21  and  C_22
REMARK    7  A    between atoms: C_25  and  N_28
REMARK    8  A    between atoms: C_29  and  C_31
REMARK                            x       y       z     vdW  Elec       q    Type
REMARK                         _______ _______ _______ _____ _____    ______ ____
ROOT
ATOM      1  C   UNL     1       0.632  -2.000  -1.327  0.00  0.00    +0.136 A 
ATOM      2  N   UNL     1       0.042  -2.553  -2.373  0.00  0.00    -0.216 NA
ATOM      3  C   UNL     1      -0.062  -3.873  -2.486  0.00  0.00    +0.133 A 
ATOM      4  C   UNL     1       0.474  -4.677  -1.462  0.00  0.00    +0.079 A 
ATOM      5  C   UNL     1       0.557  -6.067  -1.231  0.00  0.00    +0.148 A 
ATOM      6  N   UNL     1       1.170  -6.263  -0.099  0.00  0.00    -0.172 NA
ATOM      7  N   UNL     1       1.520  -5.031   0.469  0.00  0.00    -0.214 N 
ATOM      8  C   UNL     1       1.093  -4.039  -0.368  0.00  0.00    +0.168 A 
ATOM      9  N   UNL     1       1.151  -2.709  -0.349  0.00  0.00    -0.212 NA
ATOM     10  N   UNL     1      -0.680  -4.442  -3.582  0.00  0.00    -0.326 N 
ATOM     11  H   UNL     1      -0.749  -5.407  -3.653  0.00  0.00    +0.148 HD
ENDROOT
BRANCH   7  12
ATOM     12  C   UNL     1       2.190  -4.847   1.684  0.00  0.00    +0.068 A 
ATOM     13  C   UNL     1       3.085  -3.796   1.833  0.00  0.00    +0.028 A 
ATOM     14  C   UNL     1       3.745  -3.617   3.034  0.00  0.00    +0.002 A 
ATOM     15  C   UNL     1       3.515  -4.484   4.086  0.00  0.00    +0.000 A 
ATOM     16  C   UNL     1       2.625  -5.532   3.941  0.00  0.00    +0.002 A 
ATOM     17  C   UNL     1       1.957  -5.712   2.745  0.00  0.00    +0.028 A 
ENDBRANCH   7  12
BRANCH  10  18
ATOM     18  C   UNL     1      -1.232  -3.589  -4.638  0.00  0.00    +0.072 C 
ATOM     19  C   UNL     1      -2.646  -3.150  -4.252  0.00  0.00    +0.024 C 
ATOM     20  C   UNL     1      -3.533  -4.384  -4.078  0.00  0.00    +0.024 C 
ATOM     21  C   UNL     1      -3.582  -5.166  -5.392  0.00  0.00    +0.073 C 
ATOM     22  C   UNL     1      -2.168  -5.605  -5.778  0.00  0.00    +0.024 C 
ATOM     23  C   UNL     1      -1.281  -4.371  -5.952  0.00  0.00    +0.024 C 
BRANCH  21  24
ATOM     24  N   UNL     1      -4.432  -6.348  -5.226  0.00  0.00    -0.308 N 
ATOM     25  C   UNL     1      -5.035  -6.901  -6.297  0.00  0.00    +0.251 C 
ATOM     26  O   UNL     1      -4.873  -6.418  -7.402  0.00  0.00    -0.270 OA
ATOM     27  H   UNL     1      -4.561  -6.733  -4.345  0.00  0.00    +0.149 HD
BRANCH  25  28
ATOM     28  C   UNL     1      -5.885  -8.083  -6.130  0.00  0.00    +0.074 A 
ATOM     29  C   UNL     1      -6.583  -8.800  -7.090  0.00  0.00    +0.021 A 
ATOM     30  C   UNL     1      -7.302  -9.875  -6.627  0.00  0.00    +0.008 A 
ATOM     31  C   UNL     1      -7.284 -10.158  -5.301  0.00  0.00    +0.046 A 
ATOM     32  S   UNL     1      -6.285  -8.979  -4.642  0.00  0.00    -0.092 S 
ENDBRANCH  25  28
ENDBRANCH  21  24
ENDBRANCH  10  18
BRANCH   1  33
ATOM     33  C   UNL     1       0.718  -0.497  -1.257  0.00  0.00    +0.054 C 
ATOM     34  C   UNL     1       2.187  -0.073  -1.207  0.00  0.00    +0.015 C 
BRANCH  33  36
ATOM     35  C   UNL     1      -0.019   1.526   0.010  0.00  0.00    +0.004 C 
ATOM     36  C   UNL     1       0.002  -0.004   0.002  0.00  0.00    +0.007 C 
ENDBRANCH  33  36
ENDBRANCH   1  33
TORSDOF 6
