REMARK  Name = ZINC35877228
REMARK  14 active torsions:
REMARK  status: ('A' for Active; 'I' for Inactive)
REMARK    1  A    between atoms: C_1  and  C_2
REMARK    2  A    between atoms: C_2  and  S_3
REMARK    3  A    between atoms: S_3  and  C_4
REMARK    4  A    between atoms: C_4  and  C_5
REMARK    5  A    between atoms: C_5  and  O_6
REMARK    6  A    between atoms: O_6  and  C_7
REMARK    7  A    between atoms: C_7  and  C_9
REMARK    8  A    between atoms: C_10  and  C_40
REMARK    9  A    between atoms: C_14  and  C_16
REMARK   10  A    between atoms: C_22  and  C_27
REMARK   11  A    between atoms: C_30  and  C_36
REMARK   12  A    between atoms: C_32  and  C_35
REMARK   13  A    between atoms: C_36  and  O_38
REMARK   14  A    between atoms: O_38  and  C_39
REMARK                            x       y       z     vdW  Elec       q    Type
REMARK                         _______ _______ _______ _____ _____    ______ ____
ROOT
ATOM      1  C   UNL     1      -3.791  -6.681  -0.143  0.00  0.00    +0.065 C 
ATOM      2  C   UNL     1      -4.901  -7.397   0.106  0.00  0.00    +0.016 C 
ATOM      3  N   UNL     1      -4.830  -8.754   0.256  0.00  0.00    -0.321 N 
ATOM      4  C   UNL     1      -3.640  -9.361   0.553  0.00  0.00    +0.016 C 
ATOM      5  C   UNL     1      -2.471  -8.729   0.320  0.00  0.00    +0.025 C 
ATOM      6  C   UNL     1      -2.451  -7.343  -0.278  0.00  0.00    +0.099 C 
ATOM      7  C   UNL     1      -1.242  -9.343   0.617  0.00  0.00    +0.176 C 
ATOM      8  O   UNL     1      -0.208  -8.739   0.410  0.00  0.00    -0.291 OA
ATOM      9  C   UNL     1      -1.184 -10.734   1.187  0.00  0.00    +0.171 C 
ATOM     10  C   UNL     1      -2.416 -11.516   0.721  0.00  0.00    +0.013 C 
ATOM     11  C   UNL     1      -3.669 -10.747   1.148  0.00  0.00    +0.055 C 
ATOM     12  C   UNL     1      -2.389 -11.657  -0.803  0.00  0.00    +0.009 C 
ATOM     13  C   UNL     1      -6.232  -6.699   0.220  0.00  0.00    +0.061 C 
ATOM     14  H   UNL     1      -5.631  -9.291   0.151  0.00  0.00    +0.152 HD
ENDROOT
BRANCH   6  15
ATOM     15  C   UNL     1      -2.089  -7.433  -1.738  0.00  0.00    +0.047 A 
ATOM     16  C   UNL     1      -0.973  -6.839  -2.197  0.00  0.00    +0.204 A 
ATOM     17  O   UNL     1      -0.601  -6.885  -3.481  0.00  0.00    -0.462 OA
ATOM     18  C   UNL     1      -1.321  -7.535  -4.418  0.00  0.00    +0.138 A 
ATOM     19  C   UNL     1      -0.907  -7.565  -5.745  0.00  0.00    +0.047 A 
ATOM     20  C   UNL     1      -1.659  -8.236  -6.684  0.00  0.00    +0.007 A 
ATOM     21  C   UNL     1      -2.830  -8.886  -6.322  0.00  0.00    -0.050 A 
ATOM     22  C   UNL     1      -3.259  -8.868  -5.013  0.00  0.00    +0.018 A 
ATOM     23  C   UNL     1      -2.506  -8.193  -4.053  0.00  0.00    +0.064 A 
ATOM     24  C   UNL     1      -2.921  -8.152  -2.637  0.00  0.00    +0.197 A 
ATOM     25  O   UNL     1      -3.937  -8.707  -2.256  0.00  0.00    -0.287 OA
ATOM     26  C   UNL     1      -3.638  -9.614  -7.365  0.00  0.00    +0.044 C 
ENDBRANCH   6  15
BRANCH   1  27
ATOM     27  C   UNL     1      -3.888  -5.277  -0.286  0.00  0.00    +0.338 C 
ATOM     28  O   UNL     1      -3.498  -4.546   0.605  0.00  0.00    -0.245 OA
BRANCH  27  29
ATOM     29  O   UNL     1      -4.414  -4.748  -1.411  0.00  0.00    -0.460 OA
BRANCH  29  30
ATOM     30  C   UNL     1      -4.482  -3.323  -1.487  0.00  0.00    +0.243 C 
BRANCH  30  31
ATOM     31  C   UNL     1      -5.103  -2.913  -2.824  0.00  0.00    +0.110 C 
BRANCH  31  32
ATOM     32  S   UNL     1      -5.189  -1.103  -2.922  0.00  0.00    -0.158 S 
BRANCH  32  34
ATOM     33  C   UNL     1      -6.069   0.723  -4.757  0.00  0.00    +0.015 C 
ATOM     34  C   UNL     1      -5.937  -0.786  -4.543  0.00  0.00    +0.066 C 
ENDBRANCH  32  34
ENDBRANCH  31  32
ENDBRANCH  30  31
ENDBRANCH  29  30
ENDBRANCH  27  29
ENDBRANCH   1  27
BRANCH   9  35
ATOM     35  C   UNL     1       0.066 -11.425   0.705  0.00  0.00    +0.318 C 
ATOM     36  O   UNL     1      -0.017 -12.444   0.062  0.00  0.00    -0.250 OA
BRANCH  35  37
ATOM     37  O   UNL     1       1.271 -10.908   0.992  0.00  0.00    -0.467 OA
ATOM     38  C   UNL     1       2.413 -11.615   0.503  0.00  0.00    +0.280 C 
ENDBRANCH  35  37
ENDBRANCH   9  35
TORSDOF 9
