REMARK  Name = ZINC44135623
REMARK  5 active torsions:
REMARK  status: ('A' for Active; 'I' for Inactive)
REMARK    1  A    between atoms: N_11  and  C1*_12
REMARK    2  A    between atoms: C2*_14  and  O2*_24
REMARK    3  A    between atoms: C3*_16  and  O3*_23
REMARK    4  A    between atoms: C4*_18  and  C5*_21
REMARK    5  A    between atoms: C5*_21  and  O5*_22
REMARK                            x       y       z     vdW  Elec       q    Type
REMARK                         _______ _______ _______ _____ _____    ______ ____
ROOT
ATOM      1  C   UNL     1      -0.017   1.363   0.009  0.00  0.00    +0.068 A 
ATOM      2  C   UNL     1       1.192   2.057   0.002  0.00  0.00    +0.077 A 
ATOM      3  C   UNL     1       2.390   1.323  -0.014  0.00  0.00    +0.128 A 
ATOM      4  C   UNL     1       2.319  -0.079  -0.021  0.00  0.00    +0.146 A 
ATOM      5  N   UNL     1       1.141  -0.680  -0.013  0.00  0.00    -0.219 NA
ATOM      6  C   UNL     1       0.002  -0.004   0.002  0.00  0.00    +0.133 A 
ATOM      7 CL   UNL     1      -1.501  -0.873   0.012  0.00  0.00    -0.062 Cl
ATOM      8  N   UNL     1       3.484  -0.833  -0.036  0.00  0.00    -0.341 N 
ATOM      9  N   UNL     1       3.405   2.223  -0.018  0.00  0.00    -0.232 NA
ATOM     10  C   UNL     1       2.917   3.429  -0.007  0.00  0.00    +0.202 A 
ATOM     11  N   UNL     1       1.555   3.382   0.005  0.00  0.00    -0.301 N 
ATOM     12  H   UNL     1       4.348  -0.392  -0.042  0.00  0.00    +0.144 HD
ATOM     13  H   UNL     1       3.434  -1.802  -0.041  0.00  0.00    +0.144 HD
ENDROOT
BRANCH  11  14
ATOM     14  C1* UNL     1       0.647   4.532   0.020  0.00  0.00    +0.252 C 
ATOM     15  C2* UNL     1       0.259   4.892   1.472  0.00  0.00    +0.195 C 
ATOM     16  C3* UNL     1       0.196   6.435   1.471  0.00  0.00    +0.178 C 
ATOM     17  C4* UNL     1       0.554   6.825   0.020  0.00  0.00    +0.177 C 
ATOM     18  O4* UNL     1       1.315   5.707  -0.488  0.00  0.00    -0.346 OA
BRANCH  16  19
ATOM     19  O3* UNL     1       1.151   6.975   2.387  0.00  0.00    -0.386 OA
ATOM     20  H3* UNL     1       1.155   7.941   2.428  0.00  0.00    +0.210 HD
ENDBRANCH  16  19
BRANCH  15  21
ATOM     21  O2* UNL     1       1.255   4.428   2.386  0.00  0.00    -0.385 OA
ATOM     22  H2* UNL     1       1.062   4.628   3.312  0.00  0.00    +0.210 HD
ENDBRANCH  15  21
BRANCH  17  23
ATOM     23  C5* UNL     1       1.400   8.100   0.004  0.00  0.00    +0.190 C 
BRANCH  23  24
ATOM     24  O5* UNL     1       1.621   8.508  -1.347  0.00  0.00    -0.392 OA
ATOM     25  H5* UNL     1       2.152   9.312  -1.434  0.00  0.00    +0.210 HD
ENDBRANCH  23  24
ENDBRANCH  17  23
ENDBRANCH  11  14
TORSDOF 5
