REMARK  Name = ZINC64166815
REMARK  9 active torsions:
REMARK  status: ('A' for Active; 'I' for Inactive)
REMARK    1  A    between atoms: C_1  and  C_2
REMARK    2  A    between atoms: C_2  and  C_3
REMARK    3  A    between atoms: C_3  and  C_4
REMARK    4  A    between atoms: C_3  and  C_5
REMARK    5  A    between atoms: C_3  and  C_6
REMARK    6  A    between atoms: C_10  and  N_13
REMARK    7  A    between atoms: N_16  and  C_17
REMARK    8  A    between atoms: C_17  and  C_18
REMARK    9  A    between atoms: C_18  and  C_19
REMARK                            x       y       z     vdW  Elec       q    Type
REMARK                         _______ _______ _______ _____ _____    ______ ____
ROOT
ATOM      1  N   UNL     1      -0.915  -5.441   1.185  0.00  0.00    -0.274 N 
ATOM      2  C   UNL     1      -1.411  -6.686   1.327  0.00  0.00    +0.301 C 
ATOM      3  O   UNL     1      -2.512  -6.849   1.818  0.00  0.00    -0.253 OA
ATOM      4  N   UNL     1      -0.688  -7.750   0.925  0.00  0.00    -0.299 N 
ATOM      5  H   UNL     1      -0.037  -5.311   0.794  0.00  0.00    +0.153 HD
ATOM      6  H   UNL     1       0.190  -7.619   0.533  0.00  0.00    +0.150 HD
ENDROOT
BRANCH   1  10
ATOM      7  C   UNL     1      -1.413  -2.063   0.004  0.00  0.00    +0.135 C 
ATOM      8  N   UNL     1      -2.790  -2.632   0.128  0.00  0.00    -0.241 NA
ATOM      9  N   UNL     1      -2.781  -3.982   0.653  0.00  0.00    -0.226 NA
ATOM     10  C   UNL     1      -1.701  -4.285   1.622  0.00  0.00    +0.218 C 
ATOM     11  S   UNL     1      -0.691  -2.742   1.566  0.00  0.00    -0.101 S 
ATOM     12  H   UNL     1      -3.381  -2.032   0.683  0.00  0.00    +0.142 HD
ATOM     13  H   UNL     1      -3.684  -4.229   1.029  0.00  0.00    +0.143 HD
BRANCH   7  14
ATOM     14  C   UNL     1      -1.433  -0.534   0.013  0.00  0.00    -0.009 C 
ATOM     15  C   UNL     1      -2.149  -0.040   1.272  0.00  0.00    +0.013 C 
ATOM     16  C   UNL     1      -2.173  -0.027  -1.227  0.00  0.00    +0.013 C 
BRANCH  14  18
ATOM     17  C   UNL     1      -0.019   1.526   0.010  0.00  0.00    +0.004 C 
ATOM     18  C   UNL     1       0.002  -0.004   0.002  0.00  0.00    +0.005 C 
ENDBRANCH  14  18
ENDBRANCH   7  14
ENDBRANCH   1  10
BRANCH   4  19
ATOM     19  C   UNL     1      -1.227  -9.103   1.079  0.00  0.00    +0.110 C 
BRANCH  19  20
ATOM     20  C   UNL     1      -0.214 -10.119   0.548  0.00  0.00    +0.052 C 
BRANCH  20  21
ATOM     21  C   UNL     1      -0.770 -11.511   0.706  0.00  0.00    -0.040 C 
ATOM     22  C   UNL     1      -1.432 -12.234  -0.226  0.00  0.00    -0.001 A 
ATOM     23  C   UNL     1      -1.820 -11.950  -1.613  0.00  0.00    +0.010 A 
ATOM     24  C   UNL     1      -2.493 -12.892  -2.311  0.00  0.00    +0.001 A 
ATOM     25  C   UNL     1      -2.829 -14.130  -1.745  0.00  0.00    +0.002 A 
ATOM     26  C   UNL     1      -2.508 -14.463  -0.477  0.00  0.00    +0.026 A 
ATOM     27  C   UNL     1      -1.798 -13.548   0.349  0.00  0.00    +0.043 A 
ATOM     28  N   UNL     1      -1.379 -13.635   1.588  0.00  0.00    -0.380 N 
ATOM     29  C   UNL     1      -0.693 -12.386   1.938  0.00  0.00    +0.144 C 
ATOM     30  H   UNL     1      -1.499 -14.398   2.174  0.00  0.00    +0.160 HD
ENDBRANCH  20  21
ENDBRANCH  19  20
ENDBRANCH   4  19
TORSDOF 6
