REMARK  Name = ZINC35048276
REMARK  13 active torsions:
REMARK  status: ('A' for Active; 'I' for Inactive)
REMARK    1  A    between atoms: N_9  and  C_10
REMARK    2  A    between atoms: C_10  and  C_11
REMARK    3  A    between atoms: C_11  and  C_13
REMARK    4  A    between atoms: C_11  and  O_36
REMARK    5  A    between atoms: C_13  and  N_14
REMARK    6  A    between atoms: N_14  and  C_15
REMARK    7  A    between atoms: N_14  and  C_18
REMARK    8  A    between atoms: C_15  and  C_16
REMARK    9  A    between atoms: C_16  and  O_17
REMARK   10  A    between atoms: C_18  and  C_19
REMARK   11  A    between atoms: C_19  and  C_21
REMARK   12  A    between atoms: C_19  and  O_35
REMARK   13  A    between atoms: C_21  and  N_22
REMARK                            x       y       z     vdW  Elec       q    Type
REMARK                         _______ _______ _______ _____ _____    ______ ____
ROOT
ATOM      1  N   UNL     1       7.309  -0.628   3.055  0.00  0.00    +0.385 N 
ATOM      2  H   UNL     1       7.265  -1.485   3.586  0.00  0.00    -0.082 HD
ENDROOT
BRANCH   1   3
ATOM      3  C   UNL     1       7.150  -0.929   1.626  0.00  0.00    -0.045 C 
BRANCH   3   4
ATOM      4  C   UNL     1       8.222  -1.931   1.193  0.00  0.00    +0.118 C 
BRANCH   4   5
ATOM      5  O   UNL     1       8.085  -3.133   1.953  0.00  0.00    -0.392 OA
ATOM      6  H   UNL     1       7.256  -3.606   1.795  0.00  0.00    +0.210 HD
ENDBRANCH   4   5
BRANCH   4   7
ATOM      7  C   UNL     1       8.055  -2.247  -0.295  0.00  0.00    +0.151 C 
BRANCH   7  16
ATOM      8  C   UNL     1       9.792  -7.190  -0.678  0.00  0.00    +0.001 A 
ATOM      9  C   UNL     1       8.585  -6.757  -0.145  0.00  0.00    +0.002 A 
ATOM     10  C   UNL     1       8.271  -5.416  -0.116  0.00  0.00    +0.026 A 
ATOM     11  C   UNL     1       9.170  -4.484  -0.624  0.00  0.00    +0.049 A 
ATOM     12  C   UNL     1      10.392  -4.928  -1.162  0.00  0.00    -0.000 A 
ATOM     13  C   UNL     1      10.690  -6.292  -1.183  0.00  0.00    +0.010 A 
ATOM     14  C   UNL     1      11.100  -3.724  -1.604  0.00  0.00    +0.027 A 
ATOM     15  C   UNL     1      10.308  -2.677  -1.323  0.00  0.00    +0.087 A 
ATOM     16  N   UNL     1       9.151  -3.112  -0.737  0.00  0.00    -0.344 N 
ENDBRANCH   7  16
ENDBRANCH   4   7
ENDBRANCH   3   4
ENDBRANCH   1   3
BRANCH   1  17
ATOM     17  C   UNL     1       6.233   0.272   3.489  0.00  0.00    -0.050 C 
BRANCH  17  18
ATOM     18  C   UNL     1       4.884  -0.433   3.333  0.00  0.00    +0.137 C 
BRANCH  18  19
ATOM     19  O   UNL     1       4.858  -1.599   4.160  0.00  0.00    -0.397 OA
ATOM     20  H   UNL     1       4.031  -2.097   4.112  0.00  0.00    +0.209 HD
ENDBRANCH  18  19
ENDBRANCH  17  18
ENDBRANCH   1  17
BRANCH   1  21
ATOM     21  C   UNL     1       8.609   0.019   3.278  0.00  0.00    -0.045 C 
BRANCH  21  22
ATOM     22  C   UNL     1       8.860   0.155   4.781  0.00  0.00    +0.118 C 
BRANCH  22  23
ATOM     23  O   UNL     1       7.971   1.132   5.326  0.00  0.00    -0.392 OA
ATOM     24  H   UNL     1       8.070   2.013   4.939  0.00  0.00    +0.210 HD
ENDBRANCH  22  23
BRANCH  22  25
ATOM     25  C   UNL     1      10.307   0.592   5.019  0.00  0.00    +0.151 C 
BRANCH  25  26
ATOM     26  N   UNL     1      10.582   0.607   6.457  0.00  0.00    -0.341 N 
ATOM     27  C   UNL     1      10.391   1.689   7.288  0.00  0.00    +0.050 A 
ATOM     28  C   UNL     1       9.927   2.984   7.080  0.00  0.00    +0.026 A 
ATOM     29  C   UNL     1       9.848   3.862   8.139  0.00  0.00    +0.002 A 
ATOM     30  C   UNL     1      10.228   3.468   9.415  0.00  0.00    +0.001 A 
ATOM     31  C   UNL     1      10.687   2.201   9.642  0.00  0.00    +0.010 A 
ATOM     32  C   UNL     1      10.775   1.294   8.584  0.00  0.00    +0.003 A 
ATOM     33  C   UNL     1      11.203  -0.096   8.466  0.00  0.00    -0.019 A 
ATOM     34  C   UNL     1      11.061  -0.453   7.175  0.00  0.00    +0.023 A 
ATOM     35  C   UNL     1      11.397  -1.827   6.644  0.00  0.00    +0.054 C 
ATOM     36  C   UNL     1      12.277  -2.545   7.672  0.00  0.00    +0.006 C 
ATOM     37  C   UNL     1      11.626  -2.455   9.055  0.00  0.00    +0.005 C 
ATOM     38  C   UNL     1      11.710  -1.005   9.556  0.00  0.00    +0.037 C 
ENDBRANCH  25  26
ENDBRANCH  22  25
ENDBRANCH  21  22
ENDBRANCH   1  21
TORSDOF 13
