REMARK  Name = ZINC67240793
REMARK  5 active torsions:
REMARK  status: ('A' for Active; 'I' for Inactive)
REMARK    1  A    between atoms: C_1  and  C_2
REMARK    2  A    between atoms: C_7  and  C_12
REMARK    3  A    between atoms: N_14  and  C_15
REMARK    4  A    between atoms: C_18  and  C_21
REMARK    5  A    between atoms: C_21  and  N_22
REMARK                            x       y       z     vdW  Elec       q    Type
REMARK                         _______ _______ _______ _____ _____    ______ ____
ROOT
ATOM      1  C   UNL     1      -1.426  -5.046   0.454  0.00  0.00    +0.249 C 
ATOM      2  O   UNL     1      -2.255  -4.631  -0.334  0.00  0.00    -0.270 OA
ATOM      3  N   UNL     1      -1.397  -6.354   0.775  0.00  0.00    -0.281 N 
ATOM      4  H   UNL     1      -0.695  -6.697   1.350  0.00  0.00    +0.155 HD
ENDROOT
BRANCH   1  10
ATOM      5  C   UNL     1      -0.016   1.525   0.007  0.00  0.00    +0.008 C 
ATOM      6  C   UNL     1       0.004  -0.005  -0.003  0.00  0.00    -0.009 C 
ATOM      7  C   UNL     1      -1.433  -0.536   0.023  0.00  0.00    +0.008 C 
ATOM      8  C   UNL     1      -1.436  -2.045  -0.235  0.00  0.00    +0.037 C 
ATOM      9  C   UNL     1      -0.462  -2.705   0.729  0.00  0.00    -0.025 A 
ATOM     10  C   UNL     1      -0.455  -4.118   1.056  0.00  0.00    +0.047 A 
ATOM     11  C   UNL     1       0.494  -4.559   1.950  0.00  0.00    +0.058 A 
ATOM     12  S   UNL     1       1.353  -3.175   2.355  0.00  0.00    -0.101 S 
ATOM     13  C   UNL     1       0.493  -1.988   1.365  0.00  0.00    -0.006 A 
ATOM     14  C   UNL     1       0.749  -0.518   1.238  0.00  0.00    +0.046 C 
ENDBRANCH   1  10
BRANCH   3  15
ATOM     15  C   UNL     1      -2.379  -7.218   0.280  0.00  0.00    +0.034 A 
ATOM     16  C   UNL     1      -2.895  -7.027  -0.995  0.00  0.00    +0.023 A 
ATOM     17  C   UNL     1      -3.864  -7.882  -1.482  0.00  0.00    +0.007 A 
ATOM     18  C   UNL     1      -4.321  -8.927  -0.701  0.00  0.00    -0.030 A 
ATOM     19  C   UNL     1      -3.810  -9.120   0.570  0.00  0.00    +0.007 A 
ATOM     20  C   UNL     1      -2.836  -8.273   1.060  0.00  0.00    +0.023 A 
BRANCH  18  21
ATOM     21  C   UNL     1      -5.380  -9.858  -1.234  0.00  0.00    +0.141 C 
BRANCH  21  22
ATOM     22  N   UNL     1      -4.739 -10.978  -1.928  0.00  0.00    -0.295 N 
ATOM     23  C   UNL     1      -5.495 -11.943  -2.491  0.00  0.00    +0.297 C 
ATOM     24  O   UNL     1      -6.707 -11.883  -2.422  0.00  0.00    -0.253 OA
ATOM     25  N   UNL     1      -4.906 -12.973  -3.129  0.00  0.00    -0.313 N 
ATOM     26  H   UNL     1      -3.772 -11.026  -1.983  0.00  0.00    +0.151 HD
ATOM     27  H   UNL     1      -3.938 -13.021  -3.184  0.00  0.00    +0.146 HD
ATOM     28  H   UNL     1      -5.449 -13.668  -3.534  0.00  0.00    +0.146 HD
ENDBRANCH  21  22
ENDBRANCH  18  21
ENDBRANCH   3  15
TORSDOF 4
