REMARK  Name = ZINC38733492
REMARK  4 active torsions:
REMARK  status: ('A' for Active; 'I' for Inactive)
REMARK    1  A    between atoms: C_13  and  C_15
REMARK    2  A    between atoms: C_21  and  C_23
REMARK    3  A    between atoms: C_28  and  C_31
REMARK    4  A    between atoms: C_28  and  O_38
REMARK                            x       y       z     vdW  Elec       q    Type
REMARK                         _______ _______ _______ _____ _____    ______ ____
ROOT
ATOM      1  C   UNL     1      -0.030  -6.637   1.131  0.00  0.00    +0.091 C 
ATOM      2  C   UNL     1      -0.796  -6.409  -0.174  0.00  0.00    +0.040 C 
ATOM      3  C   UNL     1      -1.935  -7.380  -0.281  0.00  0.00    -0.030 C 
ATOM      4  C   UNL     1      -2.034  -8.462   0.423  0.00  0.00    -0.030 C 
ATOM      5  C   UNL     1      -1.030  -8.889   1.453  0.00  0.00    +0.040 C 
ATOM      6  C   UNL     1       0.285  -8.133   1.258  0.00  0.00    +0.091 C 
ENDROOT
BRANCH   1  19
ATOM      7  C   UNL     1       0.002   1.390   2.316  0.00  0.00    +0.005 A 
ATOM      8  C   UNL     1       1.212   2.072   2.285  0.00  0.00    +0.018 A 
ATOM      9  C   UNL     1       2.391   1.356   2.258  0.00  0.00    +0.084 A 
ATOM     10  N   UNL     1       2.382   0.037   2.261  0.00  0.00    -0.350 N 
ATOM     11  C   UNL     1       1.250  -0.650   2.289  0.00  0.00    +0.099 A 
ATOM     12  C   UNL     1       0.024   0.008   2.318  0.00  0.00    +0.042 A 
ATOM     13  N   UNL     1       1.287  -2.039   2.291  0.00  0.00    -0.314 N 
ATOM     14  C   UNL     1       0.050  -2.820   2.433  0.00  0.00    +0.125 C 
ATOM     15  C   UNL     1      -0.058  -3.787   1.248  0.00  0.00    +0.126 C 
ATOM     16  N   UNL     1       1.219  -4.502   1.107  0.00  0.00    -0.298 N 
ATOM     17  C   UNL     1       2.455  -3.721   0.964  0.00  0.00    +0.126 C 
ATOM     18  C   UNL     1       2.563  -2.754   2.144  0.00  0.00    +0.125 C 
ATOM     19  C   UNL     1       1.254  -5.849   1.108  0.00  0.00    +0.220 C 
ATOM     20  O   UNL     1       2.320  -6.427   1.091  0.00  0.00    -0.275 OA
ATOM     21  H   UNL     1       3.225  -0.442   2.242  0.00  0.00    +0.166 HD
ENDBRANCH   1  19
BRANCH   6  22
ATOM     22  C   UNL     1       0.962  -8.617   0.002  0.00  0.00    +0.220 C 
ATOM     23  O   UNL     1       0.361  -8.610  -1.051  0.00  0.00    -0.275 OA
ATOM     24  N   UNL     1       2.235  -9.057   0.050  0.00  0.00    -0.301 N 
ATOM     25  C   UNL     1       2.930  -9.199   1.336  0.00  0.00    +0.111 C 
ATOM     26  C   UNL     1       3.483 -10.623   1.443  0.00  0.00    +0.058 C 
ATOM     27  C   UNL     1       4.355 -10.921   0.221  0.00  0.00    +0.094 C 
ATOM     28  C   UNL     1       3.506 -10.828  -1.048  0.00  0.00    +0.058 C 
ATOM     29  C   UNL     1       2.951  -9.411  -1.184  0.00  0.00    +0.111 C 
BRANCH  27  30
ATOM     30  C   UNL     1       4.928 -12.310   0.340  0.00  0.00    -0.016 A 
ATOM     31  C   UNL     1       4.225 -13.293   1.010  0.00  0.00    +0.008 A 
ATOM     32  C   UNL     1       4.750 -14.567   1.120  0.00  0.00    +0.020 A 
ATOM     33  C   UNL     1       5.981 -14.858   0.558  0.00  0.00    +0.041 A 
ATOM     34  C   UNL     1       6.684 -13.874  -0.113  0.00  0.00    +0.020 A 
ATOM     35  C   UNL     1       6.155 -12.602  -0.227  0.00  0.00    +0.008 A 
ATOM     36 CL   UNL     1       6.641 -16.457   0.695  0.00  0.00    -0.084 Cl
ENDBRANCH  27  30
BRANCH  27  37
ATOM     37  O   UNL     1       5.420  -9.971   0.152  0.00  0.00    -0.384 OA
ATOM     38  H   UNL     1       6.014 -10.100  -0.600  0.00  0.00    +0.211 HD
ENDBRANCH  27  37
ENDBRANCH   6  22
TORSDOF 4
