REMARK  Name = ZINC58960294
REMARK  8 active torsions:
REMARK  status: ('A' for Active; 'I' for Inactive)
REMARK    1  A    between atoms: C_1  and  C_2
REMARK    2  A    between atoms: C_2  and  C_3
REMARK    3  A    between atoms: C_6  and  C_9
REMARK    4  A    between atoms: C_11  and  C_29
REMARK    5  A    between atoms: C_13  and  S_15
REMARK    6  A    between atoms: S_15  and  C_16
REMARK    7  A    between atoms: C_16  and  C_17
REMARK    8  A    between atoms: N_19  and  C_20
REMARK                            x       y       z     vdW  Elec       q    Type
REMARK                         _______ _______ _______ _____ _____    ______ ____
ROOT
ATOM      1  C   UNL     1       2.790  -1.893   4.674  0.00  0.00    +0.076 A 
ATOM      2  C   UNL     1       2.096  -2.147   5.860  0.00  0.00    +0.060 A 
ATOM      3  C   UNL     1       2.807  -2.604   6.955  0.00  0.00    +0.148 A 
ATOM      4  N   UNL     1       4.114  -2.785   6.849  0.00  0.00    -0.218 NA
ATOM      5  C   UNL     1       4.747  -2.536   5.711  0.00  0.00    +0.190 A 
ATOM      6  N   UNL     1       4.103  -2.104   4.637  0.00  0.00    -0.222 NA
ENDROOT
BRANCH   1  10
ATOM      7  C   UNL     1       0.733  -0.488   1.229  0.00  0.00    -0.048 A 
ATOM      8  C   UNL     1       2.098  -0.701   1.176  0.00  0.00    +0.004 A 
ATOM      9  C   UNL     1       2.771  -1.157   2.292  0.00  0.00    +0.010 A 
ATOM     10  C   UNL     1       2.072  -1.403   3.472  0.00  0.00    +0.001 A 
ATOM     11  C   UNL     1       0.696  -1.185   3.519  0.00  0.00    +0.010 A 
ATOM     12  C   UNL     1       0.035  -0.725   2.399  0.00  0.00    +0.004 A 
BRANCH   7  14
ATOM     13  C   UNL     1      -0.009   1.540   0.009  0.00  0.00    +0.009 C 
ATOM     14  C   UNL     1       0.003   0.010   0.008  0.00  0.00    +0.032 C 
ENDBRANCH   7  14
ENDBRANCH   1  10
BRANCH   3  15
ATOM     15  C   UNL     1       2.102  -2.891   8.256  0.00  0.00    +0.434 C 
ATOM     16  F   UNL     1       1.679  -4.224   8.273  0.00  0.00    -0.164 F 
ATOM     17  F   UNL     1       2.980  -2.667   9.322  0.00  0.00    -0.164 F 
ATOM     18  F   UNL     1       0.993  -2.048   8.381  0.00  0.00    -0.164 F 
ENDBRANCH   3  15
BRANCH   5  19
ATOM     19  S   UNL     1       6.488  -2.794   5.622  0.00  0.00    -0.077 S 
BRANCH  19  20
ATOM     20  C   UNL     1       6.929  -3.381   7.281  0.00  0.00    +0.173 C 
BRANCH  20  21
ATOM     21  C   UNL     1       8.412  -3.643   7.343  0.00  0.00    +0.227 C 
ATOM     22  O   UNL     1       9.103  -3.453   6.364  0.00  0.00    -0.275 OA
ATOM     23  N   UNL     1       8.970  -4.089   8.486  0.00  0.00    -0.285 N 
ATOM     24  H   UNL     1       8.431  -4.177   9.287  0.00  0.00    +0.155 HD
BRANCH  23  25
ATOM     25  C   UNL     1      10.330  -4.425   8.517  0.00  0.00    +0.037 A 
ATOM     26  C   UNL     1      10.766  -5.484   9.301  0.00  0.00    +0.027 A 
ATOM     27  C   UNL     1      12.107  -5.817   9.332  0.00  0.00    +0.051 A 
ATOM     28  C   UNL     1      13.020  -5.095   8.581  0.00  0.00    +0.166 A 
ATOM     29  C   UNL     1      12.586  -4.032   7.793  0.00  0.00    +0.168 A 
ATOM     30  C   UNL     1      11.241  -3.702   7.758  0.00  0.00    +0.072 A 
ATOM     31  O   UNL     1      13.666  -3.489   7.159  0.00  0.00    -0.453 OA
ATOM     32  C   UNL     1      14.816  -3.967   7.880  0.00  0.00    +0.466 C 
ATOM     33  O   UNL     1      14.373  -5.218   8.440  0.00  0.00    -0.453 OA
ENDBRANCH  23  25
ENDBRANCH  20  21
ENDBRANCH  19  20
ENDBRANCH   5  19
TORSDOF 7
