REMARK  Name = ZINC35564799
REMARK  6 active torsions:
REMARK  status: ('A' for Active; 'I' for Inactive)
REMARK    1  A    between atoms: C_5  and  N_7
REMARK    2  A    between atoms: N_10  and  C_13
REMARK    3  A    between atoms: C_13  and  C_14
REMARK    4  A    between atoms: N_25  and  C_28
REMARK    5  A    between atoms: C_28  and  C_29
REMARK    6  A    between atoms: C_32  and  N_35
REMARK                            x       y       z     vdW  Elec       q    Type
REMARK                         _______ _______ _______ _____ _____    ______ ____
ROOT
ATOM      1  C   UNL     1       3.127  -6.830  -1.139  0.00  0.00    +0.034 A 
ATOM      2  C   UNL     1       3.942  -6.740  -2.229  0.00  0.00    +0.091 A 
ATOM      3  C   UNL     1       3.587  -7.429  -3.402  0.00  0.00    +0.253 A 
ATOM      4  O   UNL     1       4.294  -7.371  -4.395  0.00  0.00    -0.268 OA
ATOM      5  N   UNL     1       2.450  -8.158  -3.408  0.00  0.00    -0.295 N 
ATOM      6  H   UNL     1       2.186  -8.641  -4.206  0.00  0.00    +0.172 HD
ATOM      7  C   UNL     1       1.676  -8.211  -2.291  0.00  0.00    +0.198 A 
ATOM      8  N   UNL     1       2.018  -7.566  -1.193  0.00  0.00    -0.223 NA
ATOM      9  N   UNL     1       0.525  -8.951  -2.304  0.00  0.00    -0.305 N 
ATOM     10  C   UNL     1      -0.399  -8.935  -1.159  0.00  0.00    +0.089 C 
ATOM     11  C   UNL     1      -0.714 -10.383  -0.769  0.00  0.00    -0.059 C 
ATOM     12  N   UNL     1      -1.217 -11.106  -1.944  0.00  0.00    +0.384 N 
ATOM     13  C   UNL     1      -0.167 -11.193  -2.966  0.00  0.00    -0.059 C 
ATOM     14  C   UNL     1       0.173  -9.780  -3.467  0.00  0.00    +0.089 C 
ATOM     15  H   UNL     1      -2.014 -10.617  -2.323  0.00  0.00    -0.081 HD
ENDROOT
BRANCH   1  16
ATOM     16  C   UNL     1       3.485  -6.102   0.131  0.00  0.00    -0.022 C 
BRANCH  16  20
ATOM     17  N   UNL     1       1.501  -2.506   0.929  0.00  0.00    -0.332 N 
ATOM     18  C   UNL     1       1.640  -3.454   2.045  0.00  0.00    +0.086 C 
ATOM     19  C   UNL     1       2.757  -4.445   1.704  0.00  0.00    -0.059 C 
ATOM     20  N   UNL     1       2.473  -5.073   0.407  0.00  0.00    +0.385 N 
ATOM     21  C   UNL     1       2.505  -4.061  -0.656  0.00  0.00    -0.059 C 
ATOM     22  C   UNL     1       1.369  -3.050  -0.431  0.00  0.00    +0.086 C 
ATOM     23  H   UNL     1       1.560  -5.501   0.434  0.00  0.00    -0.081 HD
BRANCH  17  28
ATOM     24  C   UNL     1       0.276   0.891   1.618  0.00  0.00    +0.002 A 
ATOM     25  C   UNL     1       1.461   1.605   1.603  0.00  0.00    +0.002 A 
ATOM     26  C   UNL     1       2.659   0.957   1.364  0.00  0.00    +0.022 A 
ATOM     27  C   UNL     1       2.676  -0.407   1.140  0.00  0.00    +0.062 A 
ATOM     28  C   UNL     1       1.487  -1.127   1.156  0.00  0.00    +0.048 A 
ATOM     29  C   UNL     1       0.286  -0.472   1.395  0.00  0.00    +0.024 A 
ATOM     30 CL   UNL     1       4.181  -1.219   0.840  0.00  0.00    -0.082 Cl
ENDBRANCH  17  28
ENDBRANCH  16  20
ENDBRANCH   1  16
BRANCH  12  31
ATOM     31  C   UNL     1      -1.623 -12.461  -1.545  0.00  0.00    -0.043 C 
BRANCH  31  32
ATOM     32  C   UNL     1      -2.252 -13.163  -2.721  0.00  0.00    -0.064 A 
ATOM     33  C   UNL     1      -3.614 -13.063  -2.937  0.00  0.00    +0.004 A 
ATOM     34  C   UNL     1      -4.192 -13.707  -4.015  0.00  0.00    +0.033 A 
ATOM     35  C   UNL     1      -3.408 -14.450  -4.878  0.00  0.00    +0.126 A 
ATOM     36  C   UNL     1      -2.046 -14.550  -4.662  0.00  0.00    +0.033 A 
ATOM     37  C   UNL     1      -1.468 -13.902  -3.586  0.00  0.00    +0.004 A 
BRANCH  35  38
ATOM     38  N   UNL     1      -4.027 -15.141  -6.031  0.00  0.00    +0.056 N 
ATOM     39  O   UNL     1      -5.218 -15.055  -6.220  0.00  0.00    -0.126 OA
ATOM     40  O   UNL     1      -3.341 -15.791  -6.785  0.00  0.00    -0.126 OA
ENDBRANCH  35  38
ENDBRANCH  31  32
ENDBRANCH  12  31
TORSDOF 6
