REMARK  Name = ZINC22673205
REMARK  12 active torsions:
REMARK  status: ('A' for Active; 'I' for Inactive)
REMARK    1  A    between atoms: C_1  and  C_2
REMARK    2  A    between atoms: C_2  and  C_3
REMARK    3  A    between atoms: C_3  and  C_5
REMARK    4  A    between atoms: C_3  and  C_6
REMARK    5  A    between atoms: C_11  and  N_12
REMARK    6  A    between atoms: C_13  and  C_15
REMARK    7  A    between atoms: C_15  and  C_17
REMARK    8  A    between atoms: C_15  and  S_18
REMARK    9  A    between atoms: S_18  and  C_19
REMARK   10  A    between atoms: C_22  and  C_30
REMARK   11  A    between atoms: N_23  and  C_24
REMARK   12  A    between atoms: C_30  and  N_31
REMARK                            x       y       z     vdW  Elec       q    Type
REMARK                         _______ _______ _______ _____ _____    ______ ____
ROOT
ATOM      1  C   UNL     1      -0.002   0.011  -0.029  0.00  0.00    +0.197 A 
ATOM      2  N   UNL     1      -0.024   1.324  -0.028  0.00  0.00    -0.122 NA
ATOM      3  N   UNL     1       1.177   1.782  -0.047  0.00  0.00    -0.135 NA
ATOM      4  C   UNL     1       2.032   0.799  -0.060  0.00  0.00    +0.122 A 
ATOM      5  N   UNL     1       1.313  -0.366  -0.049  0.00  0.00    -0.276 N 
ENDROOT
BRANCH   5   6
ATOM      6  C   UNL     1       1.819  -1.675  -0.057  0.00  0.00    +0.050 A 
ATOM      7  C   UNL     1       2.565  -2.138   1.018  0.00  0.00    +0.026 A 
ATOM      8  C   UNL     1       3.058  -3.428   1.010  0.00  0.00    +0.002 A 
ATOM      9  C   UNL     1       2.817  -4.255  -0.073  0.00  0.00    +0.000 A 
ATOM     10  C   UNL     1       2.079  -3.794  -1.147  0.00  0.00    +0.002 A 
ATOM     11  C   UNL     1       1.579  -2.506  -1.142  0.00  0.00    +0.026 A 
ENDBRANCH   5   6
BRANCH   1  12
ATOM     12  S   UNL     1      -1.400  -1.061  -0.008  0.00  0.00    -0.073 S 
BRANCH  12  13
ATOM     13  C   UNL     1      -2.734   0.163   0.013  0.00  0.00    +0.137 C 
ATOM     14  C   UNL     1      -2.717   0.957  -1.294  0.00  0.00    +0.029 C 
BRANCH  13  16
ATOM     15  N   UNL     1      -5.138   0.138   0.595  0.00  0.00    -0.284 N 
ATOM     16  C   UNL     1      -4.059  -0.541   0.157  0.00  0.00    +0.230 C 
ATOM     17  O   UNL     1      -4.154  -1.717  -0.121  0.00  0.00    -0.274 OA
ATOM     18  H   UNL     1      -5.033   1.179   0.933  0.00  0.00    +0.155 HD
BRANCH  15  24
ATOM     19  C   UNL     1      -7.368  -0.044   1.504  0.00  0.00    -0.023 A 
ATOM     20  C   UNL     1      -8.606  -0.655   1.522  0.00  0.00    +0.006 A 
ATOM     21  C   UNL     1      -8.871  -1.710   0.668  0.00  0.00    +0.000 A 
ATOM     22  C   UNL     1      -7.899  -2.152  -0.211  0.00  0.00    +0.002 A 
ATOM     23  C   UNL     1      -6.661  -1.542  -0.237  0.00  0.00    +0.023 A 
ATOM     24  C   UNL     1      -6.392  -0.483   0.620  0.00  0.00    +0.037 A 
BRANCH  19  25
ATOM     25  C   UNL     1      -7.078   1.101   2.440  0.00  0.00    +0.017 C 
ATOM     26  C   UNL     1      -7.108   0.598   3.885  0.00  0.00    +0.012 C 
BRANCH  25  28
ATOM     27  C   UNL     1      -7.773   3.404   3.115  0.00  0.00    +0.004 C 
ATOM     28  C   UNL     1      -8.136   2.190   2.257  0.00  0.00    +0.004 C 
ENDBRANCH  25  28
ENDBRANCH  19  25
ENDBRANCH  15  24
ENDBRANCH  13  16
ENDBRANCH  12  13
ENDBRANCH   1  12
BRANCH   4  29
ATOM     29  C   UNL     1       3.534   0.922  -0.083  0.00  0.00    -0.001 C 
BRANCH  29  30
ATOM     30  N   UNL     1       4.001   0.962  -1.475  0.00  0.00    +0.384 N 
ATOM     31  C   UNL     1       3.739  -0.313  -2.155  0.00  0.00    -0.078 C 
ATOM     32  C   UNL     1       4.104  -0.188  -3.636  0.00  0.00    -0.019 C 
ATOM     33  C   UNL     1       5.583   0.185  -3.762  0.00  0.00    -0.004 C 
ATOM     34  C   UNL     1       5.839   1.492  -3.006  0.00  0.00    -0.019 C 
ATOM     35  C   UNL     1       5.424   1.317  -1.543  0.00  0.00    -0.078 C 
ATOM     36  H   UNL     1       3.435   1.744  -2.001  0.00  0.00    -0.081 HD
ENDBRANCH  29  30
ENDBRANCH   4  29
TORSDOF 9
