REMARK  Name = ZINC11882282
REMARK  12 active torsions:
REMARK  status: ('A' for Active; 'I' for Inactive)
REMARK    1  A    between atoms: C_1  and  C_2
REMARK    2  A    between atoms: C_2  and  C_4
REMARK    3  A    between atoms: C_8  and  C_11
REMARK    4  A    between atoms: C_11  and  N_74
REMARK    5  A    between atoms: C_14  and  C_17
REMARK    6  A    between atoms: C_17  and  C_35
REMARK    7  A    between atoms: N_20  and  C_24
REMARK    8  A    between atoms: C_24  and  C_25
REMARK    9  A    between atoms: C_29  and  O_33
REMARK   10  A    between atoms: C_30  and  O_31
REMARK   11  A    between atoms: O_31  and  C_32
REMARK   12  A    between atoms: O_33  and  C_34
REMARK                            x       y       z     vdW  Elec       q    Type
REMARK                         _______ _______ _______ _____ _____    ______ ____
ROOT
ATOM      1  C   UNL     1      -3.157   5.251  -3.351  0.00  0.00    +0.112 C 
ATOM      2  C   UNL     1      -2.514   5.315  -1.980  0.00  0.00    +0.247 C 
ATOM      3  O   UNL     1      -1.774   6.178  -1.558  0.00  0.00    -0.273 OA
ATOM      4  N   UNL     1      -2.933   4.212  -1.329  0.00  0.00    -0.220 N 
ATOM      5  C   UNL     1      -3.749   3.471  -2.088  0.00  0.00    +0.310 C 
ATOM      6  O   UNL     1      -4.258   2.432  -1.718  0.00  0.00    -0.252 OA
ATOM      7  N   UNL     1      -3.944   4.007  -3.307  0.00  0.00    -0.285 N 
ATOM      8  C   UNL     1      -4.072   6.458  -3.569  0.00  0.00    +0.042 C 
ATOM      9  H   UNL     1      -4.495   3.644  -4.018  0.00  0.00    +0.151 HD
ENDROOT
BRANCH   1  12
ATOM     10  C   UNL     1      -1.702   5.118  -6.913  0.00  0.00    -0.078 C 
ATOM     11  C   UNL     1      -2.772   5.132  -5.819  0.00  0.00    -0.013 C 
ATOM     12  C   UNL     1      -2.092   5.176  -4.447  0.00  0.00    +0.018 C 
ATOM     13  C   UNL     1      -1.193   6.413  -4.372  0.00  0.00    -0.013 C 
ATOM     14  C   UNL     1      -0.169   6.363  -5.508  0.00  0.00    -0.078 C 
ATOM     15  N   UNL     1      -0.886   6.346  -6.801  0.00  0.00    +0.382 N 
ATOM     16  H   UNL     1      -1.506   7.163  -6.848  0.00  0.00    -0.081 HD
BRANCH  15  17
ATOM     17  C   UNL     1       0.082   6.413  -7.916  0.00  0.00    -0.048 C 
BRANCH  17  21
ATOM     18  C   UNL     1       2.739   9.593  -6.774  0.00  0.00    +0.018 C 
ATOM     19  C   UNL     1       1.940   9.802  -8.067  0.00  0.00    +0.012 C 
ATOM     20  C   UNL     1       0.695   8.914  -8.017  0.00  0.00    +0.029 C 
ATOM     21  C   UNL     1       1.076   7.512  -7.642  0.00  0.00    -0.090 C 
ATOM     22  C   UNL     1       2.202   7.188  -7.093  0.00  0.00    -0.029 C 
ATOM     23  C   UNL     1       3.294   8.167  -6.774  0.00  0.00    +0.035 C 
BRANCH  18  25
ATOM     24  C   UNL     1       4.928  10.582  -7.794  0.00  0.00    +0.039 C 
ATOM     25  C   UNL     1       3.876  10.580  -6.716  0.00  0.00    -0.076 C 
ATOM     26  C   UNL     1       3.949  11.436  -5.727  0.00  0.00    +0.007 C 
ENDBRANCH  18  25
ENDBRANCH  17  21
ENDBRANCH  15  17
ENDBRANCH   1  12
BRANCH   4  27
ATOM     27  C   UNL     1      -2.547   3.869   0.042  0.00  0.00    +0.157 C 
BRANCH  27  28
ATOM     28  C   UNL     1      -1.243   3.115   0.023  0.00  0.00    +0.016 A 
ATOM     29  C   UNL     1      -0.061   3.770   0.317  0.00  0.00    +0.009 A 
ATOM     30  C   UNL     1       1.138   3.083   0.295  0.00  0.00    +0.004 A 
ATOM     31  C   UNL     1       1.159   1.734  -0.010  0.00  0.00    +0.049 A 
ATOM     32  C   UNL     1      -0.021   1.070  -0.300  0.00  0.00    +0.162 A 
ATOM     33  C   UNL     1      -1.228   1.764  -0.283  0.00  0.00    +0.166 A 
BRANCH  33  34
ATOM     34  O   UNL     1      -2.390   1.117  -0.568  0.00  0.00    -0.491 OA
ATOM     35  C   UNL     1      -3.030   0.429   0.509  0.00  0.00    +0.277 C 
ENDBRANCH  33  34
BRANCH  32  36
ATOM     36  O   UNL     1      -0.001  -0.256  -0.600  0.00  0.00    -0.491 OA
ATOM     37  C   UNL     1       1.273  -0.902  -0.599  0.00  0.00    +0.277 C 
ENDBRANCH  32  36
ENDBRANCH  27  28
ENDBRANCH   4  27
TORSDOF 8
