REMARK  Name = ZINC36597127
REMARK  13 active torsions:
REMARK  status: ('A' for Active; 'I' for Inactive)
REMARK    1  A    between atoms: C_1  and  C_2
REMARK    2  A    between atoms: C_5  and  C_7
REMARK    3  A    between atoms: C_7  and  N_8
REMARK    4  A    between atoms: N_8  and  C_9
REMARK    5  A    between atoms: C_9  and  C_11
REMARK    6  A    between atoms: C_9  and  C_18
REMARK    7  A    between atoms: C_15  and  O_17
REMARK    8  A    between atoms: N_20  and  C_21
REMARK    9  A    between atoms: C_21  and  C_22
REMARK   10  A    between atoms: C_21  and  C_23
REMARK   11  A    between atoms: C_21  and  C_24
REMARK   12  A    between atoms: C_25  and  C_27
REMARK   13  A    between atoms: C_30  and  O_33
REMARK                            x       y       z     vdW  Elec       q    Type
REMARK                         _______ _______ _______ _____ _____    ______ ____
ROOT
ATOM      1  N   UNL     1       1.076  -2.598  -1.896  0.00  0.00    -0.275 N 
ATOM      2  C   UNL     1       0.409  -3.693  -1.481  0.00  0.00    +0.248 C 
ATOM      3  O   UNL     1      -0.192  -3.674  -0.424  0.00  0.00    -0.270 OA
ENDROOT
BRANCH   2   4
ATOM      4  C   UNL     1       0.408  -4.914  -2.309  0.00  0.00    +0.037 A 
ATOM      5  C   UNL     1       1.615  -5.462  -2.751  0.00  0.00    +0.016 A 
ATOM      6  C   UNL     1       1.610  -6.602  -3.523  0.00  0.00    +0.046 A 
ATOM      7  C   UNL     1       0.406  -7.208  -3.864  0.00  0.00    +0.117 A 
ATOM      8  C   UNL     1      -0.796  -6.666  -3.427  0.00  0.00    +0.046 A 
ATOM      9  C   UNL     1      -0.800  -5.529  -2.650  0.00  0.00    +0.016 A 
BRANCH   7  10
ATOM     10  O   UNL     1       0.406  -8.331  -4.626  0.00  0.00    -0.507 OA
ATOM     11  H   UNL     1       0.448  -9.152  -4.117  0.00  0.00    +0.292 HD
ENDBRANCH   7  10
ENDBRANCH   2   4
BRANCH   1  12
ATOM     12  C   UNL     1       0.982  -1.350  -1.133  0.00  0.00    +0.183 C 
BRANCH  12  17
ATOM     13  C   UNL     1      -3.466   0.714  -2.311  0.00  0.00    +0.086 C 
ATOM     14  C   UNL     1      -2.395  -0.027  -1.554  0.00  0.00    +0.102 A 
ATOM     15  C   UNL     1      -2.539  -0.601  -0.346  0.00  0.00    +0.045 A 
ATOM     16  C   UNL     1      -1.292  -1.180  -0.016  0.00  0.00    +0.046 A 
ATOM     17  C   UNL     1      -0.460  -0.925  -1.042  0.00  0.00    +0.122 A 
ATOM     18  O   UNL     1      -1.135  -0.231  -1.973  0.00  0.00    -0.463 OA
ENDBRANCH  12  17
ENDBRANCH   1  12
BRANCH   1  19
ATOM     19  C   UNL     1       1.895  -2.655  -3.109  0.00  0.00    +0.193 C 
BRANCH  19  20
ATOM     20  C   UNL     1       3.327  -2.334  -2.764  0.00  0.00    -0.015 A 
ATOM     21  C   UNL     1       3.726  -2.291  -1.441  0.00  0.00    +0.006 A 
ATOM     22  C   UNL     1       5.038  -1.997  -1.121  0.00  0.00    +0.004 A 
ATOM     23  C   UNL     1       5.955  -1.745  -2.124  0.00  0.00    +0.045 A 
ATOM     24  C   UNL     1       5.557  -1.788  -3.452  0.00  0.00    +0.117 A 
ATOM     25  C   UNL     1       4.241  -2.089  -3.770  0.00  0.00    +0.051 A 
BRANCH  24  26
ATOM     26  O   UNL     1       6.457  -1.540  -4.440  0.00  0.00    -0.507 OA
ATOM     27  H   UNL     1       6.918  -2.328  -4.758  0.00  0.00    +0.292 HD
ENDBRANCH  24  26
ENDBRANCH  19  20
BRANCH  19  28
ATOM     28  C   UNL     1       1.383  -1.651  -4.109  0.00  0.00    +0.239 C 
ATOM     29  O   UNL     1       0.732  -0.699  -3.734  0.00  0.00    -0.273 OA
ATOM     30  N   UNL     1       1.647  -1.811  -5.421  0.00  0.00    -0.309 N 
ATOM     31  H   UNL     1       2.168  -2.572  -5.721  0.00  0.00    +0.149 HD
BRANCH  30  32
ATOM     32  C   UNL     1       1.149  -0.835  -6.393  0.00  0.00    +0.026 C 
ATOM     33  C   UNL     1       1.719   0.547  -6.067  0.00  0.00    +0.031 C 
ATOM     34  C   UNL     1       1.586  -1.248  -7.800  0.00  0.00    +0.031 C 
ATOM     35  C   UNL     1      -0.379  -0.785  -6.328  0.00  0.00    +0.031 C 
ENDBRANCH  30  32
ENDBRANCH  19  28
ENDBRANCH   1  19
TORSDOF 9
