REMARK  Name = ZINC15119699
REMARK  2 active torsions:
REMARK  status: ('A' for Active; 'I' for Inactive)
REMARK    1  A    between atoms: C_1  and  C_2
REMARK    2  A    between atoms: C_10  and  C_13
REMARK                            x       y       z     vdW  Elec       q    Type
REMARK                         _______ _______ _______ _____ _____    ______ ____
ROOT
ATOM      1  C   UNL     1       2.926   3.428  -0.788  0.00  0.00    +0.038 C 
ATOM      2  C   UNL     1       1.498   3.097  -0.313  0.00  0.00    +0.121 C 
ATOM      3  C   UNL     1       1.424   1.605  -0.003  0.00  0.00    +0.063 C 
ATOM      4  C   UNL     1      -0.013   1.096   0.008  0.00  0.00    +0.124 C 
ATOM      5  C   UNL     1      -0.756   1.566   1.254  0.00  0.00    +0.032 C 
ATOM      6  C   UNL     1      -0.983   3.073   1.238  0.00  0.00    +0.008 C 
ATOM      7  C   UNL     1      -1.521   3.551  -0.104  0.00  0.00    +0.065 C 
ATOM      8  C   UNL     1      -0.737   2.966  -1.275  0.00  0.00    +0.168 C 
ATOM      9  O   UNL     1       0.583   3.483  -1.325  0.00  0.00    -0.346 OA
ATOM     10  O   UNL     1      -0.698   1.541  -1.163  0.00  0.00    -0.346 OA
ATOM     11  C   UNL     1      -1.462   3.327  -2.582  0.00  0.00    +0.074 C 
ENDROOT
TORSDOF 0
