REMARK  Name = ZINC13065204
REMARK  11 active torsions:
REMARK  status: ('A' for Active; 'I' for Inactive)
REMARK    1  A    between atoms: C_1  and  C_2
REMARK    2  A    between atoms: C_2  and  C_3
REMARK    3  A    between atoms: C_3  and  C_5
REMARK    4  A    between atoms: C_3  and  N_75
REMARK    5  A    between atoms: N_9  and  C_10
REMARK    6  A    between atoms: C_16  and  C_17
REMARK    7  A    between atoms: C_16  and  N_75
REMARK    8  A    between atoms: C_26  and  C_27
REMARK    9  A    between atoms: C_26  and  N_75
REMARK   10  A    between atoms: C_30  and  C_40
REMARK   11  A    between atoms: C_33  and  C_39
REMARK                            x       y       z     vdW  Elec       q    Type
REMARK                         _______ _______ _______ _____ _____    ______ ____
ROOT
ATOM      1  N   UNL     1      -0.899   1.534  -1.190  0.00  0.00    +0.392 N 
ATOM      2  H   UNL     1      -1.858   1.168  -1.158  0.00  0.00    -0.080 HD
ENDROOT
BRANCH   1   3
ATOM      3  C   UNL     1      -0.221   1.000  -2.390  0.00  0.00    +0.003 C 
BRANCH   3   4
ATOM      4  C   UNL     1       1.258   1.283  -2.330  0.00  0.00    +0.138 A 
ATOM      5  N   UNL     1       2.059   1.053  -1.318  0.00  0.00    -0.115 NA
ATOM      6  N   UNL     1       3.244   1.427  -1.655  0.00  0.00    -0.023 NA
ATOM      7  N   UNL     1       3.220   1.897  -2.854  0.00  0.00    -0.044 NA
ATOM      8  N   UNL     1       2.013   1.825  -3.304  0.00  0.00    -0.228 N 
BRANCH   8   9
ATOM      9  C   UNL     1       1.551   2.253  -4.626  0.00  0.00    +0.111 C 
ATOM     10  C   UNL     1       2.297   1.468  -5.707  0.00  0.00    +0.027 C 
ATOM     11  C   UNL     1       1.814   1.915  -7.088  0.00  0.00    +0.002 C 
ATOM     12  C   UNL     1       2.087   3.410  -7.264  0.00  0.00    +0.000 C 
ATOM     13  C   UNL     1       1.341   4.196  -6.184  0.00  0.00    +0.002 C 
ATOM     14  C   UNL     1       1.823   3.749  -4.803  0.00  0.00    +0.027 C 
ENDBRANCH   8   9
ENDBRANCH   3   4
BRANCH   3  16
ATOM     15  C   UNL     1      -1.939  -0.793  -2.660  0.00  0.00    +0.002 C 
ATOM     16  C   UNL     1      -0.450  -0.511  -2.453  0.00  0.00    -0.011 C 
ENDBRANCH   3  16
ENDBRANCH   1   3
BRANCH   1  17
ATOM     17  C   UNL     1      -0.950   3.010  -1.253  0.00  0.00    -0.041 C 
BRANCH  17  18
ATOM     18  C   UNL     1      -1.953   3.416  -2.302  0.00  0.00    -0.060 A 
ATOM     19  C   UNL     1      -1.526   3.748  -3.574  0.00  0.00    +0.005 A 
ATOM     20  C   UNL     1      -2.443   4.115  -4.540  0.00  0.00    +0.050 A 
ATOM     21  C   UNL     1      -3.793   4.163  -4.233  0.00  0.00    +0.166 A 
ATOM     22  C   UNL     1      -4.223   3.833  -2.950  0.00  0.00    +0.166 A 
ATOM     23  C   UNL     1      -3.299   3.460  -1.988  0.00  0.00    +0.051 A 
ATOM     24  O   UNL     1      -5.582   3.956  -2.901  0.00  0.00    -0.453 OA
ATOM     25  C   UNL     1      -5.937   4.756  -4.044  0.00  0.00    +0.466 C 
ATOM     26  O   UNL     1      -4.882   4.492  -4.987  0.00  0.00    -0.453 OA
ENDBRANCH  17  18
ENDBRANCH   1  17
BRANCH   1  27
ATOM     27  C   UNL     1      -0.180   1.105   0.029  0.00  0.00    -0.036 C 
BRANCH  27  28
ATOM     28  C   UNL     1      -1.116   1.219   1.205  0.00  0.00    +0.001 A 
ATOM     29  C   UNL     1      -1.833   0.140   1.605  0.00  0.00    +0.017 A 
ATOM     30  C   UNL     1      -2.729   0.282   2.754  0.00  0.00    +0.002 A 
ATOM     31  C   UNL     1      -3.490  -0.797   3.216  0.00  0.00    -0.041 A 
ATOM     32  C   UNL     1      -4.320  -0.630   4.288  0.00  0.00    +0.004 A 
ATOM     33  C   UNL     1      -4.414   0.601   4.924  0.00  0.00    +0.005 A 
ATOM     34  C   UNL     1      -3.675   1.677   4.485  0.00  0.00    -0.026 A 
ATOM     35  C   UNL     1      -2.822   1.532   3.395  0.00  0.00    +0.052 A 
ATOM     36  N   UNL     1      -2.070   2.591   2.937  0.00  0.00    -0.322 N 
ATOM     37  H   UNL     1      -2.135   3.452   3.380  0.00  0.00    +0.169 HD
ATOM     38  C   UNL     1      -1.246   2.450   1.883  0.00  0.00    +0.251 A 
ATOM     39  O   UNL     1      -0.596   3.409   1.504  0.00  0.00    -0.268 OA
ATOM     40  C   UNL     1      -3.787   3.008   5.185  0.00  0.00    +0.046 C 
ATOM     41  C   UNL     1      -3.394  -2.137   2.534  0.00  0.00    +0.044 C 
ENDBRANCH  27  28
ENDBRANCH   1  27
TORSDOF 8
