REMARK  Name = ZINC51095275
REMARK  6 active torsions:
REMARK  status: ('A' for Active; 'I' for Inactive)
REMARK    1  A    between atoms: C_1  and  C_2
REMARK    2  A    between atoms: C_2  and  C_4
REMARK    3  A    between atoms: C_2  and  N_10
REMARK    4  A    between atoms: C_11  and  C_13
REMARK    5  A    between atoms: C_15  and  N_20
REMARK    6  A    between atoms: N_20  and  N_21
REMARK                            x       y       z     vdW  Elec       q    Type
REMARK                         _______ _______ _______ _____ _____    ______ ____
ROOT
ATOM      1  N   UNL     1      -1.372  -0.511   0.012  0.00  0.00    -0.304 N 
ATOM      2  C   UNL     1      -2.029  -0.655   1.181  0.00  0.00    +0.245 C 
ATOM      3  O   UNL     1      -1.480  -0.364   2.225  0.00  0.00    -0.270 OA
ATOM      4  H   UNL     1      -1.810  -0.743  -0.822  0.00  0.00    +0.150 HD
ENDROOT
BRANCH   2   5
ATOM      5  C   UNL     1      -3.419  -1.168   1.191  0.00  0.00    +0.043 A 
ATOM      6  C   UNL     1      -4.117  -1.319   2.390  0.00  0.00    +0.057 A 
ATOM      7  C   UNL     1      -5.420  -1.803   2.354  0.00  0.00    +0.134 A 
ATOM      8  N   UNL     1      -5.993  -2.118   1.203  0.00  0.00    -0.220 NA
ATOM      9  C   UNL     1      -5.362  -1.988   0.051  0.00  0.00    +0.132 A 
ATOM     10  C   UNL     1      -4.067  -1.508  -0.001  0.00  0.00    +0.053 A 
ATOM     11 CL   UNL     1      -6.174  -2.419  -1.422  0.00  0.00    -0.062 Cl
BRANCH   7  12
ATOM     12  N   UNL     1      -6.129  -1.959   3.539  0.00  0.00    -0.267 N 
ATOM     13  H   UNL     1      -5.714  -1.731   4.386  0.00  0.00    +0.167 HD
BRANCH  12  14
ATOM     14  N   UNL     1      -7.409  -2.435   3.513  0.00  0.00    -0.255 NA
ATOM     15  H   UNL     1      -7.793  -2.493   4.444  0.00  0.00    +0.140 HD
ATOM     16  H   UNL     1      -7.993  -1.867   2.916  0.00  0.00    +0.140 HD
ENDBRANCH  12  14
ENDBRANCH   7  12
ENDBRANCH   2   5
BRANCH   1  18
ATOM     17  C   UNL     1      -0.019   1.526   0.010  0.00  0.00    +0.033 C 
ATOM     18  C   UNL     1       0.002  -0.004   0.002  0.00  0.00    +0.107 C 
BRANCH  18  19
ATOM     19  C   UNL     1       0.707  -0.490  -1.238  0.00  0.00    +0.011 A 
ATOM     20  C   UNL     1       1.980  -0.934  -1.377  0.00  0.00    +0.014 A 
ATOM     21  C   UNL     1       2.418  -1.335  -2.626  0.00  0.00    +0.028 A 
ATOM     22  C   UNL     1       1.560  -1.271  -3.674  0.00  0.00    +0.078 A 
ATOM     23  S   UNL     1       0.081  -0.638  -2.903  0.00  0.00    -0.080 S 
ATOM     24 CL   UNL     1       1.830  -1.701  -5.335  0.00  0.00    -0.076 Cl
ENDBRANCH  18  19
ENDBRANCH   1  18
TORSDOF 5
