REMARK  Name = ZINC20720251
REMARK  1 active torsions:
REMARK  status: ('A' for Active; 'I' for Inactive)
REMARK    1  A    between atoms: C_5  and  C_6
REMARK                            x       y       z     vdW  Elec       q    Type
REMARK                         _______ _______ _______ _____ _____    ______ ____
ROOT
ATOM      1  C   UNL     1      -1.286  -0.786   0.011  0.00  0.00    +0.063 C 
ATOM      2  C   UNL     1      -1.359  -1.674  -1.235  0.00  0.00    +0.109 C 
ATOM      3  C   UNL     1      -0.463  -2.871  -1.122  0.00  0.00    +0.219 C 
ATOM      4  O   UNL     1       0.124  -3.252  -2.112  0.00  0.00    -0.275 OA
ATOM      5  N   UNL     1      -0.281  -3.543   0.035  0.00  0.00    -0.269 N 
ATOM      6  C   UNL     1      -0.842  -3.001   1.202  0.00  0.00    +0.150 A 
ATOM      7  C   UNL     1      -1.333  -1.673   1.228  0.00  0.00    +0.020 A 
ATOM      8  C   UNL     1      -1.800  -1.428   2.460  0.00  0.00    +0.111 A 
ATOM      9  N   UNL     1      -1.621  -2.548   3.199  0.00  0.00    -0.283 N 
ATOM     10  H   UNL     1      -1.867  -2.661   4.131  0.00  0.00    +0.188 HD
ATOM     11  N   UNL     1      -1.017  -3.520   2.380  0.00  0.00    -0.158 NA
ATOM     12  H   UNL     1       0.220  -4.373   0.059  0.00  0.00    +0.156 HD
ENDROOT
BRANCH   1  17
ATOM     13  C   UNL     1      -0.017   1.378   0.010  0.00  0.00    +0.012 A 
ATOM     14  C   UNL     1       1.160   2.051   0.002  0.00  0.00    +0.045 A 
ATOM     15  S   UNL     1       2.348   0.719  -0.017  0.00  0.00    -0.105 S 
ATOM     16  C   UNL     1       1.196  -0.645  -0.013  0.00  0.00    +0.049 A 
ATOM     17  C   UNL     1       0.002  -0.004   0.002  0.00  0.00    -0.032 A 
ENDBRANCH   1  17
TORSDOF 1
