REMARK  Name = ZINC13499472
REMARK  12 active torsions:
REMARK  status: ('A' for Active; 'I' for Inactive)
REMARK    1  A    between atoms: C_1  and  C_2
REMARK    2  A    between atoms: C_2  and  C_3
REMARK    3  A    between atoms: C_3  and  C_4
REMARK    4  A    between atoms: C_4  and  C_6
REMARK    5  A    between atoms: C_4  and  N_17
REMARK    6  A    between atoms: N_10  and  C_11
REMARK    7  A    between atoms: N_17  and  C_18
REMARK    8  A    between atoms: N_17  and  C_25
REMARK    9  A    between atoms: C_18  and  C_19
REMARK   10  A    between atoms: C_25  and  C_26
REMARK   11  A    between atoms: C_30  and  C_39
REMARK   12  A    between atoms: C_31  and  C_38
REMARK                            x       y       z     vdW  Elec       q    Type
REMARK                         _______ _______ _______ _____ _____    ______ ____
ROOT
ATOM      1  N   UNL     1       1.619  -3.271  -0.948  0.00  0.00    -0.284 NA
ENDROOT
BRANCH   1   2
ATOM      2  C   UNL     1       0.601  -2.890  -1.937  0.00  0.00    +0.127 C 
BRANCH   2   3
ATOM      3  C   UNL     1      -0.663  -3.669  -1.681  0.00  0.00    +0.169 A 
ATOM      4  N   UNL     1      -0.748  -4.910  -1.267  0.00  0.00    -0.112 NA
ATOM      5  N   UNL     1      -1.996  -5.213  -1.169  0.00  0.00    -0.023 NA
ATOM      6  N   UNL     1      -2.711  -4.197  -1.511  0.00  0.00    -0.044 NA
ATOM      7  N   UNL     1      -1.925  -3.224  -1.828  0.00  0.00    -0.225 N 
BRANCH   7   8
ATOM      8  C   UNL     1      -2.330  -1.887  -2.268  0.00  0.00    +0.111 C 
ATOM      9  C   UNL     1      -3.332  -1.303  -1.270  0.00  0.00    +0.027 C 
ATOM     10  C   UNL     1      -3.755   0.094  -1.730  0.00  0.00    +0.002 C 
ATOM     11  C   UNL     1      -4.407  -0.000  -3.111  0.00  0.00    +0.000 C 
ATOM     12  C   UNL     1      -3.405  -0.584  -4.109  0.00  0.00    +0.002 C 
ATOM     13  C   UNL     1      -2.982  -1.981  -3.649  0.00  0.00    +0.027 C 
ENDBRANCH   7   8
ENDBRANCH   2   3
BRANCH   2  14
ATOM     14  C   UNL     1       1.116  -3.201  -3.344  0.00  0.00    +0.026 C 
BRANCH  14  16
ATOM     15  C   UNL     1       2.902  -2.695  -5.015  0.00  0.00    +0.004 C 
ATOM     16  C   UNL     1       2.317  -2.306  -3.656  0.00  0.00    -0.001 C 
ENDBRANCH  14  16
ENDBRANCH   2  14
ENDBRANCH   1   2
BRANCH   1  17
ATOM     17  C   UNL     1       1.800  -4.728  -0.913  0.00  0.00    +0.120 C 
BRANCH  17  18
ATOM     18  C   UNL     1       3.101  -5.057  -0.227  0.00  0.00    -0.033 A 
ATOM     19  C   UNL     1       4.283  -5.038  -0.943  0.00  0.00    +0.005 A 
ATOM     20  C   UNL     1       5.477  -5.339  -0.314  0.00  0.00    +0.000 A 
ATOM     21  C   UNL     1       5.488  -5.659   1.031  0.00  0.00    +0.000 A 
ATOM     22  C   UNL     1       4.306  -5.677   1.747  0.00  0.00    +0.000 A 
ATOM     23  C   UNL     1       3.113  -5.372   1.119  0.00  0.00    +0.005 A 
ENDBRANCH  17  18
ENDBRANCH   1  17
BRANCH   1  24
ATOM     24  C   UNL     1       1.281  -2.750   0.383  0.00  0.00    +0.126 C 
BRANCH  24  25
ATOM     25  C   UNL     1       1.592  -1.276   0.440  0.00  0.00    +0.031 A 
ATOM     26  C   UNL     1       0.608  -0.369   0.220  0.00  0.00    +0.020 A 
ATOM     27  C   UNL     1       0.943   1.054   0.283  0.00  0.00    -0.001 A 
ATOM     28  C   UNL     1      -0.029   2.037   0.065  0.00  0.00    +0.013 A 
ATOM     29  C   UNL     1       0.315   3.357   0.131  0.00  0.00    -0.047 A 
ATOM     30  C   UNL     1       1.622   3.733   0.412  0.00  0.00    -0.046 A 
ATOM     31  C   UNL     1       2.596   2.782   0.629  0.00  0.00    +0.030 A 
ATOM     32  C   UNL     1       2.269   1.432   0.568  0.00  0.00    +0.049 A 
ATOM     33  N   UNL     1       3.223   0.460   0.782  0.00  0.00    -0.322 N 
ATOM     34  H   UNL     1       4.136   0.722   0.979  0.00  0.00    +0.169 HD
ATOM     35  C   UNL     1       2.905  -0.845   0.728  0.00  0.00    +0.254 A 
ATOM     36  O   UNL     1       3.773  -1.677   0.927  0.00  0.00    -0.268 OA
ATOM     37  C   UNL     1       1.979   5.195   0.479  0.00  0.00    +0.044 C 
ATOM     38  C   UNL     1      -0.732   4.415  -0.103  0.00  0.00    +0.044 C 
ENDBRANCH  24  25
ENDBRANCH   1  24
TORSDOF 9
