REMARK  Name = ZINC14361472
REMARK  10 active torsions:
REMARK  status: ('A' for Active; 'I' for Inactive)
REMARK    1  A    between atoms: C_1  and  C_2
REMARK    2  A    between atoms: C_2  and  C_3
REMARK    3  A    between atoms: C_3  and  C_4
REMARK    4  A    between atoms: C_3  and  C_5
REMARK    5  A    between atoms: C_3  and  C_6
REMARK    6  A    between atoms: C_10  and  C_33
REMARK    7  A    between atoms: C_20  and  C_21
REMARK    8  A    between atoms: C_24  and  N_30
REMARK    9  A    between atoms: C_25  and  N_27
REMARK   10  A    between atoms: N_30  and  C_31
REMARK                            x       y       z     vdW  Elec       q    Type
REMARK                         _______ _______ _______ _____ _____    ______ ____
ROOT
ATOM      1  C   UNL     1      -7.256   3.031  -0.695  0.00  0.00    +0.003 C 
ATOM      2  C   UNL     1      -6.364   4.169  -0.206  0.00  0.00    +0.042 C 
ATOM      3  C   UNL     1      -4.913   3.780  -0.243  0.00  0.00    -0.009 A 
ATOM      4  C   UNL     1      -3.951   4.782  -0.283  0.00  0.00    +0.077 A 
ATOM      5  C   UNL     1      -2.547   4.373  -0.313  0.00  0.00    +0.013 A 
ATOM      6  C   UNL     1      -1.512   5.312  -0.367  0.00  0.00    +0.011 A 
ATOM      7  C   UNL     1      -0.216   4.887  -0.389  0.00  0.00    +0.001 A 
ATOM      8  C   UNL     1       0.090   3.529  -0.359  0.00  0.00    +0.002 A 
ATOM      9  C   UNL     1      -0.892   2.588  -0.307  0.00  0.00    +0.026 A 
ATOM     10  C   UNL     1      -2.241   2.988  -0.288  0.00  0.00    +0.048 A 
ATOM     11  N   UNL     1      -3.225   2.091  -0.244  0.00  0.00    -0.354 N 
ATOM     12  C   UNL     1      -4.503   2.434  -0.223  0.00  0.00    +0.047 A 
ATOM     13  C   UNL     1      -5.524   1.365  -0.180  0.00  0.00    -0.023 C 
ATOM     14  C   UNL     1      -5.194   0.079  -0.397  0.00  0.00    +0.013 C 
ATOM     15  C   UNL     1      -6.953   1.766   0.118  0.00  0.00    +0.041 C 
ATOM     16  H   UNL     1      -2.990   1.017  -0.224  0.00  0.00    +0.166 HD
ENDROOT
BRANCH  14  17
ATOM     17  C   UNL     1      -6.195  -0.982  -0.201  0.00  0.00    -0.022 A 
ATOM     18  C   UNL     1      -7.168  -0.852   0.796  0.00  0.00    +0.010 A 
ATOM     19  C   UNL     1      -8.102  -1.847   0.976  0.00  0.00    +0.026 A 
ATOM     20  C   UNL     1      -8.081  -2.979   0.168  0.00  0.00    +0.058 A 
ATOM     21  C   UNL     1      -7.116  -3.112  -0.825  0.00  0.00    +0.147 A 
ATOM     22  C   UNL     1      -6.181  -2.119  -1.016  0.00  0.00    +0.042 A 
BRANCH  21  23
ATOM     23  N   UNL     1      -7.097  -4.319  -1.682  0.00  0.00    +0.058 N 
ATOM     24  O   UNL     1      -6.035  -4.811  -2.017  0.00  0.00    -0.126 OA
ATOM     25  O   UNL     1      -8.144  -4.819  -2.051  0.00  0.00    -0.126 OA
ENDBRANCH  21  23
BRANCH  20  26
ATOM     26  N   UNL     1      -9.030  -3.983   0.353  0.00  0.00    -0.345 N 
ATOM     27  C   UNL     1     -10.120  -3.793   1.314  0.00  0.00    +0.125 C 
ATOM     28  H   UNL     1      -8.960  -4.919  -0.221  0.00  0.00    +0.146 HD
ENDBRANCH  20  26
ENDBRANCH  14  17
BRANCH   1  29
ATOM     29  C   UNL     1      -8.725   3.417  -0.510  0.00  0.00    -0.032 C 
ATOM     30  C   UNL     1      -8.999   3.685   0.971  0.00  0.00    +0.011 C 
ATOM     31  C   UNL     1      -9.026   4.679  -1.321  0.00  0.00    +0.011 C 
BRANCH  29  33
ATOM     32  C   UNL     1     -11.086   2.660  -0.811  0.00  0.00    +0.004 C 
ATOM     33  C   UNL     1      -9.618   2.274  -0.996  0.00  0.00    +0.003 C 
ENDBRANCH  29  33
ENDBRANCH   1  29
BRANCH   4  34
ATOM     34  C   UNL     1      -4.334   6.209  -0.313  0.00  0.00    +0.388 C 
ATOM     35  O   UNL     1      -4.521   6.765  -1.376  0.00  0.00    -0.241 OA
ATOM     36  O   UNL     1      -4.474   6.892   0.839  0.00  0.00    -0.241 OA
ENDBRANCH   4  34
TORSDOF 6
