REMARK  Name = ZINC45235736
REMARK  4 active torsions:
REMARK  status: ('A' for Active; 'I' for Inactive)
REMARK    1  A    between atoms: C_4  and  C_7
REMARK    2  A    between atoms: C_10  and  C_27
REMARK    3  A    between atoms: C_13  and  C_15
REMARK    4  A    between atoms: C_15  and  N_16
REMARK                            x       y       z     vdW  Elec       q    Type
REMARK                         _______ _______ _______ _____ _____    ______ ____
ROOT
ATOM      1  C   UNL     1       3.711  -0.707  -0.038  0.00  0.00    +0.137 C 
ATOM      2  C   UNL     1       4.022  -1.230  -1.454  0.00  0.00    +0.087 C 
ATOM      3  C   UNL     1       4.083  -2.731  -1.283  0.00  0.00    +0.069 C 
ATOM      4  N   UNL     1       3.860  -3.033  -0.051  0.00  0.00    -0.181 NA
ATOM      5  N   UNL     1       3.631  -1.931   0.776  0.00  0.00    -0.184 N 
ATOM      6  C   UNL     1       3.377  -1.978   2.099  0.00  0.00    +0.253 C 
ATOM      7  O   UNL     1       3.192  -0.951   2.717  0.00  0.00    -0.272 OA
ENDROOT
BRANCH   3   8
ATOM      8  C   UNL     1       4.354  -3.699  -2.361  0.00  0.00    -0.002 A 
ATOM      9  C   UNL     1       4.588  -3.240  -3.671  0.00  0.00    +0.010 A 
ATOM     10  C   UNL     1       4.840  -4.112  -4.679  0.00  0.00    +0.009 A 
ATOM     11  C   UNL     1       4.871  -5.495  -4.423  0.00  0.00    -0.018 A 
ATOM     12  C   UNL     1       5.130  -6.417  -5.451  0.00  0.00    +0.008 A 
ATOM     13  C   UNL     1       5.154  -7.749  -5.173  0.00  0.00    +0.001 A 
ATOM     14  C   UNL     1       4.925  -8.217  -3.881  0.00  0.00    +0.001 A 
ATOM     15  C   UNL     1       4.670  -7.355  -2.859  0.00  0.00    +0.008 A 
ATOM     16  C   UNL     1       4.638  -5.971  -3.108  0.00  0.00    -0.017 A 
ATOM     17  C   UNL     1       4.384  -5.055  -2.076  0.00  0.00    +0.018 A 
ENDBRANCH   3   8
BRANCH   1  21
ATOM     18  C   UNL     1      -0.017   1.378   0.010  0.00  0.00    +0.000 A 
ATOM     19  C   UNL     1       1.171   2.086   0.002  0.00  0.00    +0.000 A 
ATOM     20  C   UNL     1       2.377   1.411  -0.013  0.00  0.00    +0.005 A 
ATOM     21  C   UNL     1       2.396   0.029  -0.020  0.00  0.00    -0.025 A 
ATOM     22  C   UNL     1       1.208  -0.679  -0.012  0.00  0.00    +0.005 A 
ATOM     23  C   UNL     1       0.002  -0.004   0.002  0.00  0.00    +0.000 A 
ENDBRANCH   1  21
BRANCH   6  24
ATOM     24  C   UNL     1       3.323  -3.306   2.809  0.00  0.00    +0.215 C 
BRANCH  24  25
ATOM     25  N   UNL     1       3.034  -3.089   4.229  0.00  0.00    -0.215 N 
ATOM     26  C   UNL     1       3.978  -2.902   5.176  0.00  0.00    +0.247 C 
ATOM     27  O   UNL     1       5.181  -2.882   5.022  0.00  0.00    -0.273 OA
ATOM     28  C   UNL     1       3.218  -2.723   6.465  0.00  0.00    +0.113 C 
ATOM     29  C   UNL     1       3.512  -1.354   7.093  0.00  0.00    +0.035 C 
ATOM     30  C   UNL     1       3.487  -1.628   8.619  0.00  0.00    +0.003 C 
ATOM     31  C   UNL     1       4.135  -3.032   8.727  0.00  0.00    +0.003 C 
ATOM     32  C   UNL     1       3.604  -3.791   7.491  0.00  0.00    +0.035 C 
ATOM     33  N   UNL     1       1.810  -2.837   6.079  0.00  0.00    -0.285 N 
ATOM     34  C   UNL     1       1.800  -3.046   4.747  0.00  0.00    +0.310 C 
ATOM     35  O   UNL     1       0.786  -3.183   4.092  0.00  0.00    -0.252 OA
ATOM     36  H   UNL     1       1.039  -2.772   6.664  0.00  0.00    +0.151 HD
ENDBRANCH  24  25
ENDBRANCH   6  24
TORSDOF 4
