REMARK  Name = ZINC49600264
REMARK  8 active torsions:
REMARK  status: ('A' for Active; 'I' for Inactive)
REMARK    1  A    between atoms: C_3  and  O_8
REMARK    2  A    between atoms: O_8  and  C_9
REMARK    3  A    between atoms: C_9  and  C_10
REMARK    4  A    between atoms: C_10  and  O_11
REMARK    5  A    between atoms: O_11  and  C_12
REMARK    6  A    between atoms: C_12  and  C_14
REMARK    7  A    between atoms: C_16  and  N_21
REMARK    8  A    between atoms: C_18  and  N_20
REMARK                            x       y       z     vdW  Elec       q    Type
REMARK                         _______ _______ _______ _____ _____    ______ ____
ROOT
ATOM      1  C   UNL     1       6.994   3.912   1.336  0.00  0.00    +0.339 C 
ATOM      2  O   UNL     1       7.819   4.055   0.455  0.00  0.00    -0.245 OA
ENDROOT
BRANCH   1   3
ATOM      3  C   UNL     1       7.092   4.708   2.576  0.00  0.00    +0.062 A 
ATOM      4  C   UNL     1       6.149   4.541   3.591  0.00  0.00    +0.037 A 
ATOM      5  C   UNL     1       6.245   5.290   4.755  0.00  0.00    +0.027 A 
ATOM      6  C   UNL     1       7.277   6.206   4.910  0.00  0.00    +0.045 A 
ATOM      7  C   UNL     1       8.216   6.376   3.902  0.00  0.00    +0.027 A 
ATOM      8  C   UNL     1       8.131   5.626   2.738  0.00  0.00    +0.037 A 
BRANCH   7   9
ATOM      9  N   UNL     1       9.252   7.300   4.062  0.00  0.00    -0.358 N 
ATOM     10  H   UNL     1       9.315   7.822   4.877  0.00  0.00    +0.142 HD
ATOM     11  H   UNL     1       9.909   7.418   3.358  0.00  0.00    +0.142 HD
ENDBRANCH   7   9
BRANCH   5  12
ATOM     12  N   UNL     1       5.301   5.123   5.771  0.00  0.00    -0.358 N 
ATOM     13  H   UNL     1       4.580   4.484   5.663  0.00  0.00    +0.142 HD
ATOM     14  H   UNL     1       5.367   5.647   6.585  0.00  0.00    +0.142 HD
ENDBRANCH   5  12
ENDBRANCH   1   3
BRANCH   1  15
ATOM     15  O   UNL     1       5.991   3.026   1.181  0.00  0.00    -0.458 OA
BRANCH  15  16
ATOM     16  C   UNL     1       5.958   2.291  -0.043  0.00  0.00    +0.273 C 
BRANCH  16  17
ATOM     17  C   UNL     1       4.757   1.343  -0.037  0.00  0.00    +0.270 C 
BRANCH  17  18
ATOM     18  O   UNL     1       3.548   2.105  -0.021  0.00  0.00    -0.489 OA
BRANCH  18  21
ATOM     19  C   UNL     1      -0.017   1.378   0.010  0.00  0.00    +0.005 A 
ATOM     20  C   UNL     1       1.170   2.087   0.002  0.00  0.00    +0.046 A 
ATOM     21  C   UNL     1       2.381   1.410  -0.013  0.00  0.00    +0.122 A 
ATOM     22  C   UNL     1       2.398   0.023  -0.021  0.00  0.00    +0.061 A 
ATOM     23  C   UNL     1       1.208  -0.682  -0.013  0.00  0.00    +0.021 A 
ATOM     24  C   UNL     1       0.002  -0.004   0.002  0.00  0.00    +0.015 A 
ATOM     25 BR   UNL     1       1.230  -2.573  -0.024  0.00  0.00    -0.050 Br
ENDBRANCH  18  21
ENDBRANCH  17  18
ENDBRANCH  16  17
ENDBRANCH  15  16
ENDBRANCH   1  15
TORSDOF 8
