REMARK  Name = ZINC15958531
REMARK  4 active torsions:
REMARK  status: ('A' for Active; 'I' for Inactive)
REMARK    1  A    between atoms: C_4  and  C_7
REMARK    2  A    between atoms: C_7  and  C_8
REMARK    3  A    between atoms: N_16  and  C_19
REMARK    4  A    between atoms: C_19  and  C_20
REMARK                            x       y       z     vdW  Elec       q    Type
REMARK                         _______ _______ _______ _____ _____    ______ ____
ROOT
ATOM      1  C   UNL     1       4.171  -0.963   1.399  0.00  0.00    +0.072 C 
ATOM      2  C   UNL     1       5.473  -1.792   1.406  0.00  0.00    +0.107 C 
ATOM      3  C   UNL     1       6.313  -1.207   2.575  0.00  0.00    +0.122 C 
ATOM      4  C   UNL     1       7.514  -0.611   1.875  0.00  0.00    +0.229 C 
ATOM      5  O   UNL     1       8.438  -0.049   2.425  0.00  0.00    -0.275 OA
ATOM      6  N   UNL     1       7.399  -0.799   0.556  0.00  0.00    -0.237 N 
ATOM      7  C   UNL     1       6.283  -1.461   0.173  0.00  0.00    +0.227 C 
ATOM      8  O   UNL     1       5.974  -1.743  -0.965  0.00  0.00    -0.275 OA
ATOM      9  C   UNL     1       5.436  -0.094   3.161  0.00  0.00    +0.136 C 
ATOM     10  N   UNL     1       4.528   0.318   2.064  0.00  0.00    -0.295 NA
ATOM     11  C   UNL     1       4.687  -0.566   4.375  0.00  0.00    +0.003 A 
ATOM     12  C   UNL     1       3.776  -1.575   4.594  0.00  0.00    +0.008 A 
ATOM     13  C   UNL     1       3.247  -1.768   5.858  0.00  0.00    +0.000 A 
ATOM     14  C   UNL     1       3.634  -0.944   6.899  0.00  0.00    +0.002 A 
ATOM     15  C   UNL     1       4.545   0.070   6.683  0.00  0.00    +0.023 A 
ATOM     16  C   UNL     1       5.083   0.271   5.414  0.00  0.00    +0.039 A 
ATOM     17  N   UNL     1       6.004   1.213   4.952  0.00  0.00    -0.283 N 
ATOM     18  C   UNL     1       6.264   1.067   3.638  0.00  0.00    +0.243 C 
ATOM     19  O   UNL     1       7.020   1.741   2.970  0.00  0.00    -0.273 OA
ATOM     20  H   UNL     1       4.986   0.945   1.420  0.00  0.00    +0.124 HD
ATOM     21  H   UNL     1       6.410   1.893   5.512  0.00  0.00    +0.155 HD
ENDROOT
BRANCH   1  22
ATOM     22  C   UNL     1       3.711  -0.707  -0.038  0.00  0.00    +0.054 C 
BRANCH  22  26
ATOM     23  C   UNL     1      -0.017   1.378   0.010  0.00  0.00    +0.000 A 
ATOM     24  C   UNL     1       1.171   2.086   0.002  0.00  0.00    +0.000 A 
ATOM     25  C   UNL     1       2.377   1.411  -0.013  0.00  0.00    +0.004 A 
ATOM     26  C   UNL     1       2.396   0.029  -0.020  0.00  0.00    -0.046 A 
ATOM     27  C   UNL     1       1.208  -0.679  -0.012  0.00  0.00    +0.004 A 
ATOM     28  C   UNL     1       0.002  -0.004   0.002  0.00  0.00    +0.000 A 
ENDBRANCH  22  26
ENDBRANCH   1  22
BRANCH   6  29
ATOM     29  C   UNL     1       8.405  -0.332  -0.402  0.00  0.00    +0.151 C 
BRANCH  29  30
ATOM     30  C   UNL     1       9.436  -1.411  -0.613  0.00  0.00    -0.030 A 
ATOM     31  C   UNL     1      10.557  -1.463   0.195  0.00  0.00    +0.005 A 
ATOM     32  C   UNL     1      11.503  -2.452   0.001  0.00  0.00    +0.000 A 
ATOM     33  C   UNL     1      11.328  -3.389  -1.000  0.00  0.00    +0.000 A 
ATOM     34  C   UNL     1      10.207  -3.338  -1.807  0.00  0.00    +0.000 A 
ATOM     35  C   UNL     1       9.259  -2.351  -1.610  0.00  0.00    +0.005 A 
ENDBRANCH  29  30
ENDBRANCH   6  29
TORSDOF 4
