REMARK  Name = ZINC35705814
REMARK  13 active torsions:
REMARK  status: ('A' for Active; 'I' for Inactive)
REMARK    1  A    between atoms: C_1  and  C_2
REMARK    2  A    between atoms: C_5  and  C_40
REMARK    3  A    between atoms: C_6  and  C_8
REMARK    4  A    between atoms: C_8  and  N_9
REMARK    5  A    between atoms: N_9  and  C_10
REMARK    6  A    between atoms: N_9  and  C_22
REMARK    7  A    between atoms: C_10  and  C_11
REMARK    8  A    between atoms: C_11  and  C_12
REMARK    9  A    between atoms: C_22  and  C_23
REMARK   10  A    between atoms: C_25  and  C_28
REMARK   11  A    between atoms: N_30  and  C_31
REMARK   12  A    between atoms: C_31  and  C_33
REMARK   13  A    between atoms: C_31  and  C_34
REMARK                            x       y       z     vdW  Elec       q    Type
REMARK                         _______ _______ _______ _____ _____    ______ ____
ROOT
ATOM      1  N   UNL     1       1.780  -2.814   2.990  0.00  0.00    +0.388 N 
ATOM      2  H   UNL     1       2.158  -3.247   2.161  0.00  0.00    -0.081 HD
ENDROOT
BRANCH   1   3
ATOM      3  C   UNL     1       0.410  -2.355   2.722  0.00  0.00    -0.042 C 
BRANCH   3   9
ATOM      4  C   UNL     1       0.139   2.222   0.716  0.00  0.00    +0.044 C 
ATOM      5  C   UNL     1       0.279   0.731   0.550  0.00  0.00    -0.050 A 
ATOM      6  C   UNL     1       0.406   0.185  -0.713  0.00  0.00    +0.003 A 
ATOM      7  C   UNL     1       0.534  -1.183  -0.865  0.00  0.00    +0.004 A 
ATOM      8  C   UNL     1       0.535  -2.005   0.246  0.00  0.00    -0.049 A 
ATOM      9  C   UNL     1       0.409  -1.459   1.510  0.00  0.00    -0.061 A 
ATOM     10  C   UNL     1       0.285  -0.090   1.662  0.00  0.00    +0.005 A 
ATOM     11  C   UNL     1       0.674  -3.497   0.081  0.00  0.00    +0.044 C 
ENDBRANCH   3   9
ENDBRANCH   1   3
BRANCH   1  12
ATOM     12  C   UNL     1       1.763  -3.790   4.088  0.00  0.00    -0.073 C 
BRANCH  12  13
ATOM     13  C   UNL     1       0.996  -5.039   3.649  0.00  0.00    +0.019 C 
BRANCH  13  14
ATOM     14  C   UNL     1       0.978  -6.040   4.775  0.00  0.00    -0.024 A 
ATOM     15  C   UNL     1       1.836  -7.057   4.953  0.00  0.00    +0.087 A 
ATOM     16  N   UNL     1       1.508  -7.752   6.085  0.00  0.00    -0.360 N 
ATOM     17  H   UNL     1       1.982  -8.529   6.419  0.00  0.00    +0.165 HD
ATOM     18  C   UNL     1       0.402  -7.185   6.678  0.00  0.00    +0.047 A 
ATOM     19  C   UNL     1       0.026  -6.083   5.887  0.00  0.00    +0.003 A 
ATOM     20  C   UNL     1      -1.073  -5.305   6.254  0.00  0.00    +0.010 A 
ATOM     21  C   UNL     1      -1.778  -5.616   7.384  0.00  0.00    +0.001 A 
ATOM     22  C   UNL     1      -1.408  -6.699   8.169  0.00  0.00    +0.002 A 
ATOM     23  C   UNL     1      -0.332  -7.486   7.820  0.00  0.00    +0.026 A 
ENDBRANCH  13  14
ENDBRANCH  12  13
ENDBRANCH   1  12
BRANCH   1  24
ATOM     24  C   UNL     1       2.616  -1.667   3.367  0.00  0.00    +0.019 C 
BRANCH  24  25
ATOM     25  C   UNL     1       4.047  -2.115   3.515  0.00  0.00    +0.179 A 
ATOM     26  N   UNL     1       4.950  -2.068   2.582  0.00  0.00    -0.210 NA
ATOM     27  C   UNL     1       6.116  -2.555   3.085  0.00  0.00    +0.163 A 
ATOM     28  C   UNL     1       5.879  -2.904   4.379  0.00  0.00    +0.230 A 
ATOM     29  O   UNL     1       4.591  -2.619   4.631  0.00  0.00    -0.449 OA
BRANCH  27  30
ATOM     30  C   UNL     1       7.396  -2.683   2.364  0.00  0.00    +0.266 C 
ATOM     31  O   UNL     1       8.345  -3.222   2.901  0.00  0.00    -0.268 OA
ATOM     32  N   UNL     1       7.514  -2.201   1.111  0.00  0.00    -0.303 N 
ATOM     33  H   UNL     1       6.784  -1.704   0.712  0.00  0.00    +0.150 HD
BRANCH  32  34
ATOM     34  C   UNL     1       8.746  -2.430   0.352  0.00  0.00    +0.100 C 
ATOM     35  C   UNL     1       8.647  -3.765  -0.390  0.00  0.00    +0.033 C 
BRANCH  34  36
ATOM     36  C   UNL     1       8.937  -1.315  -0.643  0.00  0.00    -0.027 A 
ATOM     37  C   UNL     1       7.849  -0.802  -1.325  0.00  0.00    +0.005 A 
ATOM     38  C   UNL     1       8.024   0.221  -2.238  0.00  0.00    +0.000 A 
ATOM     39  C   UNL     1       9.288   0.731  -2.469  0.00  0.00    +0.000 A 
ATOM     40  C   UNL     1      10.376   0.219  -1.787  0.00  0.00    +0.000 A 
ATOM     41  C   UNL     1      10.200  -0.801  -0.871  0.00  0.00    +0.005 A 
ENDBRANCH  34  36
ENDBRANCH  32  34
ENDBRANCH  27  30
ENDBRANCH  24  25
ENDBRANCH   1  24
TORSDOF 10
