REMARK  Name = ZINC08868808
REMARK  10 active torsions:
REMARK  status: ('A' for Active; 'I' for Inactive)
REMARK    1  A    between atoms: C_1  and  C_2
REMARK    2  A    between atoms: C_5  and  S_8
REMARK    3  A    between atoms: S_8  and  N_11
REMARK    4  A    between atoms: C_15  and  C_17
REMARK    5  A    between atoms: N_19  and  C_20
REMARK    6  A    between atoms: C_20  and  C_21
REMARK    7  A    between atoms: C_21  and  C_22
REMARK    8  A    between atoms: C_22  and  N_63
REMARK    9  A    between atoms: C_23  and  N_63
REMARK   10  A    between atoms: C_24  and  N_63
REMARK                            x       y       z     vdW  Elec       q    Type
REMARK                         _______ _______ _______ _____ _____    ______ ____
ROOT
ATOM      1  C   UNL     1      -0.458  -0.227   2.879  0.00  0.00    +0.240 C 
ATOM      2  O   UNL     1      -1.502  -0.664   2.443  0.00  0.00    -0.273 OA
ATOM      3  N   UNL     1       0.191   0.752   2.219  0.00  0.00    -0.249 N 
ATOM      4  C   UNL     1       1.430   1.186   2.664  0.00  0.00    +0.168 A 
ATOM      5  N   UNL     1       2.124   0.770   3.697  0.00  0.00    -0.224 NA
ATOM      6  C   UNL     1       3.331   1.289   4.017  0.00  0.00    +0.080 A 
ATOM      7  C   UNL     1       4.175   0.934   5.094  0.00  0.00    +0.032 A 
ATOM      8  C   UNL     1       5.378   1.563   5.278  0.00  0.00    +0.040 A 
ATOM      9  C   UNL     1       5.811   2.568   4.420  0.00  0.00    +0.125 A 
ATOM     10  C   UNL     1       5.008   2.940   3.356  0.00  0.00    +0.055 A 
ATOM     11  C   UNL     1       3.802   2.313   3.165  0.00  0.00    +0.043 A 
ATOM     12  S   UNL     1       2.490   2.447   1.974  0.00  0.00    -0.052 S 
ATOM     13  F   UNL     1       7.001   3.173   4.623  0.00  0.00    -0.205 F 
ENDROOT
BRANCH   1  18
ATOM     14  N   UNL     1      -0.520  -2.067   4.476  0.00  0.00    -0.165 NA
ATOM     15  C   UNL     1      -1.179  -1.959   5.790  0.00  0.00    +0.110 C 
ATOM     16  C   UNL     1      -1.455  -0.446   5.972  0.00  0.00    +0.019 C 
ATOM     17  C   UNL     1      -0.191   0.181   5.328  0.00  0.00    +0.031 C 
ATOM     18  C   UNL     1       0.114  -0.779   4.160  0.00  0.00    +0.166 C 
BRANCH  14  19
ATOM     19  S   UNL     1      -0.499  -3.416   3.515  0.00  0.00    +0.062 S 
ATOM     20  O   UNL     1      -1.630  -4.194   3.882  0.00  0.00    -0.153 OA
ATOM     21  O   UNL     1      -0.284  -2.963   2.185  0.00  0.00    -0.153 OA
BRANCH  19  26
ATOM     22  C   UNL     1       4.373  -6.627   5.051  0.00  0.00    +0.044 C 
ATOM     23  C   UNL     1       3.156  -5.824   4.668  0.00  0.00    -0.050 A 
ATOM     24  C   UNL     1       1.951  -6.048   5.308  0.00  0.00    +0.005 A 
ATOM     25  C   UNL     1       0.835  -5.312   4.956  0.00  0.00    +0.029 A 
ATOM     26  C   UNL     1       0.924  -4.353   3.964  0.00  0.00    +0.106 A 
ATOM     27  C   UNL     1       2.128  -4.133   3.321  0.00  0.00    +0.029 A 
ATOM     28  C   UNL     1       3.245  -4.865   3.676  0.00  0.00    +0.005 A 
ENDBRANCH  19  26
ENDBRANCH  14  19
ENDBRANCH   1  18
BRANCH   3  29
ATOM     29  C   UNL     1      -0.413   1.358   1.029  0.00  0.00    +0.114 C 
BRANCH  29  30
ATOM     30  C   UNL     1       0.008   0.571  -0.214  0.00  0.00    +0.001 C 
BRANCH  30  31
ATOM     31  C   UNL     1      -0.653   1.182  -1.451  0.00  0.00    -0.078 C 
BRANCH  31  34
ATOM     32  C   UNL     1      -0.778  -0.943  -2.605  0.00  0.00    -0.097 C 
ATOM     33  C   UNL     1      -0.667   1.117  -3.872  0.00  0.00    -0.097 C 
ATOM     34  N   UNL     1      -0.220   0.425  -2.645  0.00  0.00    +0.376 N 
ATOM     35  H   UNL     1       0.805   0.366  -2.649  0.00  0.00    -0.083 HD
ENDBRANCH  31  34
ENDBRANCH  30  31
ENDBRANCH  29  30
ENDBRANCH   3  29
TORSDOF 7
