REMARK  Name = ZINC10785275
REMARK  13 active torsions:
REMARK  status: ('A' for Active; 'I' for Inactive)
REMARK    1  A    between atoms: C_1  and  C_2
REMARK    2  A    between atoms: C_2  and  N_62
REMARK    3  A    between atoms: C_3  and  C_4
REMARK    4  A    between atoms: C_3  and  N_62
REMARK    5  A    between atoms: C_5  and  C_6
REMARK    6  A    between atoms: C_5  and  N_62
REMARK    7  A    between atoms: C_6  and  N_7
REMARK    8  A    between atoms: C_11  and  C_18
REMARK    9  A    between atoms: C_19  and  C_21
REMARK   10  A    between atoms: C_24  and  S_27
REMARK   11  A    between atoms: S_27  and  N_30
REMARK   12  A    between atoms: N_30  and  C_31
REMARK   13  A    between atoms: N_30  and  C_32
REMARK                            x       y       z     vdW  Elec       q    Type
REMARK                         _______ _______ _______ _____ _____    ______ ____
ROOT
ATOM      1  N   UNL     1       2.539  -2.978  -0.130  0.00  0.00    -0.248 N 
ATOM      2  C   UNL     1       2.561  -4.346   0.083  0.00  0.00    +0.168 A 
ATOM      3  N   UNL     1       1.555  -5.188   0.134  0.00  0.00    -0.224 NA
ATOM      4  C   UNL     1       1.726  -6.510   0.350  0.00  0.00    +0.083 A 
ATOM      5  C   UNL     1       0.735  -7.517   0.427  0.00  0.00    -0.023 A 
ATOM      6  C   UNL     1       1.080  -8.823   0.655  0.00  0.00    +0.025 A 
ATOM      7  C   UNL     1       2.405  -9.206   0.817  0.00  0.00    +0.042 A 
ATOM      8  C   UNL     1       3.400  -8.247   0.747  0.00  0.00    +0.037 A 
ATOM      9  C   UNL     1       3.063  -6.936   0.519  0.00  0.00    +0.042 A 
ATOM     10  S   UNL     1       3.968  -5.417   0.348  0.00  0.00    -0.052 S 
ATOM     11 CL   UNL     1       2.809 -10.870   1.104  0.00  0.00    -0.083 Cl
ATOM     12  C   UNL     1      -0.716  -7.149   0.259  0.00  0.00    +0.046 C 
ATOM     13  C   UNL     1       1.364  -2.345  -0.318  0.00  0.00    +0.252 C 
ATOM     14  O   UNL     1       0.319  -2.952  -0.190  0.00  0.00    -0.270 OA
ENDROOT
BRANCH  13  15
ATOM     15  C   UNL     1       1.347  -0.912  -0.680  0.00  0.00    +0.037 A 
ATOM     16  C   UNL     1       0.334  -0.407  -1.497  0.00  0.00    +0.015 A 
ATOM     17  C   UNL     1       0.324   0.931  -1.831  0.00  0.00    +0.029 A 
ATOM     18  C   UNL     1       1.316   1.772  -1.360  0.00  0.00    +0.105 A 
ATOM     19  C   UNL     1       2.324   1.279  -0.551  0.00  0.00    +0.029 A 
ATOM     20  C   UNL     1       2.346  -0.058  -0.208  0.00  0.00    +0.015 A 
BRANCH  18  21
ATOM     21  S   UNL     1       1.297   3.480  -1.793  0.00  0.00    +0.060 S 
ATOM     22  O   UNL     1       2.635   3.945  -1.674  0.00  0.00    -0.153 OA
ATOM     23  O   UNL     1       0.559   3.584  -3.003  0.00  0.00    -0.153 OA
BRANCH  21  24
ATOM     24  N   UNL     1       0.417   4.269  -0.633  0.00  0.00    -0.183 NA
ATOM     25  C   UNL     1       1.085   4.802   0.557  0.00  0.00    +0.131 C 
ATOM     26  C   UNL     1      -1.030   4.435  -0.797  0.00  0.00    +0.131 C 
ENDBRANCH  21  24
ENDBRANCH  18  21
ENDBRANCH  13  15
BRANCH   1  27
ATOM     27  C   UNL     1       3.792  -2.219  -0.149  0.00  0.00    +0.097 C 
BRANCH  27  28
ATOM     28  C   UNL     1       4.321  -2.071   1.279  0.00  0.00    -0.059 C 
BRANCH  28  29
ATOM     29  N   UNL     1       5.627  -1.382   1.232  0.00  0.00    +0.380 N 
ATOM     30  H   UNL     1       6.174  -1.758   0.448  0.00  0.00    -0.082 HD
BRANCH  29  32
ATOM     31  C   UNL     1       4.682   0.681   2.213  0.00  0.00    -0.017 C 
ATOM     32  C   UNL     1       5.426   0.068   1.025  0.00  0.00    -0.082 C 
ENDBRANCH  29  32
BRANCH  29  33
ATOM     33  C   UNL     1       6.367  -1.615   2.490  0.00  0.00    -0.082 C 
ATOM     34  C   UNL     1       7.761  -0.997   2.365  0.00  0.00    -0.017 C 
ENDBRANCH  29  33
ENDBRANCH  28  29
ENDBRANCH  27  28
ENDBRANCH   1  27
TORSDOF 8
