REMARK  Name = ZINC42953681
REMARK  9 active torsions:
REMARK  status: ('A' for Active; 'I' for Inactive)
REMARK    1  A    between atoms: C_1  and  C_2
REMARK    2  A    between atoms: C_2  and  C_3
REMARK    3  A    between atoms: C_2  and  C_4
REMARK    4  A    between atoms: C_4  and  C_5
REMARK    5  A    between atoms: C_5  and  N_6
REMARK    6  A    between atoms: N_14  and  C_15
REMARK    7  A    between atoms: C_15  and  C_16
REMARK    8  A    between atoms: C_19  and  S_22
REMARK    9  A    between atoms: S_22  and  N_25
REMARK                            x       y       z     vdW  Elec       q    Type
REMARK                         _______ _______ _______ _____ _____    ______ ____
ROOT
ATOM      1  N   UNL     1      -2.791  -2.566  -0.115  0.00  0.00    +0.382 N 
ATOM      2  C   UNL     1      -3.505  -2.070  -1.299  0.00  0.00    -0.059 C 
ATOM      3  C   UNL     1      -4.973  -2.505  -1.228  0.00  0.00    +0.091 C 
ATOM      4  N   UNL     1      -5.019  -3.965  -1.059  0.00  0.00    -0.289 N 
ATOM      5  C   UNL     1      -4.200  -4.566   0.005  0.00  0.00    +0.091 C 
ATOM      6  C   UNL     1      -2.769  -4.034  -0.124  0.00  0.00    -0.059 C 
ATOM      7  C   UNL     1      -5.789  -4.731  -1.857  0.00  0.00    +0.302 C 
ATOM      8  O   UNL     1      -6.528  -4.210  -2.671  0.00  0.00    -0.253 OA
ATOM      9  N   UNL     1      -5.742  -6.074  -1.753  0.00  0.00    -0.295 N 
ATOM     10  H   UNL     1      -5.209  -6.487  -1.055  0.00  0.00    +0.151 HD
ATOM     11  H   UNL     1      -3.260  -2.243   0.717  0.00  0.00    -0.082 HD
ENDROOT
BRANCH   1  12
ATOM     12  C   UNL     1      -1.413  -2.058  -0.128  0.00  0.00    -0.078 C 
BRANCH  12  13
ATOM     13  C   UNL     1      -1.431  -0.534   0.006  0.00  0.00    -0.016 C 
BRANCH  13  15
ATOM     14  C   UNL     1      -0.016   1.526   0.002  0.00  0.00    +0.007 C 
ATOM     15  C   UNL     1       0.005  -0.004  -0.007  0.00  0.00    -0.019 C 
ATOM     16  C   UNL     1       0.747  -0.511   1.232  0.00  0.00    +0.007 C 
ENDBRANCH  13  15
ENDBRANCH  12  13
ENDBRANCH   1  12
BRANCH   9  17
ATOM     17  C   UNL     1      -6.494  -6.909  -2.693  0.00  0.00    +0.141 C 
BRANCH  17  18
ATOM     18  C   UNL     1      -6.272  -8.362  -2.362  0.00  0.00    -0.030 A 
ATOM     19  C   UNL     1      -5.223  -9.051  -2.941  0.00  0.00    +0.007 A 
ATOM     20  C   UNL     1      -5.019 -10.384  -2.637  0.00  0.00    +0.029 A 
ATOM     21  C   UNL     1      -5.866 -11.028  -1.754  0.00  0.00    +0.105 A 
ATOM     22  C   UNL     1      -6.915 -10.340  -1.175  0.00  0.00    +0.029 A 
ATOM     23  C   UNL     1      -7.115  -9.005  -1.475  0.00  0.00    +0.007 A 
BRANCH  21  24
ATOM     24  S   UNL     1      -5.607 -12.728  -1.368  0.00  0.00    +0.056 S 
ATOM     25  O   UNL     1      -6.861 -13.242  -0.937  0.00  0.00    -0.153 OA
ATOM     26  O   UNL     1      -4.889 -13.288  -2.459  0.00  0.00    -0.153 OA
BRANCH  24  27
ATOM     27  N   UNL     1      -4.597 -12.784  -0.057  0.00  0.00    -0.204 NA
ATOM     28  H   UNL     1      -4.660 -13.520   0.572  0.00  0.00    +0.144 HD
ATOM     29  H   UNL     1      -3.943 -12.082   0.082  0.00  0.00    +0.144 HD
ENDBRANCH  24  27
ENDBRANCH  21  24
ENDBRANCH  17  18
ENDBRANCH   9  17
TORSDOF 7
