REMARK  Name = ZINC51171083
REMARK  6 active torsions:
REMARK  status: ('A' for Active; 'I' for Inactive)
REMARK    1  A    between atoms: C_3  and  N_21
REMARK    2  A    between atoms: C_6  and  C_7
REMARK    3  A    between atoms: C_7  and  N_8
REMARK    4  A    between atoms: N_8  and  C_9
REMARK    5  A    between atoms: C_9  and  C_10
REMARK    6  A    between atoms: C_13  and  C_15
REMARK                            x       y       z     vdW  Elec       q    Type
REMARK                         _______ _______ _______ _____ _____    ______ ____
ROOT
ATOM      1  N   UNL     1      -1.776  -0.952  -1.475  0.00  0.00    -0.284 N 
ATOM      2  C   UNL     1      -2.715  -0.068  -1.865  0.00  0.00    +0.254 C 
ATOM      3  O   UNL     1      -2.938   0.921  -1.191  0.00  0.00    -0.269 OA
ENDROOT
BRANCH   2   4
ATOM      4  C   UNL     1      -3.469  -0.298  -3.100  0.00  0.00    +0.075 A 
ATOM      5  C   UNL     1      -4.381   0.532  -3.734  0.00  0.00    +0.022 A 
ATOM      6  C   UNL     1      -4.933   0.039  -4.891  0.00  0.00    +0.028 A 
ATOM      7  C   UNL     1      -4.560  -1.192  -5.327  0.00  0.00    +0.079 A 
ATOM      8  S   UNL     1      -3.445  -1.713  -4.184  0.00  0.00    -0.072 S 
ATOM      9 CL   UNL     1      -5.105  -2.032  -6.745  0.00  0.00    -0.076 Cl
ENDBRANCH   2   4
BRANCH   1  10
ATOM     10  C   UNL     1      -1.107  -0.787  -0.182  0.00  0.00    +0.143 C 
BRANCH  10  16
ATOM     11  C   UNL     1       0.041   1.436  -0.230  0.00  0.00    +0.007 A 
ATOM     12  C   UNL     1       1.169   2.217  -0.391  0.00  0.00    +0.023 A 
ATOM     13  C   UNL     1       2.389   1.621  -0.683  0.00  0.00    +0.025 A 
ATOM     14  C   UNL     1       2.470   0.240  -0.812  0.00  0.00    +0.023 A 
ATOM     15  C   UNL     1       1.339  -0.535  -0.649  0.00  0.00    +0.007 A 
ATOM     16  C   UNL     1       0.126   0.062  -0.359  0.00  0.00    -0.030 A 
BRANCH  13  17
ATOM     17  N   UNL     1       3.531   2.408  -0.847  0.00  0.00    -0.358 N 
ATOM     18  H   UNL     1       3.473   3.372  -0.758  0.00  0.00    +0.142 HD
ATOM     19  H   UNL     1       4.383   1.990  -1.051  0.00  0.00    +0.142 HD
ENDBRANCH  13  17
ENDBRANCH  10  16
ENDBRANCH   1  10
BRANCH   1  20
ATOM     20  C   UNL     1      -1.423  -2.078  -2.343  0.00  0.00    +0.203 C 
BRANCH  20  21
ATOM     21  C   UNL     1      -2.375  -3.220  -2.095  0.00  0.00    +0.228 C 
ATOM     22  O   UNL     1      -3.260  -3.105  -1.274  0.00  0.00    -0.274 OA
ATOM     23  N   UNL     1      -2.242  -4.370  -2.786  0.00  0.00    -0.328 N 
ATOM     24  H   UNL     1      -1.534  -4.462  -3.443  0.00  0.00    +0.145 HD
ATOM     25  H   UNL     1      -2.854  -5.105  -2.627  0.00  0.00    +0.145 HD
ENDBRANCH  20  21
ENDBRANCH   1  20
TORSDOF 6
