REMARK  Name = ZINC35155397
REMARK  10 active torsions:
REMARK  status: ('A' for Active; 'I' for Inactive)
REMARK    1  A    between atoms: C_1  and  O_2
REMARK    2  A    between atoms: O_2  and  C_3
REMARK    3  A    between atoms: C_6  and  C_9
REMARK    4  A    between atoms: C_15  and  C_17
REMARK    5  A    between atoms: C_17  and  C_18
REMARK    6  A    between atoms: C_18  and  N_19
REMARK    7  A    between atoms: N_19  and  C_20
REMARK    8  A    between atoms: C_20  and  C_21
REMARK    9  A    between atoms: C_27  and  C_29
REMARK   10  A    between atoms: C_32  and  C_34
REMARK                            x       y       z     vdW  Elec       q    Type
REMARK                         _______ _______ _______ _____ _____    ______ ____
ROOT
ATOM      1  C   UNL     1       6.151  -4.922  -9.917  0.00  0.00    +0.117 C 
ENDROOT
BRANCH   1   2
ATOM      2  N   UNL     1       6.304  -5.648 -11.180  0.00  0.00    -0.296 N 
ATOM      3  C   UNL     1       7.437  -6.334 -11.430  0.00  0.00    +0.220 C 
ATOM      4  O   UNL     1       8.291  -6.427 -10.574  0.00  0.00    -0.275 OA
BRANCH   3   5
ATOM      5  C   UNL     1       7.642  -6.986 -12.773  0.00  0.00    +0.083 C 
ATOM      6  C   UNL     1       7.913  -8.492 -12.794  0.00  0.00    +0.022 C 
ATOM      7  C   UNL     1       9.043  -7.506 -13.099  0.00  0.00    +0.032 C 
BRANCH   7   8
ATOM      8  C   UNL     1       9.509  -7.403 -14.528  0.00  0.00    -0.044 A 
ATOM      9  C   UNL     1       8.804  -8.039 -15.533  0.00  0.00    +0.004 A 
ATOM     10  C   UNL     1       9.231  -7.944 -16.844  0.00  0.00    +0.000 A 
ATOM     11  C   UNL     1      10.363  -7.213 -17.151  0.00  0.00    +0.000 A 
ATOM     12  C   UNL     1      11.069  -6.576 -16.146  0.00  0.00    +0.000 A 
ATOM     13  C   UNL     1      10.639  -6.668 -14.836  0.00  0.00    +0.004 A 
ENDBRANCH   7   8
ENDBRANCH   3   5
BRANCH   2  14
ATOM     14  C   UNL     1       5.225  -5.629 -12.171  0.00  0.00    +0.142 C 
BRANCH  14  15
ATOM     15  C   UNL     1       4.270  -6.762 -11.896  0.00  0.00    -0.030 A 
ATOM     16  C   UNL     1       4.538  -8.026 -12.386  0.00  0.00    +0.005 A 
ATOM     17  C   UNL     1       3.661  -9.065 -12.134  0.00  0.00    +0.000 A 
ATOM     18  C   UNL     1       2.518  -8.840 -11.391  0.00  0.00    +0.000 A 
ATOM     19  C   UNL     1       2.251  -7.576 -10.899  0.00  0.00    +0.000 A 
ATOM     20  C   UNL     1       3.129  -6.538 -11.148  0.00  0.00    +0.005 A 
ENDBRANCH  14  15
ENDBRANCH   2  14
ENDBRANCH   1   2
BRANCH   1  21
ATOM     21  C   UNL     1       5.520  -5.843  -8.871  0.00  0.00    +0.115 C 
BRANCH  21  28
ATOM     22  C   UNL     1       4.255  -4.020  -2.872  0.00  0.00    +0.134 A 
ATOM     23  N   UNL     1       4.797  -3.297  -3.845  0.00  0.00    -0.140 NA
ATOM     24  N   UNL     1       4.998  -3.772  -4.995  0.00  0.00    -0.125 NA
ATOM     25  C   UNL     1       4.680  -5.023  -5.303  0.00  0.00    +0.188 A 
ATOM     26  S   UNL     1       4.018  -5.573  -3.733  0.00  0.00    -0.030 S 
ATOM     27  N   UNL     1       4.825  -5.713  -6.501  0.00  0.00    -0.263 N 
ATOM     28  C   UNL     1       5.363  -5.096  -7.572  0.00  0.00    +0.220 C 
ATOM     29  O   UNL     1       5.720  -3.940  -7.491  0.00  0.00    -0.275 OA
ATOM     30  H   UNL     1       4.540  -6.637  -6.566  0.00  0.00    +0.157 HD
BRANCH  22  34
ATOM     31  C   UNL     1       3.354  -2.959   1.142  0.00  0.00    +0.120 A 
ATOM     32  C   UNL     1       3.922  -2.022   0.289  0.00  0.00    +0.046 A 
ATOM     33  C   UNL     1       4.216  -2.363  -1.014  0.00  0.00    +0.014 A 
ATOM     34  C   UNL     1       3.942  -3.651  -1.476  0.00  0.00    +0.009 A 
ATOM     35  C   UNL     1       3.370  -4.590  -0.615  0.00  0.00    +0.014 A 
ATOM     36  C   UNL     1       3.084  -4.244   0.688  0.00  0.00    +0.046 A 
BRANCH  31  38
ATOM     37  C   UNL     1       3.369  -1.282   2.827  0.00  0.00    +0.277 C 
ATOM     38  O   UNL     1       3.066  -2.620   2.426  0.00  0.00    -0.495 OA
ENDBRANCH  31  38
ENDBRANCH  22  34
ENDBRANCH  21  28
ENDBRANCH   1  21
TORSDOF 9
