REMARK  Name = ZINC64967633
REMARK  11 active torsions:
REMARK  status: ('A' for Active; 'I' for Inactive)
REMARK    1  A    between atoms: C_1  and  C_2
REMARK    2  A    between atoms: C_2  and  O_3
REMARK    3  A    between atoms: O_3  and  C_4
REMARK    4  A    between atoms: C_7  and  C_10
REMARK    5  A    between atoms: C_12  and  C_16
REMARK    6  A    between atoms: C_13  and  C_15
REMARK    7  A    between atoms: C_16  and  N_17
REMARK    8  A    between atoms: C_18  and  C_33
REMARK    9  A    between atoms: C_19  and  C_22
REMARK   10  A    between atoms: N_24  and  C_25
REMARK   11  A    between atoms: C_28  and  C_32
REMARK                            x       y       z     vdW  Elec       q    Type
REMARK                         _______ _______ _______ _____ _____    ______ ____
ROOT
ATOM      1  N   UNL     1      -4.260  -9.437  -1.421  0.00  0.00    -0.242 N 
ATOM      2  C   UNL     1      -5.231  -8.885  -2.175  0.00  0.00    +0.069 A 
ATOM      3  C   UNL     1      -5.198  -9.514  -3.387  0.00  0.00    +0.170 A 
ATOM      4  N   UNL     1      -4.218 -10.434  -3.362  0.00  0.00    -0.125 NA
ATOM      5  N   UNL     1      -3.637 -10.412  -2.213  0.00  0.00    -0.064 NA
ATOM      6  C   UNL     1      -6.174  -7.784  -1.760  0.00  0.00    +0.068 C 
ENDROOT
BRANCH   3   7
ATOM      7  C   UNL     1      -6.087  -9.232  -4.530  0.00  0.00    +0.270 C 
ATOM      8  O   UNL     1      -6.942  -8.373  -4.437  0.00  0.00    -0.268 OA
ATOM      9  N   UNL     1      -5.951  -9.927  -5.676  0.00  0.00    -0.279 N 
ATOM     10  H   UNL     1      -5.228 -10.566  -5.774  0.00  0.00    +0.155 HD
BRANCH   9  11
ATOM     11  C   UNL     1      -6.852  -9.726  -6.727  0.00  0.00    +0.052 A 
ATOM     12  C   UNL     1      -7.381  -8.463  -6.958  0.00  0.00    +0.025 A 
ATOM     13  C   UNL     1      -8.271  -8.268  -7.997  0.00  0.00    +0.005 A 
ATOM     14  C   UNL     1      -8.636  -9.328  -8.806  0.00  0.00    -0.049 A 
ATOM     15  C   UNL     1      -8.112 -10.587  -8.579  0.00  0.00    +0.025 A 
ATOM     16  C   UNL     1      -7.216 -10.789  -7.545  0.00  0.00    +0.062 A 
ATOM     17 CL   UNL     1      -6.552 -12.368  -7.266  0.00  0.00    -0.082 Cl
ATOM     18  C   UNL     1      -9.608  -9.111  -9.937  0.00  0.00    +0.044 C 
ENDBRANCH   9  11
ENDBRANCH   3   7
BRANCH   1  19
ATOM     19  C   UNL     1      -3.917  -9.083  -0.041  0.00  0.00    +0.204 C 
BRANCH  19  22
ATOM     20  C   UNL     1      -1.982  -6.028  -0.051  0.00  0.00    +0.228 A 
ATOM     21  N   UNL     1      -3.128  -6.668  -0.045  0.00  0.00    -0.212 NA
ATOM     22  C   UNL     1      -2.882  -7.987  -0.047  0.00  0.00    +0.104 A 
ATOM     23  C   UNL     1      -1.548  -8.158  -0.054  0.00  0.00    +0.128 A 
ATOM     24  O   UNL     1      -0.987  -6.932  -0.063  0.00  0.00    -0.440 OA
ATOM     25  C   UNL     1      -0.816  -9.475  -0.059  0.00  0.00    +0.088 C 
BRANCH  20  29
ATOM     26  C   UNL     1      -1.498  -1.807  -0.052  0.00  0.00    +0.121 A 
ATOM     27  C   UNL     1      -0.381  -2.632  -0.064  0.00  0.00    +0.046 A 
ATOM     28  C   UNL     1      -0.533  -4.002  -0.063  0.00  0.00    +0.017 A 
ATOM     29  C   UNL     1      -1.813  -4.560  -0.051  0.00  0.00    +0.037 A 
ATOM     30  C   UNL     1      -2.934  -3.727  -0.038  0.00  0.00    +0.017 A 
ATOM     31  C   UNL     1      -2.773  -2.358  -0.034  0.00  0.00    +0.046 A 
BRANCH  26  32
ATOM     32  O   UNL     1      -1.343  -0.458  -0.053  0.00  0.00    -0.492 OA
BRANCH  32  34
ATOM     33  C   UNL     1      -0.031   1.572  -0.070  0.00  0.00    +0.048 C 
ATOM     34  C   UNL     1      -0.004   0.042  -0.072  0.00  0.00    +0.225 C 
ENDBRANCH  32  34
ENDBRANCH  26  32
ENDBRANCH  20  29
ENDBRANCH  19  22
ENDBRANCH   1  19
TORSDOF 7
