REMARK  Name = ZINC09473179
REMARK  11 active torsions:
REMARK  status: ('A' for Active; 'I' for Inactive)
REMARK    1  A    between atoms: C_1  and  C_2
REMARK    2  A    between atoms: C_2  and  C_3
REMARK    3  A    between atoms: C_9  and  C_10
REMARK    4  A    between atoms: C_9  and  N_68
REMARK    5  A    between atoms: C_10  and  C_11
REMARK    6  A    between atoms: C_11  and  N_12
REMARK    7  A    between atoms: C_22  and  S_23
REMARK    8  A    between atoms: S_23  and  C_24
REMARK    9  A    between atoms: C_24  and  C_25
REMARK   10  A    between atoms: N_27  and  C_28
REMARK   11  A    between atoms: C_28  and  C_29
REMARK                            x       y       z     vdW  Elec       q    Type
REMARK                         _______ _______ _______ _____ _____    ______ ____
ROOT
ATOM      1  N   UNL     1      -0.095   0.045   0.050  0.00  0.00    -0.287 N 
ATOM      2  C   UNL     1      -0.114  -0.632  -1.123  0.00  0.00    +0.262 A 
ATOM      3  O   UNL     1      -0.127  -0.046  -2.190  0.00  0.00    -0.267 OA
ATOM      4  C   UNL     1      -0.113  -2.099  -1.059  0.00  0.00    +0.065 A 
ATOM      5  C   UNL     1      -0.127  -2.887  -2.209  0.00  0.00    +0.015 A 
ATOM      6  C   UNL     1      -0.131  -4.249  -2.093  0.00  0.00    +0.001 A 
ATOM      7  C   UNL     1      -0.121  -4.855  -0.844  0.00  0.00    +0.002 A 
ATOM      8  C   UNL     1      -0.108  -4.108   0.300  0.00  0.00    +0.028 A 
ATOM      9  C   UNL     1      -0.104  -2.712   0.215  0.00  0.00    +0.079 A 
ATOM     10  N   UNL     1      -0.090  -1.937   1.317  0.00  0.00    -0.223 NA
ATOM     11  C   UNL     1      -0.086  -0.629   1.238  0.00  0.00    +0.173 A 
ENDROOT
BRANCH   1  12
ATOM     12  C   UNL     1      -0.089   1.510   0.044  0.00  0.00    +0.125 C 
BRANCH  12  13
ATOM     13  C   UNL     1       1.355   2.014   0.029  0.00  0.00    +0.003 C 
BRANCH  13  14
ATOM     14  C   UNL     1       1.361   3.544   0.023  0.00  0.00    -0.077 C 
BRANCH  14  20
ATOM     15  C   UNL     1       2.804   5.452  -0.349  0.00  0.00    -0.069 C 
ATOM     16  C   UNL     1       4.264   5.884  -0.497  0.00  0.00    -0.015 C 
ATOM     17  C   UNL     1       5.000   5.641   0.824  0.00  0.00    -0.003 C 
ATOM     18  C   UNL     1       4.885   4.161   1.198  0.00  0.00    -0.019 C 
ATOM     19  C   UNL     1       3.406   3.778   1.297  0.00  0.00    -0.078 C 
ATOM     20  N   UNL     1       2.761   4.013  -0.013  0.00  0.00    +0.382 N 
ATOM     21  H   UNL     1       3.270   3.487  -0.733  0.00  0.00    -0.081 HD
BRANCH  15  23
ATOM     22  C   UNL     1       2.675   4.770  -2.749  0.00  0.00    +0.002 C 
ATOM     23  C   UNL     1       2.070   5.674  -1.673  0.00  0.00    -0.019 C 
ENDBRANCH  15  23
ENDBRANCH  14  20
ENDBRANCH  13  14
ENDBRANCH  12  13
ENDBRANCH   1  12
BRANCH  11  24
ATOM     24  S   UNL     1      -0.069   0.304   2.732  0.00  0.00    -0.078 S 
BRANCH  24  25
ATOM     25  C   UNL     1      -0.063  -1.042   3.942  0.00  0.00    +0.173 C 
BRANCH  25  26
ATOM     26  C   UNL     1      -0.048  -0.465   5.335  0.00  0.00    +0.224 C 
ATOM     27  O   UNL     1      -0.043   0.737   5.493  0.00  0.00    -0.275 OA
ATOM     28  N   UNL     1      -0.041  -1.286   6.404  0.00  0.00    -0.310 N 
ATOM     29  H   UNL     1      -0.046  -2.248   6.277  0.00  0.00    +0.149 HD
BRANCH  28  30
ATOM     30  C   UNL     1      -0.027  -0.725   7.757  0.00  0.00    +0.141 C 
BRANCH  30  31
ATOM     31  C   UNL     1      -0.021  -1.846   8.765  0.00  0.00    -0.012 A 
ATOM     32  C   UNL     1      -1.195  -2.213   9.397  0.00  0.00    +0.006 A 
ATOM     33  C   UNL     1      -1.191  -3.244  10.318  0.00  0.00    +0.000 A 
ATOM     34  C   UNL     1      -0.012  -3.901  10.615  0.00  0.00    +0.001 A 
ATOM     35  C   UNL     1       1.163  -3.532   9.988  0.00  0.00    +0.020 A 
ATOM     36  C   UNL     1       1.159  -2.503   9.062  0.00  0.00    +0.046 A 
ATOM     37 CL   UNL     1       2.634  -2.038   8.274  0.00  0.00    -0.083 Cl
ENDBRANCH  30  31
ENDBRANCH  28  30
ENDBRANCH  25  26
ENDBRANCH  24  25
ENDBRANCH  11  24
TORSDOF 10
