REMARK  Name = ZINC53113124
REMARK  7 active torsions:
REMARK  status: ('A' for Active; 'I' for Inactive)
REMARK    1  A    between atoms: C_1  and  C_2
REMARK    2  A    between atoms: C_5  and  C_8
REMARK    3  A    between atoms: C_5  and  N_10
REMARK    4  A    between atoms: C_8  and  O_9
REMARK    5  A    between atoms: N_10  and  S_11
REMARK    6  A    between atoms: S_11  and  C_14
REMARK    7  A    between atoms: C_17  and  N_21
REMARK                            x       y       z     vdW  Elec       q    Type
REMARK                         _______ _______ _______ _____ _____    ______ ____
ROOT
ATOM      1  S   UNL     1      -1.075  -2.280   3.903  0.00  0.00    +0.062 S 
ATOM      2  O   UNL     1       0.315  -2.472   3.678  0.00  0.00    -0.153 OA
ATOM      3  O   UNL     1      -1.572  -1.339   4.845  0.00  0.00    -0.153 OA
ENDROOT
BRANCH   1   4
ATOM      4  C   UNL     1      -1.732  -3.849   4.363  0.00  0.00    +0.140 A 
ATOM      5  C   UNL     1      -0.881  -4.918   4.576  0.00  0.00    +0.033 A 
ATOM      6  C   UNL     1      -1.392  -6.148   4.937  0.00  0.00    +0.025 A 
ATOM      7  C   UNL     1      -2.764  -6.314   5.088  0.00  0.00    +0.027 A 
ATOM      8  C   UNL     1      -3.617  -5.239   4.875  0.00  0.00    +0.063 A 
ATOM      9  C   UNL     1      -3.099  -4.007   4.518  0.00  0.00    +0.151 A 
ATOM     10  F   UNL     1      -3.928  -2.959   4.315  0.00  0.00    -0.203 F 
BRANCH   7  11
ATOM     11  N   UNL     1      -3.283  -7.558   5.453  0.00  0.00    -0.358 N 
ATOM     12  H   UNL     1      -2.685  -8.307   5.602  0.00  0.00    +0.142 HD
ATOM     13  H   UNL     1      -4.240  -7.672   5.558  0.00  0.00    +0.142 HD
ENDBRANCH   7  11
ENDBRANCH   1   4
BRANCH   1  14
ATOM     14  N   UNL     1      -1.740  -1.881   2.440  0.00  0.00    -0.182 NA
ATOM     15  H   UNL     1      -2.530  -1.319   2.403  0.00  0.00    +0.149 HD
BRANCH  14  20
ATOM     16  C   UNL     1      -0.722   1.689  -0.224  0.00  0.00    +0.007 C 
ATOM     17  C   UNL     1      -0.650   0.161  -0.180  0.00  0.00    -0.014 C 
ATOM     18  C   UNL     1      -2.061  -0.413  -0.036  0.00  0.00    +0.005 C 
ATOM     19  C   UNL     1      -1.988  -1.940   0.007  0.00  0.00    +0.026 C 
ATOM     20  C   UNL     1      -1.136  -2.377   1.200  0.00  0.00    +0.063 C 
ATOM     21  C   UNL     1       0.275  -1.803   1.056  0.00  0.00    +0.026 C 
ATOM     22  C   UNL     1       0.202  -0.275   1.013  0.00  0.00    +0.005 C 
BRANCH  20  23
ATOM     23  C   UNL     1      -1.064  -3.904   1.244  0.00  0.00    +0.179 C 
BRANCH  23  24
ATOM     24  O   UNL     1      -0.136  -4.309   2.253  0.00  0.00    -0.393 OA
ATOM     25  H   UNL     1      -0.039  -5.267   2.336  0.00  0.00    +0.209 HD
ENDBRANCH  23  24
ENDBRANCH  20  23
ENDBRANCH  14  20
ENDBRANCH   1  14
TORSDOF 6
