REMARK  Name = ZINC02095792
REMARK  12 active torsions:
REMARK  status: ('A' for Active; 'I' for Inactive)
REMARK    1  A    between atoms: C_1  and  C_2
REMARK    2  A    between atoms: C_2  and  N_74
REMARK    3  A    between atoms: C_3  and  C_4
REMARK    4  A    between atoms: C_3  and  N_74
REMARK    5  A    between atoms: C_5  and  C_6
REMARK    6  A    between atoms: C_5  and  N_74
REMARK    7  A    between atoms: C_6  and  C_7
REMARK    8  A    between atoms: C_7  and  N_8
REMARK    9  A    between atoms: C_28  and  C_30
REMARK   10  A    between atoms: C_33  and  C_36
REMARK   11  A    between atoms: C_36  and  C_37
REMARK   12  A    between atoms: C_36  and  C_38
REMARK                            x       y       z     vdW  Elec       q    Type
REMARK                         _______ _______ _______ _____ _____    ______ ____
ROOT
ATOM      1  N   UNL     1      -1.808   6.541   0.349  0.00  0.00    -0.291 N 
ATOM      2  C   UNL     1      -0.716   6.559   1.308  0.00  0.00    +0.203 C 
ATOM      3  C   UNL     1       0.287   5.485   1.035  0.00  0.00    +0.234 C 
ATOM      4  O   UNL     1       1.257   5.420   1.759  0.00  0.00    -0.274 OA
ATOM      5  N   UNL     1       0.186   4.592   0.048  0.00  0.00    -0.276 N 
ATOM      6  C   UNL     1      -0.971   4.511  -0.843  0.00  0.00    +0.167 C 
ATOM      7  C   UNL     1      -1.932   5.634  -0.617  0.00  0.00    +0.237 C 
ATOM      8  O   UNL     1      -2.885   5.723  -1.361  0.00  0.00    -0.274 OA
ATOM      9  C   UNL     1      -1.684   3.170  -0.624  0.00  0.00    +0.069 C 
ATOM     10  C   UNL     1      -0.652   2.072  -0.574  0.00  0.00    -0.015 A 
ATOM     11  C   UNL     1      -0.850   0.645  -0.726  0.00  0.00    +0.003 A 
ATOM     12  C   UNL     1      -1.988  -0.134  -0.962  0.00  0.00    +0.010 A 
ATOM     13  C   UNL     1      -1.802  -1.491  -1.050  0.00  0.00    +0.001 A 
ATOM     14  C   UNL     1      -0.553  -2.074  -0.914  0.00  0.00    +0.002 A 
ATOM     15  C   UNL     1       0.589  -1.328  -0.681  0.00  0.00    +0.026 A 
ATOM     16  C   UNL     1       0.431   0.054  -0.587  0.00  0.00    +0.047 A 
ATOM     17  N   UNL     1       1.323   1.064  -0.370  0.00  0.00    -0.356 N 
ATOM     18  H   UNL     1       2.277   0.948  -0.239  0.00  0.00    +0.166 HD
ATOM     19  C   UNL     1       0.668   2.267  -0.365  0.00  0.00    +0.046 A 
ATOM     20  C   UNL     1       1.289   3.630  -0.164  0.00  0.00    +0.154 C 
ENDROOT
BRANCH  20  21
ATOM     21  C   UNL     1       2.079   4.019  -1.387  0.00  0.00    -0.021 A 
ATOM     22  C   UNL     1       3.275   3.384  -1.668  0.00  0.00    +0.006 A 
ATOM     23  C   UNL     1       3.997   3.737  -2.792  0.00  0.00    +0.004 A 
ATOM     24  C   UNL     1       3.528   4.731  -3.631  0.00  0.00    -0.045 A 
ATOM     25  C   UNL     1       2.335   5.369  -3.348  0.00  0.00    +0.004 A 
ATOM     26  C   UNL     1       1.611   5.013  -2.225  0.00  0.00    +0.006 A 
BRANCH  24  27
ATOM     27  C   UNL     1       4.318   5.119  -4.855  0.00  0.00    +0.013 C 
ATOM     28  C   UNL     1       5.702   5.614  -4.433  0.00  0.00    +0.012 C 
ATOM     29  C   UNL     1       4.468   3.903  -5.771  0.00  0.00    +0.012 C 
ENDBRANCH  24  27
ENDBRANCH  20  21
BRANCH   1  30
ATOM     30  C   UNL     1      -2.833   7.584   0.452  0.00  0.00    +0.106 C 
BRANCH  30  31
ATOM     31  C   UNL     1      -2.424   8.787  -0.400  0.00  0.00    +0.000 C 
BRANCH  31  32
ATOM     32  C   UNL     1      -3.494   9.875  -0.293  0.00  0.00    -0.077 C 
BRANCH  32  33
ATOM     33  N   UNL     1      -3.124  10.992  -1.188  0.00  0.00    +0.379 N 
ATOM     34  H   UNL     1      -2.115  11.165  -1.106  0.00  0.00    -0.082 HD
BRANCH  33  36
ATOM     35  C   UNL     1      -2.848  11.711  -3.509  0.00  0.00    -0.017 C 
ATOM     36  C   UNL     1      -3.440  10.643  -2.589  0.00  0.00    -0.082 C 
ENDBRANCH  33  36
BRANCH  33  37
ATOM     37  C   UNL     1      -3.854  12.216  -0.795  0.00  0.00    -0.082 C 
ATOM     38  C   UNL     1      -3.186  12.809   0.447  0.00  0.00    -0.017 C 
ENDBRANCH  33  37
ENDBRANCH  32  33
ENDBRANCH  31  32
ENDBRANCH  30  31
ENDBRANCH   1  30
TORSDOF 8
