REMARK  Name = ZINC02796750
REMARK  5 active torsions:
REMARK  status: ('A' for Active; 'I' for Inactive)
REMARK    1  A    between atoms: C_3  and  C_11
REMARK    2  A    between atoms: C_5  and  O_7
REMARK    3  A    between atoms: O_7  and  C_8
REMARK    4  A    between atoms: C_13  and  C_22
REMARK    5  A    between atoms: C_18  and  C_20
REMARK                            x       y       z     vdW  Elec       q    Type
REMARK                         _______ _______ _______ _____ _____    ______ ____
ROOT
ATOM      1  C   UNL     1      -0.076   5.329   0.032  0.00  0.00    +0.075 A 
ATOM      2  C   UNL     1      -1.312   6.015   0.042  0.00  0.00    +0.060 A 
ATOM      3  C   UNL     1      -1.320   7.367   0.054  0.00  0.00    +0.149 A 
ATOM      4  N   UNL     1      -0.131   8.043   0.048  0.00  0.00    -0.209 N 
ATOM      5  C   UNL     1       1.053   7.347   0.033  0.00  0.00    +0.158 A 
ATOM      6  N   UNL     1       1.057   6.008   0.025  0.00  0.00    -0.228 NA
ATOM      7  C   UNL     1       2.077   8.282   0.029  0.00  0.00    +0.089 A 
ATOM      8  C   UNL     1       1.490   9.552   0.042  0.00  0.00    +0.164 A 
ATOM      9  N   UNL     1       0.174   9.409   0.053  0.00  0.00    -0.154 NA
ENDROOT
BRANCH   1  12
ATOM     10  C   UNL     1      -1.220   1.748   0.017  0.00  0.00    +0.004 A 
ATOM     11  C   UNL     1      -1.246   3.128   0.031  0.00  0.00    +0.010 A 
ATOM     12  C   UNL     1      -0.051   3.848   0.023  0.00  0.00    +0.004 A 
ATOM     13  C   UNL     1       1.166   3.169   0.008  0.00  0.00    +0.056 A 
ATOM     14  C   UNL     1       1.182   1.784   0.000  0.00  0.00    +0.127 A 
ATOM     15  C   UNL     1      -0.013   1.076   0.008  0.00  0.00    +0.046 A 
BRANCH  14  16
ATOM     16  O   UNL     1       2.366   1.118  -0.015  0.00  0.00    -0.434 OA
BRANCH  16  17
ATOM     17  C   UNL     1       2.308  -0.309  -0.023  0.00  0.00    +0.541 C 
ATOM     18  F   UNL     1       1.641  -0.755   1.124  0.00  0.00    -0.166 F 
ATOM     19  F   UNL     1       1.619  -0.742  -1.161  0.00  0.00    -0.166 F 
ENDBRANCH  16  17
ENDBRANCH  14  16
ENDBRANCH   1  12
BRANCH   3  20
ATOM     20  C   UNL     1      -2.625   8.121   0.070  0.00  0.00    +0.434 C 
ATOM     21  F   UNL     1      -3.040   8.362  -1.244  0.00  0.00    -0.164 F 
ATOM     22  F   UNL     1      -3.594   7.361   0.734  0.00  0.00    -0.164 F 
ATOM     23  F   UNL     1      -2.451   9.339   0.736  0.00  0.00    -0.164 F 
ENDBRANCH   3  20
BRANCH   8  24
ATOM     24  C   UNL     1       2.195  10.799   0.043  0.00  0.00    +0.121 C 
ATOM     25  N   UNL     1       2.754  11.787   0.043  0.00  0.00    -0.189 NA
ENDBRANCH   8  24
TORSDOF 5
