REMARK  Name = ZINC08685398
REMARK  16 active torsions:
REMARK  status: ('A' for Active; 'I' for Inactive)
REMARK    1  A    between atoms: C_1  and  C_2
REMARK    2  A    between atoms: C_2  and  C_3
REMARK    3  A    between atoms: C_3  and  C_4
REMARK    4  A    between atoms: C_4  and  N_5
REMARK    5  A    between atoms: C_6  and  C_29
REMARK    6  A    between atoms: C_9  and  S_10
REMARK    7  A    between atoms: S_10  and  C_11
REMARK    8  A    between atoms: C_11  and  C_12
REMARK    9  A    between atoms: N_14  and  C_15
REMARK   10  A    between atoms: C_17  and  C_25
REMARK   11  A    between atoms: C_19  and  C_21
REMARK   12  A    between atoms: C_29  and  C_31
REMARK   13  A    between atoms: C_29  and  N_33
REMARK   14  A    between atoms: C_31  and  C_32
REMARK   15  A    between atoms: N_33  and  C_34
REMARK   16  A    between atoms: N_33  and  C_35
REMARK                            x       y       z     vdW  Elec       q    Type
REMARK                         _______ _______ _______ _____ _____    ______ ____
ROOT
ATOM      1  C   UNL     1      -4.478  -4.377  -3.468  0.00  0.00    +0.173 C 
ENDROOT
BRANCH   1   2
ATOM      2  C   UNL     1      -4.205  -4.510  -4.944  0.00  0.00    +0.227 C 
ATOM      3  O   UNL     1      -3.148  -4.128  -5.402  0.00  0.00    -0.275 OA
ATOM      4  N   UNL     1      -5.134  -5.052  -5.755  0.00  0.00    -0.285 N 
ATOM      5  H   UNL     1      -5.954  -5.412  -5.381  0.00  0.00    +0.155 HD
BRANCH   4   6
ATOM      6  C   UNL     1      -4.917  -5.096  -7.137  0.00  0.00    +0.034 A 
ATOM      7  C   UNL     1      -5.981  -4.931  -8.014  0.00  0.00    +0.035 A 
ATOM      8  C   UNL     1      -5.763  -4.975  -9.377  0.00  0.00    +0.057 A 
ATOM      9  C   UNL     1      -4.487  -5.183  -9.869  0.00  0.00    +0.024 A 
ATOM     10  C   UNL     1      -3.426  -5.347  -8.998  0.00  0.00    +0.057 A 
ATOM     11  C   UNL     1      -3.636  -5.298  -7.634  0.00  0.00    +0.035 A 
BRANCH  10  12
ATOM     12  C   UNL     1      -2.037  -5.574  -9.538  0.00  0.00    +0.417 C 
ATOM     13  F   UNL     1      -1.399  -4.341  -9.714  0.00  0.00    -0.166 F 
ATOM     14  F   UNL     1      -1.307  -6.353  -8.634  0.00  0.00    -0.166 F 
ATOM     15  F   UNL     1      -2.117  -6.237 -10.767  0.00  0.00    -0.166 F 
ENDBRANCH  10  12
BRANCH   8  16
ATOM     16  C   UNL     1      -6.917  -4.797 -10.330  0.00  0.00    +0.417 C 
ATOM     17  F   UNL     1      -8.096  -4.604  -9.603  0.00  0.00    -0.166 F 
ATOM     18  F   UNL     1      -6.683  -3.683 -11.143  0.00  0.00    -0.166 F 
ATOM     19  F   UNL     1      -7.043  -5.939 -11.128  0.00  0.00    -0.166 F 
ENDBRANCH   8  16
ENDBRANCH   4   6
ENDBRANCH   1   2
BRANCH   1  20
ATOM     20  S   UNL     1      -3.047  -3.616  -2.654  0.00  0.00    -0.077 S 
BRANCH  20  25
ATOM     21  N   UNL     1      -2.767  -3.030   0.068  0.00  0.00    -0.307 N 
ATOM     22  C   UNL     1      -3.537  -3.167   1.190  0.00  0.00    +0.120 A 
ATOM     23  N   UNL     1      -4.659  -3.719   0.826  0.00  0.00    -0.135 NA
ATOM     24  N   UNL     1      -4.652  -3.939  -0.441  0.00  0.00    -0.123 NA
ATOM     25  C   UNL     1      -3.516  -3.530  -0.958  0.00  0.00    +0.192 A 
BRANCH  21  26
ATOM     26  C   UNL     1      -1.421  -2.459  -0.017  0.00  0.00    +0.125 C 
BRANCH  26  27
ATOM     27  C   UNL     1      -1.520  -0.953  -0.270  0.00  0.00    +0.021 C 
BRANCH  27  29
ATOM     28  C   UNL     1      -0.213   1.149  -0.611  0.00  0.00    +0.004 C 
ATOM     29  C   UNL     1      -0.114  -0.357  -0.358  0.00  0.00    -0.002 C 
ENDBRANCH  27  29
ENDBRANCH  26  27
ENDBRANCH  21  26
BRANCH  22  30
ATOM     30  C   UNL     1      -3.157  -2.756   2.589  0.00  0.00    +0.000 C 
BRANCH  30  31
ATOM     31  N   UNL     1      -3.514  -3.827   3.529  0.00  0.00    +0.383 N 
ATOM     32  C   UNL     1      -2.878  -5.082   3.105  0.00  0.00    -0.096 C 
ATOM     33  C   UNL     1      -3.049  -3.473   4.876  0.00  0.00    -0.096 C 
ATOM     34  H   UNL     1      -4.516  -3.945   3.539  0.00  0.00    -0.082 HD
ENDBRANCH  30  31
BRANCH  30  35
ATOM     35  C   UNL     1      -3.906  -1.476   2.966  0.00  0.00    -0.011 C 
ATOM     36  C   UNL     1      -5.410  -1.754   2.988  0.00  0.00    +0.002 C 
ENDBRANCH  30  35
ENDBRANCH  22  30
ENDBRANCH  20  25
ENDBRANCH   1  20
TORSDOF 12
