REMARK  Name = ZINC24139929
REMARK  12 active torsions:
REMARK  status: ('A' for Active; 'I' for Inactive)
REMARK    1  A    between atoms: C_1  and  C_2
REMARK    2  A    between atoms: C_2  and  N_3
REMARK    3  A    between atoms: N_3  and  C_4
REMARK    4  A    between atoms: N_3  and  C_6
REMARK    5  A    between atoms: C_4  and  C_5
REMARK    6  A    between atoms: C_9  and  C_12
REMARK    7  A    between atoms: C_15  and  S_17
REMARK    8  A    between atoms: S_17  and  C_18
REMARK    9  A    between atoms: C_18  and  C_19
REMARK   10  A    between atoms: N_21  and  C_22
REMARK   11  A    between atoms: N_26  and  C_28
REMARK   12  A    between atoms: C_28  and  C_29
REMARK                            x       y       z     vdW  Elec       q    Type
REMARK                         _______ _______ _______ _____ _____    ______ ____
ROOT
ATOM      1  C   UNL     1       1.789  -0.294  -0.016  0.00  0.00    +0.174 C 
ENDROOT
BRANCH   1   2
ATOM      2  C   UNL     1       2.057  -1.777  -0.026  0.00  0.00    +0.224 C 
ATOM      3  O   UNL     1       1.131  -2.561  -0.022  0.00  0.00    -0.275 OA
ATOM      4  N   UNL     1       3.325  -2.232  -0.040  0.00  0.00    -0.314 N 
ATOM      5  H   UNL     1       4.165  -1.522  -0.044  0.00  0.00    +0.149 HD
BRANCH   4   6
ATOM      6  C   UNL     1       3.586  -3.674  -0.050  0.00  0.00    +0.055 C 
ATOM      7  C   UNL     1       3.613  -4.204  -1.502  0.00  0.00    +0.002 C 
ATOM      8  C   UNL     1       5.129  -4.224  -1.833  0.00  0.00    -0.077 C 
ATOM      9  N   UNL     1       5.750  -4.652  -0.553  0.00  0.00    +0.384 N 
ATOM     10  C   UNL     1       4.988  -3.968   0.514  0.00  0.00    -0.056 C 
ATOM     11  H   UNL     1       5.723  -5.745  -0.430  0.00  0.00    -0.081 HD
BRANCH   9  12
ATOM     12  C   UNL     1       7.171  -4.280  -0.507  0.00  0.00    -0.043 C 
BRANCH  12  13
ATOM     13  C   UNL     1       7.954  -5.170  -1.437  0.00  0.00    -0.064 A 
ATOM     14  C   UNL     1       8.493  -6.354  -0.968  0.00  0.00    +0.002 A 
ATOM     15  C   UNL     1       9.207  -7.174  -1.822  0.00  0.00    +0.000 A 
ATOM     16  C   UNL     1       9.391  -6.805  -3.141  0.00  0.00    +0.000 A 
ATOM     17  C   UNL     1       8.857  -5.618  -3.608  0.00  0.00    +0.000 A 
ATOM     18  C   UNL     1       8.138  -4.801  -2.756  0.00  0.00    +0.002 A 
ENDBRANCH  12  13
ENDBRANCH   9  12
ENDBRANCH   4   6
ENDBRANCH   1   2
BRANCH   1  19
ATOM     19  S   UNL     1       0.002  -0.004   0.002  0.00  0.00    -0.056 S 
BRANCH  19  23
ATOM     20  C   UNL     1      -0.674   3.816   0.028  0.00  0.00    +0.249 A 
ATOM     21  N   UNL     1       0.636   3.775   0.015  0.00  0.00    -0.106 NA
ATOM     22  N   UNL     1       1.026   2.549   0.006  0.00  0.00    -0.101 NA
ATOM     23  C   UNL     1      -0.022   1.758   0.012  0.00  0.00    +0.278 A 
ATOM     24  O   UNL     1      -1.118   2.540   0.021  0.00  0.00    -0.411 OA
BRANCH  20  28
ATOM     25  C   UNL     1      -3.080   7.318   0.066  0.00  0.00    +0.030 A 
ATOM     26  C   UNL     1      -1.694   7.428   0.054  0.00  0.00    +0.024 A 
ATOM     27  C   UNL     1      -0.910   6.295   0.042  0.00  0.00    +0.015 A 
ATOM     28  C   UNL     1      -1.510   5.034   0.041  0.00  0.00    +0.039 A 
ATOM     29  C   UNL     1      -2.903   4.926   0.047  0.00  0.00    +0.015 A 
ATOM     30  C   UNL     1      -3.680   6.063   0.065  0.00  0.00    +0.024 A 
BRANCH  25  31
ATOM     31  N   UNL     1      -3.870   8.468   0.079  0.00  0.00    -0.330 N 
BRANCH  31  33
ATOM     32  C   UNL     1      -5.825   8.306   1.538  0.00  0.00    +0.024 C 
ATOM     33  C   UNL     1      -5.330   8.353   0.091  0.00  0.00    +0.102 C 
ENDBRANCH  31  33
BRANCH  31  34
ATOM     34  C   UNL     1      -3.239   9.790   0.079  0.00  0.00    +0.102 C 
ATOM     35  C   UNL     1      -3.033  10.257  -1.364  0.00  0.00    +0.024 C 
ENDBRANCH  31  34
ENDBRANCH  25  31
ENDBRANCH  20  28
ENDBRANCH  19  23
ENDBRANCH   1  19
TORSDOF 10
