REMARK  Name = ZINC11614184
REMARK  8 active torsions:
REMARK  status: ('A' for Active; 'I' for Inactive)
REMARK    1  A    between atoms: C_1  and  C_2
REMARK    2  A    between atoms: C_2  and  O_3
REMARK    3  A    between atoms: O_3  and  C_4
REMARK    4  A    between atoms: C_6  and  C_25
REMARK    5  A    between atoms: C_7  and  C_24
REMARK    6  A    between atoms: C_9  and  S_10
REMARK    7  A    between atoms: S_10  and  N_13
REMARK    8  A    between atoms: C_21  and  C_23
REMARK                            x       y       z     vdW  Elec       q    Type
REMARK                         _______ _______ _______ _____ _____    ______ ____
ROOT
ATOM      1  S   UNL     1      -2.261   2.273   3.757  0.00  0.00    +0.078 S 
ATOM      2  O   UNL     1      -3.001   1.467   2.851  0.00  0.00    -0.150 OA
ATOM      3  O   UNL     1      -2.638   2.431   5.118  0.00  0.00    -0.150 OA
ENDROOT
BRANCH   1   4
ATOM      4  N   UNL     1      -2.205   3.793   3.102  0.00  0.00    -0.200 N 
ATOM      5  C   UNL     1      -2.493   4.101   1.771  0.00  0.00    +0.055 A 
ATOM      6  C   UNL     1      -2.877   3.254   0.730  0.00  0.00    +0.025 A 
ATOM      7  C   UNL     1      -3.118   3.764  -0.528  0.00  0.00    +0.002 A 
ATOM      8  C   UNL     1      -2.982   5.119  -0.768  0.00  0.00    +0.000 A 
ATOM      9  C   UNL     1      -2.602   5.964   0.258  0.00  0.00    +0.005 A 
ATOM     10  C   UNL     1      -2.360   5.458   1.520  0.00  0.00    -0.023 A 
ATOM     11  C   UNL     1      -1.940   6.145   2.801  0.00  0.00    +0.061 C 
ATOM     12  C   UNL     1      -1.851   5.011   3.836  0.00  0.00    +0.099 C 
ATOM     13  C   UNL     1      -0.426   4.906   4.383  0.00  0.00    +0.030 C 
ENDBRANCH   1   4
BRANCH   1  19
ATOM     14  C   UNL     1       0.030   1.384   2.560  0.00  0.00    +0.147 A 
ATOM     15  C   UNL     1       1.325   0.885   2.566  0.00  0.00    +0.051 A 
ATOM     16  C   UNL     1       1.973   0.661   3.765  0.00  0.00    -0.044 A 
ATOM     17  C   UNL     1       1.328   0.923   4.960  0.00  0.00    -0.045 A 
ATOM     18  C   UNL     1       0.036   1.415   4.957  0.00  0.00    +0.036 A 
ATOM     19  C   UNL     1      -0.614   1.646   3.760  0.00  0.00    +0.150 A 
ATOM     20  C   UNL     1       2.034   0.673   6.267  0.00  0.00    +0.044 C 
ATOM     21  C   UNL     1       3.381   0.124   3.772  0.00  0.00    +0.044 C 
BRANCH  14  22
ATOM     22  O   UNL     1      -0.607   1.610   1.381  0.00  0.00    -0.490 OA
BRANCH  22  24
ATOM     23  C   UNL     1      -0.741   1.641  -1.032  0.00  0.00    +0.048 C 
ATOM     24  C   UNL     1       0.068   1.200   0.190  0.00  0.00    +0.226 C 
ENDBRANCH  22  24
ENDBRANCH  14  22
ENDBRANCH   1  19
TORSDOF 4
