REMARK  Name = ZINC12660237
REMARK  4 active torsions:
REMARK  status: ('A' for Active; 'I' for Inactive)
REMARK    1  A    between atoms: C_1  and  C_2
REMARK    2  A    between atoms: N_6  and  N_7
REMARK    3  A    between atoms: C_21  and  C_32
REMARK    4  A    between atoms: N_27  and  N_28
REMARK                            x       y       z     vdW  Elec       q    Type
REMARK                         _______ _______ _______ _____ _____    ______ ____
ROOT
ATOM      1  C   UNL     1       1.401  -1.894   0.566  0.00  0.00    +0.016 C 
ATOM      2  C   UNL     1       0.822  -0.596   1.131  0.00  0.00    -0.007 C 
ATOM      3  C   UNL     1       0.002  -0.004   0.002  0.00  0.00    +0.017 C 
ATOM      4  C   UNL     1      -0.019   1.520   0.010  0.00  0.00    +0.058 C 
ATOM      5  C   UNL     1       1.409   2.024  -0.001  0.00  0.00    +0.059 C 
ATOM      6  N   UNL     1       1.794   2.977  -0.799  0.00  0.00    -0.184 NA
ATOM      7  C   UNL     1       2.343   1.379   0.939  0.00  0.00    +0.024 C 
ATOM      8  C   UNL     1       2.009   0.238   1.520  0.00  0.00    -0.062 C 
ATOM      9  C   UNL     1       2.856  -0.265   2.677  0.00  0.00    +0.031 C 
ATOM     10  C   UNL     1       1.922  -0.369   3.888  0.00  0.00    +0.008 C 
ATOM     11  C   UNL     1       0.757  -1.307   3.581  0.00  0.00    -0.003 C 
ATOM     12  C   UNL     1      -0.022  -0.896   2.353  0.00  0.00    +0.002 C 
ATOM     13  C   UNL     1      -1.180  -1.841   2.084  0.00  0.00    +0.005 C 
ATOM     14  C   UNL     1      -0.819  -3.307   2.106  0.00  0.00    +0.013 C 
ATOM     15  C   UNL     1       0.132  -3.744   3.179  0.00  0.00    +0.011 C 
ATOM     16  C   UNL     1       1.197  -2.753   3.612  0.00  0.00    +0.004 C 
ATOM     17  C   UNL     1       1.468  -3.138   5.098  0.00  0.00    +0.010 C 
ATOM     18  C   UNL     1       0.056  -3.532   5.601  0.00  0.00    +0.053 C 
ATOM     19  C   UNL     1      -0.585  -4.236   4.416  0.00  0.00    +0.043 C 
ATOM     20  N   UNL     1      -1.542  -5.085   4.457  0.00  0.00    -0.187 NA
ATOM     21  C   UNL     1       0.880  -4.963   2.622  0.00  0.00    +0.018 C 
ENDROOT
BRANCH   6  22
ATOM     22  N   UNL     1       3.124   3.415  -0.778  0.00  0.00    -0.191 N 
ATOM     23  C   UNL     1       3.522   4.402  -1.605  0.00  0.00    +0.317 C 
ATOM     24  O   UNL     1       4.677   4.782  -1.587  0.00  0.00    -0.251 OA
ATOM     25  N   UNL     1       2.640   4.968  -2.452  0.00  0.00    -0.312 N 
ATOM     26  H   UNL     1       3.759   3.007  -0.168  0.00  0.00    +0.179 HD
ATOM     27  H   UNL     1       1.719   4.665  -2.467  0.00  0.00    +0.147 HD
ATOM     28  H   UNL     1       2.927   5.678  -3.047  0.00  0.00    +0.147 HD
ENDBRANCH   6  22
BRANCH  20  29
ATOM     29  N   UNL     1      -2.108  -5.444   5.687  0.00  0.00    -0.191 N 
ATOM     30  C   UNL     1      -3.116  -6.338   5.729  0.00  0.00    +0.317 C 
ATOM     31  O   UNL     1      -3.608  -6.649   6.797  0.00  0.00    -0.251 OA
ATOM     32  N   UNL     1      -3.580  -6.886   4.589  0.00  0.00    -0.312 N 
ATOM     33  H   UNL     1      -1.775  -5.050   6.508  0.00  0.00    +0.179 HD
ATOM     34  H   UNL     1      -3.188  -6.637   3.737  0.00  0.00    +0.147 HD
ATOM     35  H   UNL     1      -4.306  -7.529   4.619  0.00  0.00    +0.147 HD
ENDBRANCH  20  29
TORSDOF 2
