REMARK  Name = ZINC09185855
REMARK  14 active torsions:
REMARK  status: ('A' for Active; 'I' for Inactive)
REMARK    1  A    between atoms: C_1  and  C_2
REMARK    2  A    between atoms: C_3  and  C_33
REMARK    3  A    between atoms: C_4  and  C_23
REMARK    4  A    between atoms: C_10  and  C_11
REMARK    5  A    between atoms: C_14  and  N_17
REMARK    6  A    between atoms: N_17  and  C_18
REMARK    7  A    between atoms: N_17  and  C_19
REMARK    8  A    between atoms: C_26  and  O_31
REMARK    9  A    between atoms: C_27  and  O_29
REMARK   10  A    between atoms: O_29  and  C_30
REMARK   11  A    between atoms: O_31  and  C_32
REMARK   12  A    between atoms: C_33  and  O_35
REMARK   13  A    between atoms: O_35  and  C_36
REMARK   14  A    between atoms: C_36  and  C_37
REMARK                            x       y       z     vdW  Elec       q    Type
REMARK                         _______ _______ _______ _____ _____    ______ ____
ROOT
ATOM      1  C   UNL     1       5.179   2.098   6.072  0.00  0.00    +0.066 C 
ATOM      2  C   UNL     1       4.037   1.115   6.085  0.00  0.00    +0.053 C 
ATOM      3  C   UNL     1       2.808   1.497   5.625  0.00  0.00    +0.085 C 
ATOM      4  C   UNL     1       1.689   0.482   5.654  0.00  0.00    +0.162 C 
ATOM      5  N   UNL     1       2.013  -0.871   6.187  0.00  0.00    -0.275 N 
ATOM      6  C   UNL     1       1.162  -1.900   6.292  0.00  0.00    +0.268 A 
ATOM      7  O   UNL     1       0.001  -1.791   5.941  0.00  0.00    -0.266 OA
ATOM      8  C   UNL     1       1.670  -3.162   6.845  0.00  0.00    +0.081 A 
ATOM      9  C   UNL     1       1.020  -4.337   7.053  0.00  0.00    +0.028 C 
ATOM     10  S   UNL     1       3.374  -2.734   7.168  0.00  0.00    -0.046 S 
ATOM     11  C   UNL     1       3.314  -1.047   6.598  0.00  0.00    +0.178 A 
ATOM     12  N   UNL     1       4.233  -0.115   6.542  0.00  0.00    -0.228 NA
ENDROOT
BRANCH   9  13
ATOM     13  C   UNL     1      -0.432  -4.417   6.860  0.00  0.00    -0.024 A 
ATOM     14  C   UNL     1      -1.254  -3.355   7.260  0.00  0.00    +0.010 A 
ATOM     15  C   UNL     1      -2.610  -3.433   7.073  0.00  0.00    +0.023 A 
ATOM     16  C   UNL     1      -3.171  -4.568   6.495  0.00  0.00    +0.029 A 
ATOM     17  C   UNL     1      -2.359  -5.628   6.100  0.00  0.00    +0.023 A 
ATOM     18  C   UNL     1      -1.002  -5.558   6.279  0.00  0.00    +0.010 A 
BRANCH  16  19
ATOM     19  N   UNL     1      -4.549  -4.645   6.313  0.00  0.00    -0.336 N 
ATOM     20  C   UNL     1      -5.142  -5.838   5.705  0.00  0.00    +0.129 C 
ATOM     21  C   UNL     1      -5.405  -3.531   6.728  0.00  0.00    +0.129 C 
ENDBRANCH  16  19
ENDBRANCH   9  13
BRANCH   4  22
ATOM     22  C   UNL     1       1.177   0.316   4.247  0.00  0.00    -0.016 A 
ATOM     23  C   UNL     1       0.006   0.942   3.861  0.00  0.00    +0.010 A 
ATOM     24  C   UNL     1      -0.465   0.798   2.569  0.00  0.00    +0.050 A 
ATOM     25  C   UNL     1       0.230   0.015   1.661  0.00  0.00    +0.162 A 
ATOM     26  C   UNL     1       1.408  -0.616   2.050  0.00  0.00    +0.162 A 
ATOM     27  C   UNL     1       1.878  -0.462   3.345  0.00  0.00    +0.055 A 
BRANCH  26  28
ATOM     28  O   UNL     1       2.097  -1.381   1.162  0.00  0.00    -0.491 OA
ATOM     29  C   UNL     1       3.357  -1.900   1.593  0.00  0.00    +0.277 C 
ENDBRANCH  26  28
BRANCH  25  30
ATOM     30  O   UNL     1      -0.235  -0.133   0.392  0.00  0.00    -0.491 OA
ATOM     31  C   UNL     1      -1.450   0.543   0.064  0.00  0.00    +0.277 C 
ENDBRANCH  25  30
ENDBRANCH   4  22
BRANCH   3  32
ATOM     32  C   UNL     1       2.592   2.797   5.138  0.00  0.00    +0.340 C 
ATOM     33  O   UNL     1       3.527   3.570   5.029  0.00  0.00    -0.245 OA
BRANCH  32  34
ATOM     34  O   UNL     1       1.347   3.190   4.792  0.00  0.00    -0.457 OA
BRANCH  34  35
ATOM     35  C   UNL     1       1.216   4.486   4.203  0.00  0.00    +0.259 C 
BRANCH  35  36
ATOM     36  C   UNL     1      -0.243   4.798   3.997  0.00  0.00    +0.006 C 
ATOM     37  C   UNL     1      -0.741   5.926   4.441  0.00  0.00    +0.007 C 
ENDBRANCH  35  36
ENDBRANCH  34  35
ENDBRANCH  32  34
ENDBRANCH   3  32
TORSDOF 9
