REMARK  Name = ZINC34756228
REMARK  5 active torsions:
REMARK  status: ('A' for Active; 'I' for Inactive)
REMARK    1  A    between atoms: C_4  and  C_7
REMARK    2  A    between atoms: C_7  and  N_8
REMARK    3  A    between atoms: C_21  and  S_23
REMARK    4  A    between atoms: S_23  and  C_24
REMARK    5  A    between atoms: C_24  and  C_25
REMARK                            x       y       z     vdW  Elec       q    Type
REMARK                         _______ _______ _______ _____ _____    ______ ____
ROOT
ATOM      1  N   UNL     1       3.395  -0.508   2.349  0.00  0.00    +0.384 N 
ATOM      2  C   UNL     1       3.627  -0.469   3.798  0.00  0.00    -0.059 C 
ATOM      3  C   UNL     1       4.979  -1.115   4.116  0.00  0.00    +0.088 C 
ATOM      4  N   UNL     1       4.998  -2.466   3.534  0.00  0.00    -0.318 N 
ATOM      5  C   UNL     1       4.618  -2.618   2.121  0.00  0.00    +0.088 C 
ATOM      6  C   UNL     1       3.282  -1.901   1.898  0.00  0.00    -0.059 C 
ATOM      7  C   UNL     1       5.364  -3.562   4.294  0.00  0.00    +0.134 A 
ATOM      8  C   UNL     1       6.702  -4.045   4.263  0.00  0.00    +0.051 A 
ATOM      9  C   UNL     1       7.843  -3.534   3.499  0.00  0.00    -0.025 A 
ATOM     10  C   UNL     1       9.017  -4.177   3.648  0.00  0.00    -0.004 A 
ATOM     11  S   UNL     1       8.685  -5.485   4.798  0.00  0.00    -0.073 S 
ATOM     12  C   UNL     1       6.963  -5.165   5.076  0.00  0.00    +0.115 A 
ATOM     13  N   UNL     1       6.019  -5.721   5.812  0.00  0.00    -0.215 NA
ATOM     14  C   UNL     1       4.788  -5.228   5.801  0.00  0.00    +0.191 A 
ATOM     15  N   UNL     1       4.475  -4.170   5.061  0.00  0.00    -0.206 NA
ATOM     16  C   UNL     1      10.320  -3.854   2.982  0.00  0.00    +0.043 C 
ATOM     17  C   UNL     1      10.043  -2.902   1.810  0.00  0.00    +0.005 C 
ATOM     18  C   UNL     1       9.127  -1.777   2.299  0.00  0.00    +0.005 C 
ATOM     19  C   UNL     1       7.726  -2.328   2.570  0.00  0.00    +0.037 C 
ATOM     20  H   UNL     1       4.167  -0.063   1.875  0.00  0.00    -0.081 HD
ENDROOT
BRANCH   1  21
ATOM     21  C   UNL     1       2.151   0.208   2.034  0.00  0.00    -0.043 C 
BRANCH  21  25
ATOM     22  C   UNL     1       2.596   4.340   3.025  0.00  0.00    +0.000 A 
ATOM     23  C   UNL     1       2.932   3.892   1.761  0.00  0.00    +0.000 A 
ATOM     24  C   UNL     1       2.788   2.555   1.441  0.00  0.00    +0.002 A 
ATOM     25  C   UNL     1       2.309   1.666   2.384  0.00  0.00    -0.064 A 
ATOM     26  C   UNL     1       1.974   2.113   3.649  0.00  0.00    +0.002 A 
ATOM     27  C   UNL     1       2.117   3.450   3.969  0.00  0.00    +0.000 A 
ENDBRANCH  21  25
ENDBRANCH   1  21
BRANCH  14  28
ATOM     28  S   UNL     1       3.544  -5.988   6.792  0.00  0.00    -0.081 S 
BRANCH  28  29
ATOM     29  C   UNL     1       4.411  -7.354   7.613  0.00  0.00    +0.112 C 
BRANCH  29  30
ATOM     30  C   UNL     1       3.448  -8.096   8.503  0.00  0.00    -0.037 A 
ATOM     31  C   UNL     1       3.284  -7.708   9.820  0.00  0.00    +0.004 A 
ATOM     32  C   UNL     1       2.401  -8.389  10.636  0.00  0.00    +0.000 A 
ATOM     33  C   UNL     1       1.682  -9.459  10.137  0.00  0.00    +0.000 A 
ATOM     34  C   UNL     1       1.845  -9.846   8.820  0.00  0.00    +0.000 A 
ATOM     35  C   UNL     1       2.725  -9.162   8.002  0.00  0.00    +0.004 A 
ENDBRANCH  29  30
ENDBRANCH  28  29
ENDBRANCH  14  28
TORSDOF 5
