REMARK  Name = ZINC62405307
REMARK  7 active torsions:
REMARK  status: ('A' for Active; 'I' for Inactive)
REMARK    1  A    between atoms: C_2  and  C_3
REMARK    2  A    between atoms: C_3  and  N_4
REMARK    3  A    between atoms: N_4  and  C_5
REMARK    4  A    between atoms: C_5  and  C_6
REMARK    5  A    between atoms: N_15  and  C_16
REMARK    6  A    between atoms: C_21  and  C_22
REMARK    7  A    between atoms: C_22  and  N_23
REMARK                            x       y       z     vdW  Elec       q    Type
REMARK                         _______ _______ _______ _____ _____    ______ ____
ROOT
ATOM      1  N   UNL     1       1.362   1.959  -0.000  0.00  0.00    -0.270 N 
ATOM      2  C   UNL     1       2.001   2.198   1.162  0.00  0.00    +0.307 C 
ATOM      3  O   UNL     1       3.139   2.626   1.153  0.00  0.00    -0.252 OA
ATOM      4  N   UNL     1       1.379   1.962   2.334  0.00  0.00    -0.269 N 
ATOM      5  H   UNL     1       0.445   1.699   2.343  0.00  0.00    +0.156 HD
ENDROOT
BRANCH   4   6
ATOM      6  C   UNL     1       2.080   2.098   3.538  0.00  0.00    +0.040 A 
ATOM      7  C   UNL     1       3.462   1.961   3.558  0.00  0.00    +0.024 A 
ATOM      8  C   UNL     1       4.150   2.096   4.747  0.00  0.00    +0.002 A 
ATOM      9  C   UNL     1       3.465   2.365   5.918  0.00  0.00    +0.000 A 
ATOM     10  C   UNL     1       2.089   2.501   5.901  0.00  0.00    +0.007 A 
ATOM     11  C   UNL     1       1.395   2.374   4.714  0.00  0.00    -0.005 A 
BRANCH  11  12
ATOM     12  C   UNL     1      -0.104   2.528   4.696  0.00  0.00    +0.182 C 
BRANCH  12  13
ATOM     13  N   UNL     1      -0.732   1.210   4.806  0.00  0.00    -0.248 N 
ATOM     14  C   UNL     1      -1.642   0.824   5.717  0.00  0.00    +0.219 A 
ATOM     15  N   UNL     1      -1.953  -0.424   5.478  0.00  0.00    -0.223 NA
ATOM     16  C   UNL     1      -1.265  -0.867   4.426  0.00  0.00    +0.245 A 
ATOM     17  N   UNL     1      -0.507   0.099   3.977  0.00  0.00    -0.158 NA
ENDBRANCH  12  13
ENDBRANCH  11  12
ENDBRANCH   4   6
BRANCH   1  18
ATOM     18  C   UNL     1      -0.009   1.443   0.010  0.00  0.00    +0.198 C 
BRANCH  18  20
ATOM     19  C   UNL     1       0.043  -1.202   0.014  0.00  0.00    +0.005 C 
ATOM     20  C   UNL     1       0.020  -0.029   0.012  0.00  0.00    -0.086 C 
ENDBRANCH  18  20
ENDBRANCH   1  18
BRANCH   1  21
ATOM     21  C   UNL     1       2.038   2.215  -1.274  0.00  0.00    +0.145 C 
BRANCH  21  22
ATOM     22  C   UNL     1       1.770   3.632  -1.710  0.00  0.00    -0.030 A 
ATOM     23  C   UNL     1       0.669   3.917  -2.495  0.00  0.00    +0.008 A 
ATOM     24  C   UNL     1       0.422   5.217  -2.895  0.00  0.00    +0.038 A 
ATOM     25  C   UNL     1       1.277   6.234  -2.508  0.00  0.00    +0.123 A 
ATOM     26  C   UNL     1       2.380   5.948  -1.721  0.00  0.00    +0.038 A 
ATOM     27  C   UNL     1       2.622   4.648  -1.318  0.00  0.00    +0.008 A 
ATOM     28  F   UNL     1       1.037   7.505  -2.898  0.00  0.00    -0.205 F 
ENDBRANCH  21  22
ENDBRANCH   1  21
TORSDOF 7
