REMARK  Name = ZINC22343864
REMARK  14 active torsions:
REMARK  status: ('A' for Active; 'I' for Inactive)
REMARK    1  A    between atoms: C_1  and  C_2
REMARK    2  A    between atoms: C_5  and  N_8
REMARK    3  A    between atoms: N_8  and  C_9
REMARK    4  A    between atoms: N_8  and  S_26
REMARK    5  A    between atoms: C_9  and  C_10
REMARK    6  A    between atoms: N_12  and  C_13
REMARK    7  A    between atoms: C_13  and  C_14
REMARK    8  A    between atoms: C_17  and  O_24
REMARK    9  A    between atoms: C_18  and  O_22
REMARK   10  A    between atoms: C_19  and  O_20
REMARK   11  A    between atoms: O_20  and  C_21
REMARK   12  A    between atoms: O_22  and  C_23
REMARK   13  A    between atoms: O_24  and  C_25
REMARK   14  A    between atoms: S_26  and  C_29
REMARK                            x       y       z     vdW  Elec       q    Type
REMARK                         _______ _______ _______ _____ _____    ______ ____
ROOT
ATOM      1  N   UNL     1       1.084  -2.924  -1.600  0.00  0.00    -0.194 N 
ENDROOT
BRANCH   1   6
ATOM      2  C   UNL     1       5.721  -4.095  -4.648  0.00  0.00    +0.044 C 
ATOM      3  C   UNL     1       4.489  -3.784  -3.838  0.00  0.00    -0.050 A 
ATOM      4  C   UNL     1       3.259  -4.277  -4.235  0.00  0.00    +0.005 A 
ATOM      5  C   UNL     1       2.128  -3.994  -3.494  0.00  0.00    +0.025 A 
ATOM      6  C   UNL     1       2.226  -3.213  -2.350  0.00  0.00    +0.052 A 
ATOM      7  C   UNL     1       3.462  -2.714  -1.958  0.00  0.00    +0.025 A 
ATOM      8  C   UNL     1       4.590  -3.005  -2.699  0.00  0.00    +0.005 A 
ENDBRANCH   1   6
BRANCH   1   9
ATOM      9  S   UNL     1       0.987  -3.410  -0.020  0.00  0.00    +0.075 S 
ATOM     10  O   UNL     1       1.836  -4.543   0.110  0.00  0.00    -0.150 OA
ATOM     11  O   UNL     1      -0.395  -3.453   0.308  0.00  0.00    -0.150 OA
BRANCH   9  12
ATOM     12  C   UNL     1       1.699  -2.132   0.963  0.00  0.00    +0.109 A 
ATOM     13  C   UNL     1       0.929  -1.053   1.354  0.00  0.00    +0.031 A 
ATOM     14  C   UNL     1       1.486  -0.050   2.125  0.00  0.00    +0.040 A 
ATOM     15  C   UNL     1       2.816  -0.127   2.505  0.00  0.00    +0.124 A 
ATOM     16  C   UNL     1       3.585  -1.209   2.113  0.00  0.00    +0.040 A 
ATOM     17  C   UNL     1       3.026  -2.210   1.342  0.00  0.00    +0.031 A 
ATOM     18  F   UNL     1       3.361   0.853   3.259  0.00  0.00    -0.205 F 
ENDBRANCH   9  12
ENDBRANCH   1   9
BRANCH   1  19
ATOM     19  C   UNL     1      -0.028  -2.191  -2.210  0.00  0.00    +0.227 C 
BRANCH  19  20
ATOM     20  C   UNL     1       0.234  -0.710  -2.114  0.00  0.00    +0.232 C 
ATOM     21  O   UNL     1       1.249  -0.307  -1.587  0.00  0.00    -0.274 OA
ATOM     22  N   UNL     1      -0.660   0.166  -2.613  0.00  0.00    -0.310 N 
ATOM     23  H   UNL     1      -1.581  -0.201  -3.091  0.00  0.00    +0.149 HD
BRANCH  22  24
ATOM     24  C   UNL     1      -0.406   1.605  -2.520  0.00  0.00    +0.143 C 
BRANCH  24  25
ATOM     25  C   UNL     1      -1.550   2.359  -3.148  0.00  0.00    +0.015 A 
ATOM     26  C   UNL     1      -1.428   2.855  -4.433  0.00  0.00    +0.012 A 
ATOM     27  C   UNL     1      -2.474   3.546  -5.014  0.00  0.00    +0.050 A 
ATOM     28  C   UNL     1      -3.652   3.745  -4.309  0.00  0.00    +0.165 A 
ATOM     29  C   UNL     1      -3.779   3.250  -3.017  0.00  0.00    +0.204 A 
ATOM     30  C   UNL     1      -2.726   2.550  -2.438  0.00  0.00    +0.170 A 
BRANCH  30  31
ATOM     31  O   UNL     1      -2.847   2.058  -1.177  0.00  0.00    -0.491 OA
ATOM     32  C   UNL     1      -2.445   2.913  -0.105  0.00  0.00    +0.277 C 
ENDBRANCH  30  31
BRANCH  29  33
ATOM     33  O   UNL     1      -4.933   3.443  -2.322  0.00  0.00    -0.488 OA
ATOM     34  C   UNL     1      -5.946   2.445  -2.455  0.00  0.00    +0.277 C 
ENDBRANCH  29  33
BRANCH  28  35
ATOM     35  O   UNL     1      -4.681   4.426  -4.881  0.00  0.00    -0.491 OA
ATOM     36  C   UNL     1      -4.480   4.908  -6.211  0.00  0.00    +0.277 C 
ENDBRANCH  28  35
ENDBRANCH  24  25
ENDBRANCH  22  24
ENDBRANCH  19  20
ENDBRANCH   1  19
TORSDOF 10
