REMARK  Name = ZINC23625051
REMARK  3 active torsions:
REMARK  status: ('A' for Active; 'I' for Inactive)
REMARK    1  A    between atoms: C_1  and  C_2
REMARK    2  A    between atoms: C_4  and  C_9
REMARK    3  A    between atoms: C_11  and  C_14
REMARK                            x       y       z     vdW  Elec       q    Type
REMARK                         _______ _______ _______ _____ _____    ______ ____
ROOT
ATOM      1  C   UNL     1       5.461  -2.191  -4.951  0.00  0.00    +0.109 A 
ATOM      2  N   UNL     1       4.646  -1.614  -4.082  0.00  0.00    -0.239 NA
ATOM      3  C   UNL     1       4.835  -0.368  -3.688  0.00  0.00    +0.079 A 
ATOM      4  C   UNL     1       5.891   0.344  -4.192  0.00  0.00    +0.075 A 
ATOM      5  S   UNL     1       6.628  -0.876  -5.272  0.00  0.00    -0.075 S 
ENDROOT
BRANCH   3   6
ATOM      6  C   UNL     1       3.907   0.257  -2.713  0.00  0.00    +0.003 A 
ATOM      7  C   UNL     1       4.048   1.603  -2.380  0.00  0.00    +0.014 A 
ATOM      8  C   UNL     1       3.186   2.187  -1.474  0.00  0.00    +0.048 A 
ATOM      9  C   UNL     1       2.178   1.436  -0.893  0.00  0.00    +0.142 A 
ATOM     10  C   UNL     1       2.033   0.088  -1.221  0.00  0.00    +0.076 A 
ATOM     11  C   UNL     1       2.894  -0.501  -2.128  0.00  0.00    +0.037 A 
ATOM     12  N   UNL     1       1.007  -0.657  -0.622  0.00  0.00    -0.280 N 
ATOM     13  C   UNL     1       0.002  -0.004   0.002  0.00  0.00    +0.255 C 
ATOM     14  O   UNL     1      -0.880  -0.628   0.553  0.00  0.00    -0.272 OA
ATOM     15  C   UNL     1      -0.018   1.503   0.010  0.00  0.00    +0.325 C 
ATOM     16  O   UNL     1       1.322   2.002   0.000  0.00  0.00    -0.481 OA
ATOM     17  H   UNL     1       1.029  -1.756  -0.663  0.00  0.00    +0.155 HD
ENDBRANCH   3   6
BRANCH   1  21
ATOM     18  C   UNL     1       7.384  -5.702  -7.929  0.00  0.00    +0.047 C 
ATOM     19  C   UNL     1       6.339  -5.253  -6.940  0.00  0.00    -0.015 A 
ATOM     20  C   UNL     1       6.382  -3.973  -6.428  0.00  0.00    +0.016 A 
ATOM     21  C   UNL     1       5.417  -3.560  -5.508  0.00  0.00    +0.008 A 
ATOM     22  C   UNL     1       4.407  -4.442  -5.120  0.00  0.00    +0.013 A 
ATOM     23  C   UNL     1       4.370  -5.717  -5.644  0.00  0.00    +0.039 A 
ATOM     24  C   UNL     1       5.334  -6.124  -6.553  0.00  0.00    +0.126 A 
ATOM     25  F   UNL     1       5.294  -7.375  -7.062  0.00  0.00    -0.205 F 
ENDBRANCH   1  21
TORSDOF 2
