REMARK  Name = ZINC44145460
REMARK  8 active torsions:
REMARK  status: ('A' for Active; 'I' for Inactive)
REMARK    1  A    between atoms: C_1  and  C_2
REMARK    2  A    between atoms: C_3  and  C_31
REMARK    3  A    between atoms: C_5  and  C_16
REMARK    4  A    between atoms: N_6  and  C_7
REMARK    5  A    between atoms: C_7  and  C_8
REMARK    6  A    between atoms: C_8  and  C_9
REMARK    7  A    between atoms: C_19  and  C_21
REMARK    8  A    between atoms: C_24  and  C_27
REMARK                            x       y       z     vdW  Elec       q    Type
REMARK                         _______ _______ _______ _____ _____    ______ ____
ROOT
ATOM      1  C   UNL     1       0.376   1.470  -0.246  0.00  0.00    +0.064 C 
ATOM      2  C   UNL     1       0.176  -0.017  -0.110  0.00  0.00    +0.028 A 
ATOM      3  C   UNL     1      -0.088  -0.894  -1.140  0.00  0.00    +0.058 A 
ATOM      4  C   UNL     1      -0.201  -2.187  -0.564  0.00  0.00    +0.042 A 
ATOM      5  C   UNL     1      -0.005  -2.046   0.772  0.00  0.00    +0.069 A 
ATOM      6  N   UNL     1       0.230  -0.721   1.040  0.00  0.00    -0.342 N 
ENDROOT
BRANCH   5   7
ATOM      7  C   UNL     1      -0.034  -3.139   1.770  0.00  0.00    +0.095 A 
ATOM      8  C   UNL     1       0.051  -2.856   3.110  0.00  0.00    +0.077 A 
ATOM      9  S   UNL     1      -0.032  -4.502   3.802  0.00  0.00    -0.075 S 
ATOM     10  C   UNL     1      -0.169  -5.388   2.255  0.00  0.00    +0.109 A 
ATOM     11  N   UNL     1      -0.146  -4.395   1.380  0.00  0.00    -0.238 NA
BRANCH  10  12
ATOM     12  C   UNL     1      -0.283  -6.843   2.017  0.00  0.00    +0.007 A 
ATOM     13  C   UNL     1      -0.375  -7.334   0.714  0.00  0.00    +0.011 A 
ATOM     14  C   UNL     1      -0.480  -8.693   0.499  0.00  0.00    +0.013 A 
ATOM     15  C   UNL     1      -0.496  -9.567   1.571  0.00  0.00    +0.055 A 
ATOM     16  C   UNL     1      -0.406  -9.086   2.865  0.00  0.00    +0.013 A 
ATOM     17  C   UNL     1      -0.294  -7.730   3.094  0.00  0.00    +0.011 A 
BRANCH  15  18
ATOM     18  C   UNL     1      -0.613 -11.050   1.328  0.00  0.00    +0.417 C 
ATOM     19  F   UNL     1       0.665 -11.603   1.196  0.00  0.00    -0.166 F 
ATOM     20  F   UNL     1      -1.271 -11.649   2.408  0.00  0.00    -0.166 F 
ATOM     21  F   UNL     1      -1.342 -11.275   0.156  0.00  0.00    -0.166 F 
ENDBRANCH  15  18
ENDBRANCH  10  12
ENDBRANCH   5   7
BRANCH   3  22
ATOM     22  C   UNL     1      -0.226  -0.554  -2.566  0.00  0.00    +0.243 C 
ATOM     23  O   UNL     1      -0.106   0.600  -2.931  0.00  0.00    -0.270 OA
ATOM     24  N   UNL     1      -0.486  -1.522  -3.467  0.00  0.00    -0.325 N 
ATOM     25  H   UNL     1      -0.582  -2.443  -3.176  0.00  0.00    +0.145 HD
ATOM     26  H   UNL     1      -0.578  -1.299  -4.407  0.00  0.00    +0.145 HD
ENDBRANCH   3  22
BRANCH   6  27
ATOM     27  C   UNL     1       0.494  -0.158   2.367  0.00  0.00    +0.127 C 
BRANCH  27  28
ATOM     28  C   UNL     1      -0.832   0.108   3.081  0.00  0.00    +0.056 C 
BRANCH  28  29
ATOM     29  C   UNL     1      -0.560   0.688   4.446  0.00  0.00    -0.046 A 
ATOM     30  C   UNL     1      -0.402  -0.151   5.533  0.00  0.00    +0.006 A 
ATOM     31  C   UNL     1      -0.152   0.378   6.785  0.00  0.00    +0.038 A 
ATOM     32  C   UNL     1      -0.060   1.750   6.950  0.00  0.00    +0.123 A 
ATOM     33  C   UNL     1      -0.218   2.589   5.860  0.00  0.00    +0.038 A 
ATOM     34  C   UNL     1      -0.463   2.057   4.608  0.00  0.00    +0.006 A 
ATOM     35  F   UNL     1       0.184   2.269   8.173  0.00  0.00    -0.205 F 
ENDBRANCH  28  29
ENDBRANCH  27  28
ENDBRANCH   6  27
TORSDOF 7
