REMARK  Name = ZINC40796968
REMARK  5 active torsions:
REMARK  status: ('A' for Active; 'I' for Inactive)
REMARK    1  A    between atoms: C_9  and  N_11
REMARK    2  A    between atoms: C_13  and  N_34
REMARK    3  A    between atoms: C_14  and  N_18
REMARK    4  A    between atoms: N_21  and  C_24
REMARK    5  A    between atoms: C_24  and  C_25
REMARK                            x       y       z     vdW  Elec       q    Type
REMARK                         _______ _______ _______ _____ _____    ______ ____
ROOT
ATOM      1  N   UNL     1      -1.083  -1.992   2.309  0.00  0.00    -0.297 N 
ATOM      2  C   UNL     1      -1.228  -2.739   1.146  0.00  0.00    +0.149 A 
ATOM      3  C   UNL     1      -1.392  -4.124   1.209  0.00  0.00    +0.106 A 
ATOM      4  C   UNL     1      -1.533  -4.827   0.011  0.00  0.00    +0.147 A 
ATOM      5  N   UNL     1      -1.506  -4.154  -1.137  0.00  0.00    -0.219 NA
ATOM      6  C   UNL     1      -1.349  -2.846  -1.153  0.00  0.00    +0.225 A 
ATOM      7  N   UNL     1      -1.218  -2.145  -0.045  0.00  0.00    -0.219 NA
ATOM      8  H   UNL     1      -1.008  -2.438   3.167  0.00  0.00    +0.154 HD
ENDROOT
BRANCH   1  17
ATOM      9  C   UNL     1      -1.602   1.451   1.115  0.00  0.00    +0.004 A 
ATOM     10  C   UNL     1      -0.989   2.192   2.079  0.00  0.00    +0.028 A 
ATOM     11  C   UNL     1      -0.376   1.557   3.172  0.00  0.00    +0.073 A 
ATOM     12  C   UNL     1      -0.404   0.143   3.256  0.00  0.00    +0.022 A 
ATOM     13  C   UNL     1       0.210  -0.488   4.350  0.00  0.00    +0.013 A 
ATOM     14  C   UNL     1       0.813   0.296   5.293  0.00  0.00    +0.020 A 
ATOM     15  C   UNL     1       0.806   1.681   5.152  0.00  0.00    +0.111 A 
ATOM     16  N   UNL     1       0.232   2.267   4.129  0.00  0.00    -0.255 NA
ATOM     17  C   UNL     1      -1.046  -0.601   2.243  0.00  0.00    +0.042 A 
ATOM     18  C   UNL     1      -1.636   0.063   1.187  0.00  0.00    +0.024 A 
ENDBRANCH   1  17
BRANCH   4  19
ATOM     19  N   UNL     1      -1.698  -6.206   0.017  0.00  0.00    -0.317 N 
ATOM     20  C   UNL     1      -0.546  -7.107  -0.142  0.00  0.00    +0.088 C 
ATOM     21  C   UNL     1      -0.872  -8.125  -1.240  0.00  0.00    -0.059 C 
ATOM     22  N   UNL     1      -2.133  -8.805  -0.916  0.00  0.00    +0.384 N 
ATOM     23  C   UNL     1      -3.240  -7.840  -0.930  0.00  0.00    -0.059 C 
ATOM     24  C   UNL     1      -3.029  -6.808   0.189  0.00  0.00    +0.088 C 
ATOM     25  H   UNL     1      -2.063  -9.222  -0.000  0.00  0.00    -0.081 HD
BRANCH  22  26
ATOM     26  C   UNL     1      -2.389  -9.855  -1.910  0.00  0.00    -0.043 C 
BRANCH  26  27
ATOM     27  C   UNL     1      -3.616 -10.635  -1.512  0.00  0.00    -0.060 A 
ATOM     28  C   UNL     1      -3.494 -11.747  -0.700  0.00  0.00    +0.005 A 
ATOM     29  C   UNL     1      -4.617 -12.464  -0.332  0.00  0.00    +0.050 A 
ATOM     30  C   UNL     1      -5.868 -12.070  -0.777  0.00  0.00    +0.166 A 
ATOM     31  C   UNL     1      -5.991 -10.950  -1.595  0.00  0.00    +0.166 A 
ATOM     32  C   UNL     1      -4.862 -10.232  -1.956  0.00  0.00    +0.051 A 
ATOM     33  O   UNL     1      -7.311 -10.772  -1.895  0.00  0.00    -0.453 OA
ATOM     34  C   UNL     1      -7.948 -12.027  -1.589  0.00  0.00    +0.466 C 
ATOM     35  O   UNL     1      -7.111 -12.594  -0.564  0.00  0.00    -0.453 OA
ENDBRANCH  26  27
ENDBRANCH  22  26
ENDBRANCH   4  19
BRANCH   3  36
ATOM     36  N   UNL     1      -1.413  -4.792   2.444  0.00  0.00    -0.353 N 
ATOM     37  H   UNL     1      -1.387  -4.285   3.270  0.00  0.00    +0.143 HD
ATOM     38  H   UNL     1      -1.454  -5.761   2.470  0.00  0.00    +0.143 HD
ENDBRANCH   3  36
TORSDOF 5
