REMARK  Name = ZINC38917483
REMARK  11 active torsions:
REMARK  status: ('A' for Active; 'I' for Inactive)
REMARK    1  A    between atoms: C_1  and  C_2
REMARK    2  A    between atoms: C_5  and  N_9
REMARK    3  A    between atoms: C_6  and  C_8
REMARK    4  A    between atoms: N_9  and  C_10
REMARK    5  A    between atoms: C_10  and  C_11
REMARK    6  A    between atoms: C_17  and  C_23
REMARK    7  A    between atoms: C_24  and  C_26
REMARK    8  A    between atoms: C_29  and  C_32
REMARK    9  A    between atoms: C_32  and  C_33
REMARK   10  A    between atoms: C_32  and  C_34
REMARK   11  A    between atoms: C_32  and  C_35
REMARK                            x       y       z     vdW  Elec       q    Type
REMARK                         _______ _______ _______ _____ _____    ______ ____
ROOT
ATOM      1  N   UNL     1      -0.178  -4.669   0.152  0.00  0.00    -0.266 N 
ATOM      2  C   UNL     1      -1.159  -5.589   0.064  0.00  0.00    +0.251 C 
ATOM      3  O   UNL     1      -0.881  -6.758  -0.119  0.00  0.00    -0.270 OA
ENDROOT
BRANCH   1   8
ATOM      4  C   UNL     1      -1.479   0.833   0.612  0.00  0.00    +0.044 C 
ATOM      5  C   UNL     1      -1.133  -0.629   0.490  0.00  0.00    -0.050 A 
ATOM      6  C   UNL     1      -1.489  -1.509   1.496  0.00  0.00    +0.005 A 
ATOM      7  C   UNL     1      -1.174  -2.849   1.387  0.00  0.00    +0.024 A 
ATOM      8  C   UNL     1      -0.499  -3.313   0.265  0.00  0.00    +0.040 A 
ATOM      9  C   UNL     1      -0.143  -2.427  -0.743  0.00  0.00    -0.029 A 
ATOM     10  C   UNL     1      -0.466  -1.089  -0.630  0.00  0.00    +0.008 A 
ATOM     11  C   UNL     1       0.590  -2.926  -1.962  0.00  0.00    +0.045 C 
ENDBRANCH   1   8
BRANCH   2  12
ATOM     12  C   UNL     1      -2.572  -5.176   0.191  0.00  0.00    +0.037 A 
ATOM     13  C   UNL     1      -3.013  -3.993  -0.404  0.00  0.00    +0.013 A 
ATOM     14  C   UNL     1      -4.334  -3.613  -0.283  0.00  0.00    +0.005 A 
ATOM     15  C   UNL     1      -5.221  -4.402   0.428  0.00  0.00    -0.042 A 
ATOM     16  C   UNL     1      -4.790  -5.576   1.021  0.00  0.00    +0.005 A 
ATOM     17  C   UNL     1      -3.474  -5.970   0.902  0.00  0.00    +0.013 A 
BRANCH  15  18
ATOM     18  C   UNL     1      -6.662  -3.981   0.558  0.00  0.00    -0.013 C 
ATOM     19  C   UNL     1      -7.290  -3.877  -0.833  0.00  0.00    +0.015 C 
ATOM     20  C   UNL     1      -7.424  -5.018   1.385  0.00  0.00    +0.015 C 
ATOM     21  C   UNL     1      -6.735  -2.620   1.254  0.00  0.00    +0.015 C 
ENDBRANCH  15  18
ENDBRANCH   2  12
BRANCH   1  22
ATOM     22  C   UNL     1       1.225  -5.090   0.128  0.00  0.00    +0.131 C 
BRANCH  22  23
ATOM     23  C   UNL     1       1.642  -5.556   1.525  0.00  0.00    +0.116 C 
ATOM     24  C   UNL     1       2.885  -6.411   1.378  0.00  0.00    -0.003 C 
ATOM     25  C   UNL     1       3.999  -6.015   2.058  0.00  0.00    -0.007 A 
ATOM     26  C   UNL     1       5.243  -6.782   1.973  0.00  0.00    +0.010 A 
ATOM     27  C   UNL     1       6.327  -6.350   2.667  0.00  0.00    +0.004 A 
ATOM     28  C   UNL     1       6.276  -5.198   3.453  0.00  0.00    -0.049 A 
ATOM     29  C   UNL     1       5.153  -4.443   3.572  0.00  0.00    +0.027 A 
ATOM     30  C   UNL     1       3.974  -4.802   2.894  0.00  0.00    +0.041 A 
ATOM     31  N   UNL     1       2.878  -4.053   3.019  0.00  0.00    -0.284 N 
ATOM     32  C   UNL     1       1.739  -4.335   2.411  0.00  0.00    +0.226 C 
ATOM     33  O   UNL     1       0.772  -3.612   2.564  0.00  0.00    -0.275 OA
ATOM     34  C   UNL     1       7.515  -4.775   4.198  0.00  0.00    +0.044 C 
ATOM     35  H   UNL     1       2.919  -3.265   3.583  0.00  0.00    +0.155 HD
ENDBRANCH  22  23
ENDBRANCH   1  22
TORSDOF 5
