REMARK  Name = ZINC58919101
REMARK  13 active torsions:
REMARK  status: ('A' for Active; 'I' for Inactive)
REMARK    1  A    between atoms: C_1  and  C_2
REMARK    2  A    between atoms: C_2  and  O_3
REMARK    3  A    between atoms: O_3  and  C_4
REMARK    4  A    between atoms: C_7  and  N_10
REMARK    5  A    between atoms: N_10  and  C_11
REMARK    6  A    between atoms: N_10  and  S_25
REMARK    7  A    between atoms: C_11  and  C_12
REMARK    8  A    between atoms: N_14  and  N_15
REMARK    9  A    between atoms: C_16  and  C_17
REMARK   10  A    between atoms: C_16  and  C_18
REMARK   11  A    between atoms: S_25  and  C_28
REMARK   12  A    between atoms: C_31  and  S_34
REMARK   13  A    between atoms: S_34  and  C_35
REMARK                            x       y       z     vdW  Elec       q    Type
REMARK                         _______ _______ _______ _____ _____    ______ ____
ROOT
ATOM      1  N   UNL     1      -1.988  -5.989  -0.012  0.00  0.00    -0.194 N 
ENDROOT
BRANCH   1   5
ATOM      2  C   UNL     1      -1.511  -1.848   0.039  0.00  0.00    +0.121 A 
ATOM      3  C   UNL     1      -0.680  -2.632  -0.747  0.00  0.00    +0.047 A 
ATOM      4  C   UNL     1      -0.837  -4.004  -0.765  0.00  0.00    +0.028 A 
ATOM      5  C   UNL     1      -1.828  -4.599   0.006  0.00  0.00    +0.052 A 
ATOM      6  C   UNL     1      -2.659  -3.813   0.793  0.00  0.00    +0.028 A 
ATOM      7  C   UNL     1      -2.497  -2.442   0.814  0.00  0.00    +0.047 A 
BRANCH   2   8
ATOM      8  O   UNL     1      -1.355  -0.497   0.056  0.00  0.00    -0.492 OA
BRANCH   8  10
ATOM      9  C   UNL     1      -0.297   1.569  -0.617  0.00  0.00    +0.048 C 
ATOM     10  C   UNL     1      -0.320   0.047  -0.766  0.00  0.00    +0.225 C 
ENDBRANCH   8  10
ENDBRANCH   2   8
ENDBRANCH   1   5
BRANCH   1  11
ATOM     11  S   UNL     1      -3.426  -6.650  -0.498  0.00  0.00    +0.075 S 
ATOM     12  O   UNL     1      -3.563  -7.881   0.197  0.00  0.00    -0.150 OA
ATOM     13  O   UNL     1      -4.398  -5.616  -0.415  0.00  0.00    -0.150 OA
BRANCH  11  14
ATOM     14  C   UNL     1      -3.264  -7.052  -2.206  0.00  0.00    +0.109 A 
ATOM     15  C   UNL     1      -3.596  -6.117  -3.170  0.00  0.00    +0.030 A 
ATOM     16  C   UNL     1      -3.470  -6.428  -4.509  0.00  0.00    +0.016 A 
ATOM     17  C   UNL     1      -3.008  -7.683  -4.888  0.00  0.00    +0.008 A 
ATOM     18  C   UNL     1      -2.675  -8.620  -3.917  0.00  0.00    +0.016 A 
ATOM     19  C   UNL     1      -2.798  -8.299  -2.580  0.00  0.00    +0.030 A 
BRANCH  17  20
ATOM     20  S   UNL     1      -2.846  -8.085  -6.596  0.00  0.00    -0.129 S 
ATOM     21  C   UNL     1      -2.224  -9.789  -6.589  0.00  0.00    +0.090 C 
ENDBRANCH  17  20
ENDBRANCH  11  14
ENDBRANCH   1  11
BRANCH   1  22
ATOM     22  C   UNL     1      -0.884  -6.859   0.401  0.00  0.00    +0.228 C 
BRANCH  22  23
ATOM     23  C   UNL     1      -0.905  -7.020   1.899  0.00  0.00    +0.251 C 
ATOM     24  O   UNL     1      -1.758  -6.463   2.558  0.00  0.00    -0.272 OA
ATOM     25  N   UNL     1       0.025  -7.783   2.507  0.00  0.00    -0.205 N 
ATOM     26  H   UNL     1       0.707  -8.229   1.981  0.00  0.00    +0.177 HD
BRANCH  25  27
ATOM     27  N   UNL     1       0.006  -7.933   3.900  0.00  0.00    -0.185 NA
ATOM     28  C   UNL     1       0.901  -8.668   4.486  0.00  0.00    +0.063 C 
ATOM     29  C   UNL     1       1.960  -9.360   3.668  0.00  0.00    +0.068 C 
BRANCH  28  30
ATOM     30  C   UNL     1       0.881  -8.826   5.952  0.00  0.00    -0.002 A 
ATOM     31  C   UNL     1       1.847  -9.612   6.586  0.00  0.00    +0.012 A 
ATOM     32  C   UNL     1       1.823  -9.756   7.957  0.00  0.00    +0.039 A 
ATOM     33  C   UNL     1       0.844  -9.122   8.706  0.00  0.00    +0.123 A 
ATOM     34  C   UNL     1      -0.117  -8.341   8.083  0.00  0.00    +0.039 A 
ATOM     35  C   UNL     1      -0.100  -8.185   6.713  0.00  0.00    +0.012 A 
ATOM     36  F   UNL     1       0.825  -9.267  10.049  0.00  0.00    -0.205 F 
ENDBRANCH  28  30
ENDBRANCH  25  27
ENDBRANCH  22  23
ENDBRANCH   1  22
TORSDOF 10
