REMARK  Name = ZINC09846785
REMARK  5 active torsions:
REMARK  status: ('A' for Active; 'I' for Inactive)
REMARK    1  A    between atoms: C_3  and  C_6
REMARK    2  A    between atoms: C_16  and  C_18
REMARK    3  A    between atoms: C_23  and  C_25
REMARK    4  A    between atoms: C_25  and  N_60
REMARK    5  A    between atoms: C_28  and  C_31
REMARK                            x       y       z     vdW  Elec       q    Type
REMARK                         _______ _______ _______ _____ _____    ______ ____
ROOT
ATOM      1  C   UNL     1      -1.143   2.414   0.267  0.00  0.00    +0.020 C 
ATOM      2  C   UNL     1      -0.958   3.727  -0.005  0.00  0.00    -0.023 C 
ATOM      3  C   UNL     1       0.435   4.260  -0.155  0.00  0.00    +0.037 C 
ATOM      4  C   UNL     1       0.513   5.766  -0.300  0.00  0.00    +0.005 C 
ATOM      5  C   UNL     1      -0.685   6.368  -1.031  0.00  0.00    +0.012 C 
ATOM      6  C   UNL     1      -1.938   6.092  -0.200  0.00  0.00    +0.067 C 
ATOM      7  C   UNL     1      -2.078   4.573  -0.150  0.00  0.00    +0.068 C 
ATOM      8  N   UNL     1      -3.328   4.280  -0.279  0.00  0.00    -0.181 NA
ATOM      9  N   UNL     1      -4.123   5.375  -0.638  0.00  0.00    -0.186 N 
ATOM     10  C   UNL     1      -3.221   6.508  -0.940  0.00  0.00    +0.146 C 
ATOM     11  C   UNL     1      -5.470   5.396  -0.690  0.00  0.00    +0.219 C 
ATOM     12  O   UNL     1      -6.049   6.410  -1.018  0.00  0.00    -0.276 OA
ENDROOT
BRANCH   1  15
ATOM     13  C   UNL     1       1.261  -0.454   0.773  0.00  0.00    +0.008 A 
ATOM     14  C   UNL     1       0.039   0.168   0.688  0.00  0.00    +0.015 A 
ATOM     15  C   UNL     1       0.010   1.527   0.413  0.00  0.00    +0.012 A 
ATOM     16  S   UNL     1       1.749   1.909   0.276  0.00  0.00    -0.097 S 
ATOM     17  C   UNL     1       2.394   0.274   0.586  0.00  0.00    +0.046 A 
ENDBRANCH   1  15
BRANCH  10  18
ATOM     18  C   UNL     1      -2.980   6.608  -2.424  0.00  0.00    +0.013 A 
ATOM     19  C   UNL     1      -2.763   7.711  -3.182  0.00  0.00    +0.013 A 
ATOM     20  C   UNL     1      -2.559   7.562  -4.541  0.00  0.00    +0.008 A 
ATOM     21  C   UNL     1      -2.593   6.318  -5.078  0.00  0.00    +0.045 A 
ATOM     22  S   UNL     1      -2.913   5.305  -3.643  0.00  0.00    -0.100 S 
ENDBRANCH  10  18
BRANCH  11  23
ATOM     23  C   UNL     1      -6.257   4.159  -0.341  0.00  0.00    +0.021 C 
BRANCH  23  29
ATOM     24  C   UNL     1      -8.501   3.256  -0.241  0.00  0.00    -0.077 C 
ATOM     25  C   UNL     1      -9.982   3.614  -0.376  0.00  0.00    -0.006 C 
ATOM     26  C   UNL     1     -10.371   4.587   0.740  0.00  0.00    +0.071 C 
ATOM     27  C   UNL     1      -9.480   5.830   0.657  0.00  0.00    -0.006 C 
ATOM     28  C   UNL     1      -8.013   5.407   0.762  0.00  0.00    -0.077 C 
ATOM     29  N   UNL     1      -7.696   4.491  -0.354  0.00  0.00    +0.385 N 
ATOM     30  H   UNL     1      -7.923   4.956  -1.241  0.00  0.00    -0.081 HD
BRANCH  26  31
ATOM     31  C   UNL     1     -11.814   4.990   0.577  0.00  0.00    +0.213 C 
ATOM     32  O   UNL     1     -12.103   6.157   0.410  0.00  0.00    -0.276 OA
ATOM     33  N   UNL     1     -12.784   4.055   0.616  0.00  0.00    -0.329 N 
ATOM     34  H   UNL     1     -12.553   3.123   0.750  0.00  0.00    +0.145 HD
ATOM     35  H   UNL     1     -13.712   4.315   0.511  0.00  0.00    +0.145 HD
ENDBRANCH  26  31
ENDBRANCH  23  29
ENDBRANCH  11  23
TORSDOF 5
