REMARK  Name = ZINC38747538
REMARK  7 active torsions:
REMARK  status: ('A' for Active; 'I' for Inactive)
REMARK    1  A    between atoms: C_1  and  C_2
REMARK    2  A    between atoms: C_5  and  C_8
REMARK    3  A    between atoms: C_8  and  C_10
REMARK    4  A    between atoms: C_10  and  S_11
REMARK    5  A    between atoms: S_11  and  C_12
REMARK    6  A    between atoms: C_17  and  C_24
REMARK    7  A    between atoms: C_18  and  C_23
REMARK                            x       y       z     vdW  Elec       q    Type
REMARK                         _______ _______ _______ _____ _____    ______ ____
ROOT
ATOM      1  C   UNL     1       0.114  -7.527   2.537  0.00  0.00    +0.182 C 
ATOM      2  N   UNL     1       0.103  -6.737   3.596  0.00  0.00    -0.151 NA
ATOM      3  C   UNL     1       0.115  -7.205   4.844  0.00  0.00    +0.272 C 
ATOM      4  O   UNL     1       0.105  -6.446   5.800  0.00  0.00    -0.268 OA
ATOM      5  C   UNL     1       0.141  -8.691   5.039  0.00  0.00    +0.071 C 
ATOM      6  C   UNL     1       0.155  -9.375   6.189  0.00  0.00    -0.045 C 
ATOM      7  C   UNL     1       0.180 -10.884   6.112  0.00  0.00    +0.076 C 
ATOM      8  S   UNL     1       0.179 -11.165   4.295  0.00  0.00    -0.098 S 
ATOM      9  C   UNL     1       0.150  -9.467   3.778  0.00  0.00    +0.112 C 
ATOM     10  N   UNL     1       0.131  -8.858   2.620  0.00  0.00    -0.217 NA
ATOM     11  C   UNL     1      -1.068 -11.486   6.761  0.00  0.00    +0.024 C 
ATOM     12  C   UNL     1       0.147  -8.663   7.518  0.00  0.00    +0.041 C 
ENDROOT
BRANCH   1  13
ATOM     13  S   UNL     1       0.096  -6.787   0.938  0.00  0.00    -0.081 S 
BRANCH  13  14
ATOM     14  C   UNL     1       0.075  -5.006   1.280  0.00  0.00    +0.156 C 
BRANCH  14  15
ATOM     15  C   UNL     1       0.058  -4.245  -0.021  0.00  0.00    +0.173 C 
ATOM     16  O   UNL     1       0.060  -4.846  -1.075  0.00  0.00    -0.291 OA
BRANCH  15  21
ATOM     17  C   UNL     1      -0.018   1.503   0.010  0.00  0.00    +0.044 C 
ATOM     18  C   UNL     1       0.002  -0.004   0.002  0.00  0.00    -0.050 A 
ATOM     19  C   UNL     1       0.006  -0.686  -1.202  0.00  0.00    +0.004 A 
ATOM     20  C   UNL     1       0.024  -2.064  -1.218  0.00  0.00    +0.011 A 
ATOM     21  C   UNL     1       0.039  -2.774  -0.013  0.00  0.00    +0.018 A 
ATOM     22  C   UNL     1       0.036  -2.078   1.200  0.00  0.00    +0.011 A 
ATOM     23  C   UNL     1       0.023  -0.699   1.199  0.00  0.00    +0.004 A 
ENDBRANCH  15  21
ENDBRANCH  14  15
ENDBRANCH  13  14
ENDBRANCH   1  13
TORSDOF 4
