REMARK  Name = ZINC14478049
REMARK  5 active torsions:
REMARK  status: ('A' for Active; 'I' for Inactive)
REMARK    1  A    between atoms: C_1  and  C_2
REMARK    2  A    between atoms: N_5  and  S_8
REMARK    3  A    between atoms: S_8  and  C_11
REMARK    4  A    between atoms: C_24  and  C_27
REMARK    5  A    between atoms: C_32  and  N_33
REMARK                            x       y       z     vdW  Elec       q    Type
REMARK                         _______ _______ _______ _____ _____    ______ ____
ROOT
ATOM      1  C   UNL     1       2.593   0.917  -4.775  0.00  0.00    +0.106 A 
ATOM      2  C   UNL     1       1.806   0.362  -5.769  0.00  0.00    +0.030 A 
ATOM      3  C   UNL     1       2.342  -0.559  -6.645  0.00  0.00    +0.025 A 
ATOM      4  C   UNL     1       3.675  -0.936  -6.537  0.00  0.00    +0.031 A 
ATOM      5  C   UNL     1       4.462  -0.383  -5.520  0.00  0.00    -0.018 A 
ATOM      6  C   UNL     1       3.920   0.546  -4.657  0.00  0.00    +0.034 A 
ATOM      7  C   UNL     1       5.861  -0.847  -5.411  0.00  0.00    +0.049 C 
ATOM      8  C   UNL     1       6.923  -0.009  -4.798  0.00  0.00    -0.023 C 
ATOM      9  C   UNL     1       8.079  -0.293  -5.386  0.00  0.00    -0.030 C 
ATOM     10  C   UNL     1       7.866  -1.339  -6.481  0.00  0.00    +0.033 C 
ATOM     11  C   UNL     1       6.395  -1.103  -6.852  0.00  0.00    +0.029 C 
ATOM     12  C   UNL     1       5.612  -2.298  -7.367  0.00  0.00    +0.107 C 
ATOM     13  N   UNL     1       4.207  -1.846  -7.459  0.00  0.00    -0.336 N 
ATOM     14  H   UNL     1       3.643  -2.185  -8.171  0.00  0.00    +0.147 HD
ENDROOT
BRANCH  12  15
ATOM     15  C   UNL     1       6.118  -2.704  -8.727  0.00  0.00    +0.003 A 
ATOM     16  C   UNL     1       6.915  -1.839  -9.455  0.00  0.00    +0.008 A 
ATOM     17  C   UNL     1       7.379  -2.212 -10.703  0.00  0.00    +0.000 A 
ATOM     18  C   UNL     1       7.047  -3.449 -11.223  0.00  0.00    +0.002 A 
ATOM     19  C   UNL     1       6.250  -4.313 -10.495  0.00  0.00    +0.033 A 
ATOM     20  C   UNL     1       5.790  -3.942  -9.245  0.00  0.00    +0.131 A 
BRANCH  20  21
ATOM     21  N   UNL     1       4.942  -4.870  -8.464  0.00  0.00    +0.057 N 
ATOM     22  O   UNL     1       4.738  -5.999  -8.872  0.00  0.00    -0.126 OA
ATOM     23  O   UNL     1       4.448  -4.505  -7.412  0.00  0.00    -0.126 OA
ENDBRANCH  20  21
ENDBRANCH  12  15
BRANCH   1  24
ATOM     24  S   UNL     1       1.907   2.100  -3.665  0.00  0.00    +0.061 S 
ATOM     25  O   UNL     1       0.797   2.686  -4.331  0.00  0.00    -0.153 OA
ATOM     26  O   UNL     1       2.994   2.872  -3.172  0.00  0.00    -0.153 OA
BRANCH  24  31
ATOM     27  C   UNL     1      -0.694   1.335   1.387  0.00  0.00    +0.007 C 
ATOM     28  C   UNL     1       0.016   0.863   0.117  0.00  0.00    -0.012 C 
ATOM     29  C   UNL     1      -0.791   1.296  -1.109  0.00  0.00    +0.020 C 
ATOM     30  C   UNL     1      -0.095   0.792  -2.378  0.00  0.00    +0.110 C 
ATOM     31  N   UNL     1       1.296   1.264  -2.373  0.00  0.00    -0.177 NA
ATOM     32  C   UNL     1       2.135   0.980  -1.201  0.00  0.00    +0.110 C 
ATOM     33  C   UNL     1       1.414   1.482   0.054  0.00  0.00    +0.020 C 
ENDBRANCH  24  31
ENDBRANCH   1  24
TORSDOF 4
