REMARK  Name = ZINC40138279
REMARK  9 active torsions:
REMARK  status: ('A' for Active; 'I' for Inactive)
REMARK    1  A    between atoms: C_1  and  C_2
REMARK    2  A    between atoms: C_5  and  C_8
REMARK    3  A    between atoms: N_10  and  N_11
REMARK    4  A    between atoms: N_19  and  C_22
REMARK    5  A    between atoms: C_22  and  C_23
REMARK    6  A    between atoms: C_23  and  C_24
REMARK    7  A    between atoms: C_24  and  O_25
REMARK    8  A    between atoms: O_25  and  C_26
REMARK    9  A    between atoms: C_29  and  C_32
REMARK                            x       y       z     vdW  Elec       q    Type
REMARK                         _______ _______ _______ _____ _____    ______ ____
ROOT
ATOM      1  N   UNL     1       0.092  -6.331   1.134  0.00  0.00    -0.174 NA
ATOM      2  C   UNL     1       0.107  -6.993   2.266  0.00  0.00    +0.153 C 
ATOM      3  C   UNL     1       0.133  -8.463   2.452  0.00  0.00    +0.028 A 
ATOM      4  C   UNL     1       0.150  -9.534   1.566  0.00  0.00    +0.012 A 
ATOM      5  C   UNL     1       0.173 -10.825   2.054  0.00  0.00    +0.001 A 
ATOM      6  C   UNL     1       0.180 -11.051   3.420  0.00  0.00    +0.002 A 
ATOM      7  C   UNL     1       0.163  -9.994   4.307  0.00  0.00    +0.024 A 
ATOM      8  C   UNL     1       0.140  -8.686   3.835  0.00  0.00    +0.046 A 
ATOM      9  N   UNL     1       0.120  -7.465   4.498  0.00  0.00    -0.265 N 
ATOM     10  C   UNL     1       0.107  -6.436   3.634  0.00  0.00    +0.271 C 
ATOM     11  O   UNL     1       0.093  -5.255   3.926  0.00  0.00    -0.268 OA
ENDROOT
BRANCH   1  14
ATOM     12  C   UNL     1       0.059  -4.250  -0.021  0.00  0.00    +0.263 C 
ATOM     13  O   UNL     1       0.062  -4.852  -1.077  0.00  0.00    -0.268 OA
ATOM     14  N   UNL     1       0.074  -4.931   1.142  0.00  0.00    -0.202 N 
ATOM     15  H   UNL     1       0.072  -4.450   1.985  0.00  0.00    +0.178 HD
BRANCH  12  20
ATOM     16  C   UNL     1      -0.018   1.503   0.010  0.00  0.00    +0.044 C 
ATOM     17  C   UNL     1       0.002  -0.004   0.002  0.00  0.00    -0.050 A 
ATOM     18  C   UNL     1       0.006  -0.686  -1.202  0.00  0.00    +0.004 A 
ATOM     19  C   UNL     1       0.024  -2.065  -1.217  0.00  0.00    +0.013 A 
ATOM     20  C   UNL     1       0.040  -2.773  -0.013  0.00  0.00    +0.038 A 
ATOM     21  C   UNL     1       0.036  -2.079   1.198  0.00  0.00    +0.013 A 
ATOM     22  C   UNL     1       0.023  -0.699   1.198  0.00  0.00    +0.004 A 
ENDBRANCH  12  20
ENDBRANCH   1  14
BRANCH   9  23
ATOM     23  C   UNL     1       0.121  -7.317   5.956  0.00  0.00    +0.117 C 
BRANCH  23  24
ATOM     24  C   UNL     1       1.564  -7.241   6.460  0.00  0.00    +0.060 C 
BRANCH  24  25
ATOM     25  C   UNL     1       1.565  -7.087   7.982  0.00  0.00    +0.230 C 
BRANCH  25  26
ATOM     26  O   UNL     1       2.912  -7.015   8.453  0.00  0.00    -0.492 OA
BRANCH  26  27
ATOM     27  C   UNL     1       3.091  -6.877   9.793  0.00  0.00    +0.121 A 
ATOM     28  C   UNL     1       1.992  -6.817  10.638  0.00  0.00    +0.046 A 
ATOM     29  C   UNL     1       2.176  -6.676  12.000  0.00  0.00    +0.007 A 
ATOM     30  C   UNL     1       3.455  -6.595  12.521  0.00  0.00    -0.050 A 
ATOM     31  C   UNL     1       4.551  -6.654  11.681  0.00  0.00    +0.007 A 
ATOM     32  C   UNL     1       4.372  -6.801  10.319  0.00  0.00    +0.046 A 
ATOM     33  C   UNL     1       3.653  -6.441  14.007  0.00  0.00    +0.044 C 
ENDBRANCH  26  27
ENDBRANCH  25  26
ENDBRANCH  24  25
ENDBRANCH  23  24
ENDBRANCH   9  23
TORSDOF 7
