REMARK  Name = ZINC06198338
REMARK  11 active torsions:
REMARK  status: ('A' for Active; 'I' for Inactive)
REMARK    1  A    between atoms: C_1  and  C_2
REMARK    2  A    between atoms: C_2  and  C_3
REMARK    3  A    between atoms: C_10  and  C_15
REMARK    4  A    between atoms: C_15  and  C_17
REMARK    5  A    between atoms: C_15  and  N_70
REMARK    6  A    between atoms: N_21  and  C_22
REMARK    7  A    between atoms: C_22  and  C_23
REMARK    8  A    between atoms: C_26  and  O_29
REMARK    9  A    between atoms: O_29  and  C_30
REMARK   10  A    between atoms: C_31  and  N_70
REMARK   11  A    between atoms: C_32  and  N_70
REMARK                            x       y       z     vdW  Elec       q    Type
REMARK                         _______ _______ _______ _____ _____    ______ ____
ROOT
ATOM      1  C   UNL     1       6.159  -0.614  -0.059  0.00  0.00    +0.039 C 
ENDROOT
BRANCH   1   9
ATOM      2  C   UNL     1       0.002  -0.004   0.002  0.00  0.00    -0.047 A 
ATOM      3  C   UNL     1      -0.017   1.384   0.010  0.00  0.00    +0.005 A 
ATOM      4  C   UNL     1       1.159   2.104   0.002  0.00  0.00    +0.026 A 
ATOM      5  C   UNL     1       2.378   1.434  -0.013  0.00  0.00    +0.049 A 
ATOM      6  C   UNL     1       2.393   0.026  -0.021  0.00  0.00    -0.001 A 
ATOM      7  C   UNL     1       1.187  -0.683  -0.013  0.00  0.00    +0.013 A 
ATOM      8  C   UNL     1       3.681  -0.669  -0.036  0.00  0.00    +0.017 A 
ATOM      9  C   UNL     1       4.817   0.071  -0.043  0.00  0.00    +0.011 A 
ATOM     10  C   UNL     1       4.747   1.480  -0.034  0.00  0.00    +0.251 A 
ATOM     11  O   UNL     1       5.780   2.127  -0.040  0.00  0.00    -0.268 OA
ATOM     12  N   UNL     1       3.569   2.128  -0.020  0.00  0.00    -0.322 N 
ATOM     13  H   UNL     1       3.556   3.128  -0.014  0.00  0.00    +0.169 HD
BRANCH   2  15
ATOM     14  C   UNL     1      -1.750  -1.020  -1.429  0.00  0.00    +0.009 C 
ATOM     15  C   UNL     1      -1.297  -0.769   0.011  0.00  0.00    +0.032 C 
ENDBRANCH   2  15
ENDBRANCH   1   9
BRANCH   1  16
ATOM     16  C   UNL     1       6.891  -0.314   1.224  0.00  0.00    +0.143 A 
ATOM     17  N   UNL     1       7.475   0.814   1.546  0.00  0.00    -0.115 NA
ATOM     18  N   UNL     1       7.988   0.675   2.720  0.00  0.00    -0.023 NA
ATOM     19  N   UNL     1       7.746  -0.512   3.155  0.00  0.00    -0.044 NA
ATOM     20  N   UNL     1       7.068  -1.151   2.263  0.00  0.00    -0.226 N 
BRANCH  20  21
ATOM     21  C   UNL     1       6.583  -2.530   2.361  0.00  0.00    +0.182 C 
BRANCH  21  22
ATOM     22  C   UNL     1       7.627  -3.470   1.814  0.00  0.00    -0.026 A 
ATOM     23  C   UNL     1       7.614  -3.811   0.474  0.00  0.00    +0.009 A 
ATOM     24  C   UNL     1       8.573  -4.667  -0.031  0.00  0.00    +0.046 A 
ATOM     25  C   UNL     1       9.543  -5.194   0.809  0.00  0.00    +0.120 A 
ATOM     26  C   UNL     1       9.550  -4.855   2.154  0.00  0.00    +0.046 A 
ATOM     27  C   UNL     1       8.592  -3.994   2.654  0.00  0.00    +0.009 A 
BRANCH  25  28
ATOM     28  O   UNL     1      10.484  -6.041   0.316  0.00  0.00    -0.495 OA
ATOM     29  C   UNL     1      10.415  -6.346  -1.079  0.00  0.00    +0.277 C 
ENDBRANCH  25  28
ENDBRANCH  21  22
ENDBRANCH  20  21
ENDBRANCH   1  16
BRANCH   1  31
ATOM     30  C   UNL     1       8.264  -0.770  -1.246  0.00  0.00    -0.094 C 
ATOM     31  N   UNL     1       6.950  -0.095  -1.194  0.00  0.00    +0.389 N 
ATOM     32  H   UNL     1       7.098   0.913  -1.065  0.00  0.00    -0.080 HD
BRANCH  31  33
ATOM     33  C   UNL     1       6.220  -0.314  -2.461  0.00  0.00    -0.068 C 
ATOM     34  C   UNL     1       6.046  -1.810  -2.728  0.00  0.00    -0.015 C 
ATOM     35  C   UNL     1       5.290  -2.009  -4.043  0.00  0.00    -0.002 C 
ATOM     36  C   UNL     1       6.082  -1.375  -5.188  0.00  0.00    -0.000 C 
ATOM     37  C   UNL     1       6.256   0.122  -4.921  0.00  0.00    -0.002 C 
ATOM     38  C   UNL     1       7.013   0.320  -3.606  0.00  0.00    -0.015 C 
ENDBRANCH  31  33
ENDBRANCH   1  31
TORSDOF 8
