REMARK  Name = ZINC40799619
REMARK  4 active torsions:
REMARK  status: ('A' for Active; 'I' for Inactive)
REMARK    1  A    between atoms: C_5  and  N_7
REMARK    2  A    between atoms: C_14  and  N_31
REMARK    3  A    between atoms: C_15  and  N_19
REMARK    4  A    between atoms: C_23  and  C_26
REMARK                            x       y       z     vdW  Elec       q    Type
REMARK                         _______ _______ _______ _____ _____    ______ ____
ROOT
ATOM      1  N   UNL     1      -0.088  -2.107   1.172  0.00  0.00    -0.325 N 
ATOM      2  C   UNL     1      -1.322  -2.906   1.180  0.00  0.00    +0.124 C 
ATOM      3  C   UNL     1      -1.295  -3.862  -0.019  0.00  0.00    +0.125 C 
ATOM      4  N   UNL     1      -0.001  -4.559  -0.034  0.00  0.00    -0.311 N 
ATOM      5  C   UNL     1       1.233  -3.761  -0.042  0.00  0.00    +0.125 C 
ATOM      6  C   UNL     1       1.206  -2.804   1.151  0.00  0.00    +0.124 C 
ATOM      7  C   UNL     1       0.055  -5.948  -0.040  0.00  0.00    +0.147 A 
ATOM      8  C   UNL     1      -0.032  -6.655  -1.241  0.00  0.00    +0.104 A 
ATOM      9  C   UNL     1       0.029  -8.049  -1.190  0.00  0.00    +0.127 A 
ATOM     10  N   UNL     1       0.167  -8.646  -0.009  0.00  0.00    -0.333 N 
ATOM     11  C   UNL     1       0.245  -7.940   1.101  0.00  0.00    +0.200 A 
ATOM     12  N   UNL     1       0.197  -6.623   1.097  0.00  0.00    -0.221 NA
ATOM     13  H   UNL     1       0.210  -9.614   0.036  0.00  0.00    +0.168 HD
ENDROOT
BRANCH   9  14
ATOM     14  N   UNL     1      -0.053  -8.802  -2.357  0.00  0.00    -0.283 N 
ATOM     15  C   UNL     1      -0.129 -10.190  -2.285  0.00  0.00    +0.142 A 
ATOM     16  C   UNL     1      -0.318 -10.932  -3.448  0.00  0.00    +0.081 A 
ATOM     17  C   UNL     1      -0.392 -12.311  -3.361  0.00  0.00    +0.037 A 
ATOM     18  C   UNL     1      -0.273 -12.904  -2.111  0.00  0.00    +0.074 A 
ATOM     19  C   UNL     1      -0.087 -12.107  -1.000  0.00  0.00    +0.125 A 
ATOM     20  N   UNL     1      -0.016 -10.794  -1.112  0.00  0.00    -0.238 NA
ATOM     21 CL   UNL     1      -0.460 -10.138  -4.985  0.00  0.00    -0.080 Cl
ATOM     22  H   UNL     1      -0.058  -8.360  -3.220  0.00  0.00    +0.155 HD
BRANCH  18  23
ATOM     23  C   UNL     1      -0.348 -14.402  -1.969  0.00  0.00    +0.419 C 
ATOM     24  F   UNL     1       0.936 -14.946  -2.086  0.00  0.00    -0.166 F 
ATOM     25  F   UNL     1      -0.878 -14.726  -0.715  0.00  0.00    -0.166 F 
ATOM     26  F   UNL     1      -1.170 -14.926  -2.972  0.00  0.00    -0.166 F 
ENDBRANCH  18  23
ENDBRANCH   9  14
BRANCH   1  31
ATOM     27  C   UNL     1      -0.243   1.370  -0.011  0.00  0.00    +0.002 A 
ATOM     28  C   UNL     1      -0.254   2.056   1.190  0.00  0.00    +0.003 A 
ATOM     29  C   UNL     1      -0.210   1.363   2.386  0.00  0.00    +0.040 A 
ATOM     30  C   UNL     1      -0.155  -0.018   2.384  0.00  0.00    +0.144 A 
ATOM     31  C   UNL     1      -0.144  -0.710   1.178  0.00  0.00    +0.065 A 
ATOM     32  C   UNL     1      -0.188  -0.010  -0.020  0.00  0.00    +0.026 A 
ATOM     33  F   UNL     1      -0.112  -0.695   3.553  0.00  0.00    -0.204 F 
ENDBRANCH   1  31
BRANCH   8  34
ATOM     34  N   UNL     1      -0.178  -5.984  -2.465  0.00  0.00    -0.353 N 
ATOM     35  H   UNL     1      -0.146  -5.015  -2.494  0.00  0.00    +0.143 HD
ATOM     36  H   UNL     1      -0.310  -6.489  -3.283  0.00  0.00    +0.143 HD
ENDBRANCH   8  34
TORSDOF 4
