REMARK  Name = ZINC12901811
REMARK  6 active torsions:
REMARK  status: ('A' for Active; 'I' for Inactive)
REMARK    1  A    between atoms: C_1  and  C_2
REMARK    2  A    between atoms: C_2  and  C_4
REMARK    3  A    between atoms: C_2  and  N_10
REMARK    4  A    between atoms: C_15  and  C_31
REMARK    5  A    between atoms: C_31  and  C_32
REMARK    6  A    between atoms: C_32  and  C_33
REMARK                            x       y       z     vdW  Elec       q    Type
REMARK                         _______ _______ _______ _____ _____    ______ ____
ROOT
ATOM      1  N   UNL     1       3.840   2.402  -2.247  0.00  0.00    -0.235 N 
ATOM      2  C   UNL     1       4.130   3.487  -1.492  0.00  0.00    +0.225 C 
ATOM      3  O   UNL     1       5.178   4.097  -1.491  0.00  0.00    -0.275 OA
ATOM      4  C   UNL     1       2.927   3.816  -0.638  0.00  0.00    +0.073 C 
ATOM      5  C   UNL     1       3.256   3.515   0.839  0.00  0.00    -0.057 C 
ATOM      6  C   UNL     1       1.664   1.915   0.234  0.00  0.00    +0.050 C 
ATOM      7  C   UNL     1       1.879   2.741  -1.040  0.00  0.00    +0.088 C 
ATOM      8  C   UNL     1       2.608   1.911  -2.071  0.00  0.00    +0.226 C 
ATOM      9  O   UNL     1       2.148   0.950  -2.650  0.00  0.00    -0.275 OA
ATOM     10  C   UNL     1       0.235   1.470   0.369  0.00  0.00    -0.028 A 
ATOM     11  C   UNL     1      -0.965   2.141   0.438  0.00  0.00    +0.004 A 
ATOM     12  C   UNL     1      -2.147   1.434   0.567  0.00  0.00    +0.000 A 
ATOM     13  C   UNL     1      -2.121   0.052   0.619  0.00  0.00    +0.002 A 
ATOM     14  C   UNL     1      -0.921  -0.625   0.546  0.00  0.00    +0.023 A 
ATOM     15  C   UNL     1       0.274   0.079   0.419  0.00  0.00    +0.036 A 
ATOM     16  N   UNL     1       1.593  -0.371   0.325  0.00  0.00    -0.286 N 
ATOM     17  C   UNL     1       2.470   0.645   0.211  0.00  0.00    +0.211 C 
ATOM     18  O   UNL     1       3.675   0.554   0.110  0.00  0.00    -0.277 OA
ATOM     19  H   UNL     1       1.848  -1.307   0.339  0.00  0.00    +0.155 HD
ATOM     20  N   UNL     1       2.082   2.784   1.321  0.00  0.00    +0.394 N 
ATOM     21  H   UNL     1       1.329   3.440   1.561  0.00  0.00    -0.083 HD
ATOM     22  H   UNL     1       2.326   2.226   2.148  0.00  0.00    -0.083 HD
ENDROOT
BRANCH   1  24
ATOM     23  C   UNL     1       6.048   1.366  -2.427  0.00  0.00    +0.033 C 
ATOM     24  C   UNL     1       4.799   1.817  -3.187  0.00  0.00    +0.111 C 
BRANCH  24  25
ATOM     25  C   UNL     1       5.183   2.846  -4.219  0.00  0.00    -0.027 A 
ATOM     26  C   UNL     1       4.256   3.781  -4.641  0.00  0.00    +0.005 A 
ATOM     27  C   UNL     1       4.610   4.728  -5.583  0.00  0.00    +0.000 A 
ATOM     28  C   UNL     1       5.887   4.734  -6.111  0.00  0.00    +0.000 A 
ATOM     29  C   UNL     1       6.813   3.796  -5.693  0.00  0.00    +0.000 A 
ATOM     30  C   UNL     1       6.460   2.852  -4.747  0.00  0.00    +0.005 A 
ENDBRANCH  24  25
ENDBRANCH   1  24
BRANCH   5  31
ATOM     31  C   UNL     1       3.461   4.817   1.615  0.00  0.00    -0.006 C 
BRANCH  31  32
ATOM     32  C   UNL     1       3.831   4.495   3.064  0.00  0.00    +0.094 C 
BRANCH  32  33
ATOM     33  C   UNL     1       4.033   5.778   3.829  0.00  0.00    +0.210 C 
ATOM     34  O   UNL     1       3.893   6.845   3.270  0.00  0.00    -0.276 OA
ATOM     35  N   UNL     1       4.368   5.739   5.134  0.00  0.00    -0.329 N 
ATOM     36  H   UNL     1       4.479   4.885   5.581  0.00  0.00    +0.145 HD
ATOM     37  H   UNL     1       4.497   6.565   5.626  0.00  0.00    +0.145 HD
ENDBRANCH  32  33
ENDBRANCH  31  32
ENDBRANCH   5  31
TORSDOF 5
