REMARK  Name = ZINC55301547
REMARK  5 active torsions:
REMARK  status: ('A' for Active; 'I' for Inactive)
REMARK    1  A    between atoms: C_1  and  C_2
REMARK    2  A    between atoms: C_2  and  N_3
REMARK    3  A    between atoms: N_3  and  C_4
REMARK    4  A    between atoms: C_4  and  C_6
REMARK    5  A    between atoms: C_4  and  C_19
REMARK                            x       y       z     vdW  Elec       q    Type
REMARK                         _______ _______ _______ _____ _____    ______ ____
ROOT
ATOM      1  C   UNL     1      -0.700  -2.467  -1.328  0.00  0.00    -0.043 A 
ATOM      2  C   UNL     1      -1.677  -1.685  -1.912  0.00  0.00    +0.031 A 
ATOM      3  C   UNL     1      -2.974  -2.164  -2.016  0.00  0.00    +0.067 A 
ATOM      4  C   UNL     1      -3.287  -3.436  -1.530  0.00  0.00    +0.068 A 
ATOM      5  C   UNL     1      -2.300  -4.214  -0.946  0.00  0.00    +0.043 A 
ATOM      6  C   UNL     1      -1.009  -3.731  -0.851  0.00  0.00    +0.022 A 
ATOM      7 BR   UNL     1       0.340  -4.795  -0.061  0.00  0.00    -0.050 Br
ATOM      8  N   UNL     1      -4.644  -3.636  -1.772  0.00  0.00    -0.306 N 
ATOM      9  H   UNL     1      -5.150  -4.432  -1.543  0.00  0.00    +0.170 HD
ATOM     10  C   UNL     1      -5.134  -2.538  -2.377  0.00  0.00    +0.325 A 
ATOM     11  O   UNL     1      -6.290  -2.386  -2.725  0.00  0.00    -0.247 OA
ATOM     12  N   UNL     1      -4.151  -1.632  -2.538  0.00  0.00    -0.306 N 
ATOM     13  H   UNL     1      -4.246  -0.758  -2.947  0.00  0.00    +0.170 HD
ENDROOT
BRANCH   1  14
ATOM     14  C   UNL     1       0.710  -1.947  -1.215  0.00  0.00    -0.008 C 
BRANCH  14  15
ATOM     15  C   UNL     1       1.532  -2.439  -2.407  0.00  0.00    +0.134 C 
ATOM     16  C   UNL     1       2.964  -1.908  -2.295  0.00  0.00    +0.190 C 
ATOM     17  O   UNL     1       3.696  -2.279  -3.467  0.00  0.00    -0.375 OA
ATOM     18  C   UNL     1       3.111  -1.800  -4.682  0.00  0.00    +0.188 C 
ATOM     19  C   UNL     1       1.679  -2.331  -4.794  0.00  0.00    +0.188 C 
ATOM     20  O   UNL     1       0.947  -1.961  -3.622  0.00  0.00    -0.373 OA
ENDBRANCH  14  15
BRANCH  14  21
ATOM     21  N   UNL     1       0.690  -0.478  -1.207  0.00  0.00    +0.385 N 
ATOM     22  H   UNL     1       0.202  -0.144  -2.024  0.00  0.00    -0.085 HD
ATOM     23  H   UNL     1       1.636  -0.129  -1.214  0.00  0.00    -0.085 HD
BRANCH  21  25
ATOM     24  C   UNL     1      -0.019   1.526   0.010  0.00  0.00    -0.017 C 
ATOM     25  C   UNL     1       0.002  -0.004   0.002  0.00  0.00    -0.085 C 
ENDBRANCH  21  25
ENDBRANCH  14  21
ENDBRANCH   1  14
TORSDOF 4
