REMARK  Name = ZINC30978069
REMARK  12 active torsions:
REMARK  status: ('A' for Active; 'I' for Inactive)
REMARK    1  A    between atoms: C_1  and  C_2
REMARK    2  A    between atoms: C_2  and  C_3
REMARK    3  A    between atoms: C_2  and  C_4
REMARK    4  A    between atoms: C_2  and  C_5
REMARK    5  A    between atoms: C_8  and  C_11
REMARK    6  A    between atoms: C_13  and  C_16
REMARK    7  A    between atoms: C_16  and  N_17
REMARK    8  A    between atoms: C_20  and  C_23
REMARK    9  A    between atoms: N_25  and  C_26
REMARK   10  A    between atoms: C_26  and  C_27
REMARK   11  A    between atoms: C_30  and  C_33
REMARK   12  A    between atoms: C_33  and  N_34
REMARK                            x       y       z     vdW  Elec       q    Type
REMARK                         _______ _______ _______ _____ _____    ______ ____
ROOT
ATOM      1  N   UNL     1       6.393  -3.677  -5.214  0.00  0.00    +0.386 N 
ATOM      2  C   UNL     1       7.436  -2.865  -4.575  0.00  0.00    -0.077 C 
ATOM      3  C   UNL     1       7.040  -2.572  -3.126  0.00  0.00    -0.006 C 
ATOM      4  C   UNL     1       5.704  -1.824  -3.109  0.00  0.00    +0.071 C 
ATOM      5  C   UNL     1       4.646  -2.670  -3.823  0.00  0.00    -0.006 C 
ATOM      6  C   UNL     1       5.111  -2.960  -5.252  0.00  0.00    -0.077 C 
ATOM      7  H   UNL     1       6.253  -4.582  -4.606  0.00  0.00    -0.081 HD
ENDROOT
BRANCH   4   8
ATOM      8  C   UNL     1       5.279  -1.585  -1.683  0.00  0.00    +0.216 C 
ATOM      9  O   UNL     1       5.975  -1.974  -0.769  0.00  0.00    -0.276 OA
ATOM     10  N   UNL     1       4.124  -0.940  -1.423  0.00  0.00    -0.311 N 
ATOM     11  H   UNL     1       3.493  -0.587  -2.252  0.00  0.00    +0.149 HD
BRANCH  10  12
ATOM     12  C   UNL     1       3.711  -0.707  -0.037  0.00  0.00    +0.139 C 
BRANCH  12  13
ATOM     13  C   UNL     1       2.396   0.029  -0.021  0.00  0.00    -0.030 A 
ATOM     14  C   UNL     1       1.208  -0.679  -0.013  0.00  0.00    +0.005 A 
ATOM     15  C   UNL     1       0.002  -0.004   0.002  0.00  0.00    +0.006 A 
ATOM     16  C   UNL     1      -0.017   1.378   0.010  0.00  0.00    -0.028 A 
ATOM     17  C   UNL     1       1.171   2.086   0.002  0.00  0.00    +0.006 A 
ATOM     18  C   UNL     1       2.377   1.411  -0.015  0.00  0.00    +0.005 A 
BRANCH  16  19
ATOM     19  C   UNL     1      -1.332   2.114   0.020  0.00  0.00    +0.157 C 
BRANCH  19  20
ATOM     20  N   UNL     1      -1.752   2.345   1.404  0.00  0.00    -0.332 N 
ATOM     21  C   UNL     1      -1.446   3.434   2.175  0.00  0.00    +0.107 A 
ATOM     22  C   UNL     1      -2.030   3.240   3.373  0.00  0.00    +0.130 A 
ATOM     23  N   UNL     1      -2.674   2.064   3.335  0.00  0.00    -0.244 NA
ATOM     24  C   UNL     1      -2.517   1.525   2.157  0.00  0.00    +0.199 A 
ENDBRANCH  19  20
ENDBRANCH  16  19
ENDBRANCH  12  13
ENDBRANCH  10  12
ENDBRANCH   4   8
BRANCH   1  25
ATOM     25  C   UNL     1       6.802  -4.094  -6.562  0.00  0.00    +0.022 C 
BRANCH  25  28
ATOM     26  C   UNL     1       4.192  -6.083  -8.028  0.00  0.00    +0.202 A 
ATOM     27  N   UNL     1       4.741  -4.874  -7.777  0.00  0.00    -0.193 NA
ATOM     28  C   UNL     1       5.829  -5.117  -7.088  0.00  0.00    +0.211 A 
ATOM     29  O   UNL     1       5.916  -6.443  -6.946  0.00  0.00    -0.340 OA
ATOM     30  N   UNL     1       4.971  -6.981  -7.483  0.00  0.00    -0.056 NA
BRANCH  26  34
ATOM     31  C   UNL     1       0.603  -6.829 -10.184  0.00  0.00    -0.042 A 
ATOM     32  C   UNL     1       1.327  -7.886  -9.664  0.00  0.00    +0.005 A 
ATOM     33  C   UNL     1       2.492  -7.650  -8.963  0.00  0.00    +0.012 A 
ATOM     34  C   UNL     1       2.940  -6.343  -8.781  0.00  0.00    +0.022 A 
ATOM     35  C   UNL     1       2.205  -5.282  -9.304  0.00  0.00    +0.012 A 
ATOM     36  C   UNL     1       1.043  -5.529 -10.006  0.00  0.00    +0.005 A 
BRANCH  31  38
ATOM     37  C   UNL     1      -1.667  -7.815 -10.041  0.00  0.00    +0.015 C 
ATOM     38  C   UNL     1      -0.669  -7.093 -10.948  0.00  0.00    -0.013 C 
ATOM     39  C   UNL     1      -1.270  -5.764 -11.413  0.00  0.00    +0.015 C 
ATOM     40  C   UNL     1      -0.361  -7.967 -12.165  0.00  0.00    +0.015 C 
ENDBRANCH  31  38
ENDBRANCH  26  34
ENDBRANCH  25  28
ENDBRANCH   1  25
TORSDOF 9
