REMARK  Name = ZINC09190717
REMARK  10 active torsions:
REMARK  status: ('A' for Active; 'I' for Inactive)
REMARK    1  A    between atoms: C_1  and  N_2
REMARK    2  A    between atoms: N_7  and  C_10
REMARK    3  A    between atoms: N_11  and  C_29
REMARK    4  A    between atoms: C_12  and  C_14
REMARK    5  A    between atoms: C_14  and  N_65
REMARK    6  A    between atoms: C_15  and  C_16
REMARK    7  A    between atoms: C_15  and  N_65
REMARK    8  A    between atoms: C_22  and  C_23
REMARK    9  A    between atoms: C_22  and  N_65
REMARK   10  A    between atoms: C_29  and  C_30
REMARK                            x       y       z     vdW  Elec       q    Type
REMARK                         _______ _______ _______ _____ _____    ______ ____
ROOT
ATOM      1  C   UNL     1      -0.887   5.370  -1.690  0.00  0.00    +0.155 C 
ATOM      2  N   UNL     1      -0.528   3.955  -1.809  0.00  0.00    -0.280 N 
ATOM      3  C   UNL     1      -1.330   2.986  -1.228  0.00  0.00    +0.168 A 
ATOM      4  C   UNL     1      -0.972   1.650  -1.361  0.00  0.00    +0.152 A 
ATOM      5  C   UNL     1       0.202   1.321  -2.072  0.00  0.00    +0.282 A 
ATOM      6  O   UNL     1       0.540   0.158  -2.198  0.00  0.00    -0.265 OA
ATOM      7  N   UNL     1       0.942   2.309  -2.616  0.00  0.00    -0.262 N 
ATOM      8  C   UNL     1       0.581   3.597  -2.484  0.00  0.00    +0.333 A 
ATOM      9  O   UNL     1       1.272   4.461  -2.988  0.00  0.00    -0.246 OA
ATOM     10  C   UNL     1       2.158   1.974  -3.361  0.00  0.00    +0.157 C 
ATOM     11  N   UNL     1      -1.941   0.923  -0.700  0.00  0.00    -0.319 N 
ATOM     12  C   UNL     1      -2.830   1.807  -0.207  0.00  0.00    +0.096 A 
ATOM     13  N   UNL     1      -2.459   3.024  -0.516  0.00  0.00    -0.216 NA
ENDROOT
BRANCH  12  14
ATOM     14  C   UNL     1      -4.059   1.450   0.589  0.00  0.00    -0.002 C 
BRANCH  14  15
ATOM     15  N   UNL     1      -3.726   1.486   2.029  0.00  0.00    +0.390 N 
ATOM     16  H   UNL     1      -3.023   0.765   2.227  0.00  0.00    -0.080 HD
BRANCH  15  17
ATOM     17  C   UNL     1      -3.171   2.808   2.386  0.00  0.00    -0.042 C 
BRANCH  17  18
ATOM     18  C   UNL     1      -2.514   2.708   3.739  0.00  0.00    -0.064 A 
ATOM     19  C   UNL     1      -3.243   2.971   4.883  0.00  0.00    +0.002 A 
ATOM     20  C   UNL     1      -2.642   2.874   6.124  0.00  0.00    +0.000 A 
ATOM     21  C   UNL     1      -1.308   2.524   6.220  0.00  0.00    +0.000 A 
ATOM     22  C   UNL     1      -0.577   2.267   5.075  0.00  0.00    +0.000 A 
ATOM     23  C   UNL     1      -1.180   2.358   3.834  0.00  0.00    +0.002 A 
ENDBRANCH  17  18
ENDBRANCH  15  17
BRANCH  15  24
ATOM     24  C   UNL     1      -4.935   1.211   2.833  0.00  0.00    -0.042 C 
BRANCH  24  25
ATOM     25  C   UNL     1      -5.298  -0.243   2.683  0.00  0.00    -0.064 A 
ATOM     26  C   UNL     1      -6.107  -0.650   1.638  0.00  0.00    +0.002 A 
ATOM     27  C   UNL     1      -6.435  -1.985   1.497  0.00  0.00    +0.000 A 
ATOM     28  C   UNL     1      -5.963  -2.913   2.406  0.00  0.00    +0.000 A 
ATOM     29  C   UNL     1      -5.159  -2.506   3.455  0.00  0.00    +0.000 A 
ATOM     30  C   UNL     1      -4.826  -1.171   3.593  0.00  0.00    +0.002 A 
ENDBRANCH  24  25
ENDBRANCH  15  24
ENDBRANCH  14  15
ENDBRANCH  12  14
BRANCH  11  31
ATOM     31  C   UNL     1      -1.992  -0.535  -0.560  0.00  0.00    +0.160 C 
BRANCH  31  32
ATOM     32  C   UNL     1      -1.496  -0.926   0.808  0.00  0.00    -0.009 A 
ATOM     33  C   UNL     1      -2.382  -1.409   1.753  0.00  0.00    +0.007 A 
ATOM     34  C   UNL     1      -1.927  -1.767   3.008  0.00  0.00    +0.000 A 
ATOM     35  C   UNL     1      -0.586  -1.644   3.319  0.00  0.00    +0.001 A 
ATOM     36  C   UNL     1       0.301  -1.162   2.375  0.00  0.00    +0.020 A 
ATOM     37  C   UNL     1      -0.153  -0.807   1.117  0.00  0.00    +0.046 A 
ATOM     38 CL   UNL     1       0.962  -0.208  -0.071  0.00  0.00    -0.083 Cl
ENDBRANCH  31  32
ENDBRANCH  11  31
TORSDOF 8
