REMARK  Name = ZINC63557769
REMARK  10 active torsions:
REMARK  status: ('A' for Active; 'I' for Inactive)
REMARK    1  A    between atoms: C_1  and  C_2
REMARK    2  A    between atoms: C_2  and  C_3
REMARK    3  A    between atoms: C_3  and  O_4
REMARK    4  A    between atoms: O_4  and  C_5
REMARK    5  A    between atoms: C_5  and  C_7
REMARK    6  A    between atoms: C_10  and  N_13
REMARK    7  A    between atoms: C_14  and  C_16
REMARK    8  A    between atoms: N_21  and  C_23
REMARK    9  A    between atoms: C_23  and  C_24
REMARK   10  A    between atoms: C_24  and  C_25
REMARK                            x       y       z     vdW  Elec       q    Type
REMARK                         _______ _______ _______ _____ _____    ______ ____
ROOT
ATOM      1  C   UNL     1      -4.063 -10.357   0.196  0.00  0.00    +0.101 C 
ATOM      2  C   UNL     1      -3.527 -11.021  -1.094  0.00  0.00    +0.110 C 
ATOM      3  C   UNL     1      -4.412 -12.234  -1.282  0.00  0.00    +0.216 C 
ATOM      4  O   UNL     1      -4.159 -13.173  -2.007  0.00  0.00    -0.276 OA
ATOM      5  N   UNL     1      -5.519 -12.120  -0.528  0.00  0.00    -0.300 N 
ATOM      6  C   UNL     1      -5.523 -10.861   0.227  0.00  0.00    +0.121 C 
ENDROOT
BRANCH   1   8
ATOM      7  N   UNL     1      -2.825  -8.226  -0.015  0.00  0.00    -0.285 N 
ATOM      8  C   UNL     1      -4.012  -8.855   0.089  0.00  0.00    +0.222 C 
ATOM      9  O   UNL     1      -5.040  -8.212   0.098  0.00  0.00    -0.275 OA
ATOM     10  H   UNL     1      -2.008  -8.743  -0.098  0.00  0.00    +0.155 HD
BRANCH   7  14
ATOM     11  C   UNL     1      -2.661  -4.064   0.024  0.00  0.00    +0.059 A 
ATOM     12  C   UNL     1      -3.629  -4.734   0.778  0.00  0.00    +0.017 A 
ATOM     13  C   UNL     1      -3.680  -6.110   0.763  0.00  0.00    +0.024 A 
ATOM     14  C   UNL     1      -2.770  -6.833  -0.002  0.00  0.00    +0.033 A 
ATOM     15  C   UNL     1      -1.806  -6.170  -0.754  0.00  0.00    +0.024 A 
ATOM     16  C   UNL     1      -1.752  -4.794  -0.748  0.00  0.00    +0.017 A 
BRANCH  11  17
ATOM     17  C   UNL     1      -2.604  -2.591   0.037  0.00  0.00    +0.339 C 
ATOM     18  O   UNL     1      -1.765  -2.010  -0.623  0.00  0.00    -0.245 OA
BRANCH  17  19
ATOM     19  O   UNL     1      -3.481  -1.889   0.782  0.00  0.00    -0.461 OA
BRANCH  19  20
ATOM     20  C   UNL     1      -3.367  -0.465   0.747  0.00  0.00    +0.232 C 
BRANCH  20  22
ATOM     21  C   UNL     1      -4.316   1.679   1.611  0.00  0.00    +0.007 C 
ATOM     22  C   UNL     1      -4.438   0.154   1.647  0.00  0.00    +0.038 C 
ENDBRANCH  20  22
ENDBRANCH  19  20
ENDBRANCH  17  19
ENDBRANCH  11  17
ENDBRANCH   7  14
ENDBRANCH   1   8
BRANCH   5  23
ATOM     23  C   UNL     1      -6.584 -13.124  -0.466  0.00  0.00    +0.112 C 
BRANCH  23  24
ATOM     24  C   UNL     1      -6.277 -14.126   0.649  0.00  0.00    +0.052 C 
BRANCH  24  25
ATOM     25  C   UNL     1      -7.372 -15.158   0.713  0.00  0.00    -0.040 C 
ATOM     26  C   UNL     1      -7.378 -16.375   0.123  0.00  0.00    +0.000 A 
ATOM     27  C   UNL     1      -6.403 -17.074  -0.723  0.00  0.00    +0.030 A 
ATOM     28  C   UNL     1      -6.698 -18.315  -1.176  0.00  0.00    +0.042 A 
ATOM     29  C   UNL     1      -7.909 -18.947  -0.858  0.00  0.00    +0.022 A 
ATOM     30  C   UNL     1      -8.853 -18.368  -0.087  0.00  0.00    +0.027 A 
ATOM     31  C   UNL     1      -8.648 -17.065   0.444  0.00  0.00    +0.043 A 
ATOM     32  N   UNL     1      -9.398 -16.304   1.203  0.00  0.00    -0.380 N 
ATOM     33  C   UNL     1      -8.685 -15.046   1.455  0.00  0.00    +0.144 C 
ATOM     34 CL   UNL     1      -5.548 -19.145  -2.177  0.00  0.00    -0.084 Cl
ATOM     35  H   UNL     1     -10.276 -16.535   1.544  0.00  0.00    +0.160 HD
ENDBRANCH  24  25
ENDBRANCH  23  24
ENDBRANCH   5  23
TORSDOF 9
