REMARK  Name = ZINC39946076
REMARK  9 active torsions:
REMARK  status: ('A' for Active; 'I' for Inactive)
REMARK    1  A    between atoms: C_1  and  C_2
REMARK    2  A    between atoms: C_5  and  C_8
REMARK    3  A    between atoms: C_9  and  C_34
REMARK    4  A    between atoms: C_11  and  S_14
REMARK    5  A    between atoms: S_14  and  C_15
REMARK    6  A    between atoms: C_15  and  C_17
REMARK    7  A    between atoms: C_15  and  C_23
REMARK    8  A    between atoms: C_23  and  C_25
REMARK    9  A    between atoms: C_37  and  C_40
REMARK                            x       y       z     vdW  Elec       q    Type
REMARK                         _______ _______ _______ _____ _____    ______ ____
ROOT
ATOM      1  C   UNL     1       0.015  -4.250  -0.058  0.00  0.00    +0.075 A 
ATOM      2  C   UNL     1      -0.640  -5.091   0.821  0.00  0.00    +0.098 A 
ATOM      3  N   UNL     1      -0.296  -6.356   0.511  0.00  0.00    -0.221 NA
ATOM      4  C   UNL     1       0.532  -6.351  -0.507  0.00  0.00    +0.168 A 
ATOM      5  N   UNL     1       0.751  -5.065  -0.899  0.00  0.00    -0.332 N 
ATOM      6  H   UNL     1       1.319  -4.775  -1.629  0.00  0.00    +0.168 HD
ENDROOT
BRANCH   1  11
ATOM      7  C   UNL     1      -0.280   1.492  -0.206  0.00  0.00    +0.044 C 
ATOM      8  C   UNL     1      -0.203  -0.012  -0.167  0.00  0.00    -0.050 A 
ATOM      9  C   UNL     1      -0.344  -0.739  -1.336  0.00  0.00    +0.004 A 
ATOM     10  C   UNL     1      -0.274  -2.117  -1.308  0.00  0.00    +0.010 A 
ATOM     11  C   UNL     1      -0.060  -2.777  -0.096  0.00  0.00    +0.000 A 
ATOM     12  C   UNL     1       0.082  -2.037   1.081  0.00  0.00    +0.010 A 
ATOM     13  C   UNL     1       0.015  -0.660   1.037  0.00  0.00    +0.004 A 
ENDBRANCH   1  11
BRANCH   2  14
ATOM     14  C   UNL     1      -1.555  -4.675   1.909  0.00  0.00    +0.002 A 
ATOM     15  C   UNL     1      -2.495  -3.669   1.687  0.00  0.00    +0.010 A 
ATOM     16  C   UNL     1      -3.345  -3.287   2.705  0.00  0.00    +0.004 A 
ATOM     17  C   UNL     1      -3.266  -3.899   3.943  0.00  0.00    -0.050 A 
ATOM     18  C   UNL     1      -2.335  -4.897   4.169  0.00  0.00    +0.004 A 
ATOM     19  C   UNL     1      -1.484  -5.293   3.158  0.00  0.00    +0.010 A 
ATOM     20  C   UNL     1      -4.197  -3.476   5.050  0.00  0.00    +0.044 C 
ENDBRANCH   2  14
BRANCH   4  21
ATOM     21  S   UNL     1       1.242  -7.780  -1.253  0.00  0.00    -0.072 S 
BRANCH  21  22
ATOM     22  C   UNL     1       0.559  -9.161  -0.294  0.00  0.00    +0.155 C 
BRANCH  22  23
ATOM     23  C   UNL     1      -0.932  -9.226  -0.499  0.00  0.00    -0.027 A 
ATOM     24  C   UNL     1      -1.448  -9.419  -1.767  0.00  0.00    +0.005 A 
ATOM     25  C   UNL     1      -2.816  -9.479  -1.956  0.00  0.00    +0.000 A 
ATOM     26  C   UNL     1      -3.669  -9.346  -0.876  0.00  0.00    +0.000 A 
ATOM     27  C   UNL     1      -3.153  -9.153   0.392  0.00  0.00    +0.000 A 
ATOM     28  C   UNL     1      -1.785  -9.098   0.581  0.00  0.00    +0.005 A 
ENDBRANCH  22  23
BRANCH  22  29
ATOM     29  C   UNL     1       1.187 -10.451  -0.754  0.00  0.00    +0.179 C 
ATOM     30  O   UNL     1       1.637 -10.540  -1.879  0.00  0.00    -0.291 OA
BRANCH  29  31
ATOM     31  C   UNL     1       1.250 -11.556   0.121  0.00  0.00    +0.025 C 
ATOM     32  C   UNL     1       1.794 -12.801  -0.142  0.00  0.00    +0.006 A 
ATOM     33  C   UNL     1       2.422 -13.355  -1.282  0.00  0.00    +0.010 A 
ATOM     34  C   UNL     1       2.869 -14.631  -1.260  0.00  0.00    +0.001 A 
ATOM     35  C   UNL     1       2.738 -15.457  -0.132  0.00  0.00    +0.002 A 
ATOM     36  C   UNL     1       2.154 -15.024   1.006  0.00  0.00    +0.026 A 
ATOM     37  C   UNL     1       1.640 -13.646   1.067  0.00  0.00    +0.043 A 
ATOM     38  N   UNL     1       1.044 -12.982   2.016  0.00  0.00    -0.380 N 
ATOM     39  C   UNL     1       0.745 -11.626   1.545  0.00  0.00    +0.152 C 
ATOM     40  H   UNL     1       0.835 -13.328   2.898  0.00  0.00    +0.160 HD
ENDBRANCH  29  31
ENDBRANCH  22  29
ENDBRANCH  21  22
ENDBRANCH   4  21
TORSDOF 7
