REMARK  Name = ZINC11219805
REMARK  10 active torsions:
REMARK  status: ('A' for Active; 'I' for Inactive)
REMARK    1  A    between atoms: C_1  and  C_2
REMARK    2  A    between atoms: C_3  and  C_30
REMARK    3  A    between atoms: C_4  and  C_10
REMARK    4  A    between atoms: N_12  and  C_24
REMARK    5  A    between atoms: C_14  and  C_15
REMARK    6  A    between atoms: C_18  and  N_21
REMARK    7  A    between atoms: C_30  and  O_32
REMARK    8  A    between atoms: O_32  and  C_33
REMARK    9  A    between atoms: C_33  and  C_34
REMARK   10  A    between atoms: C_33  and  C_35
REMARK                            x       y       z     vdW  Elec       q    Type
REMARK                         _______ _______ _______ _____ _____    ______ ____
ROOT
ATOM      1  C   UNL     1       0.499  -0.413  -0.846  0.00  0.00    +0.023 A 
ATOM      2  C   UNL     1      -0.846  -0.378  -0.962  0.00  0.00    +0.121 A 
ATOM      3  N   UNL     1      -1.227   0.925  -1.006  0.00  0.00    -0.239 N 
ATOM      4  N   UNL     1      -0.074   1.717  -0.913  0.00  0.00    -0.166 NA
ATOM      5  C   UNL     1       0.966   0.916  -0.817  0.00  0.00    +0.098 A 
ENDROOT
BRANCH   1   9
ATOM      6  C   UNL     1      -0.461  -5.042  -1.078  0.00  0.00    +0.061 C 
ATOM      7  C   UNL     1       0.431  -3.856  -1.337  0.00  0.00    +0.019 C 
ATOM      8  C   UNL     1       0.438  -2.826  -0.462  0.00  0.00    +0.078 C 
ATOM      9  C   UNL     1       1.351  -1.654  -0.761  0.00  0.00    +0.145 C 
ATOM     10  N   UNL     1       2.159  -1.734  -1.990  0.00  0.00    -0.315 N 
ATOM     11  C   UNL     1       2.042  -2.831  -2.764  0.00  0.00    +0.135 C 
ATOM     12  S   UNL     1       2.976  -2.938  -4.195  0.00  0.00    -0.019 S 
ATOM     13  N   UNL     1       1.219  -3.839  -2.451  0.00  0.00    -0.300 N 
ATOM     14  H   UNL     1       2.762  -1.015  -2.235  0.00  0.00    +0.149 HD
ATOM     15  H   UNL     1       1.179  -4.601  -3.051  0.00  0.00    +0.154 HD
BRANCH   8  16
ATOM     16  C   UNL     1      -0.378  -2.842   0.693  0.00  0.00    +0.339 C 
ATOM     17  O   UNL     1      -1.193  -3.731   0.849  0.00  0.00    -0.245 OA
BRANCH  16  18
ATOM     18  O   UNL     1      -0.252  -1.871   1.621  0.00  0.00    -0.459 OA
BRANCH  18  19
ATOM     19  C   UNL     1      -1.142  -1.921   2.737  0.00  0.00    +0.171 C 
ATOM     20  C   UNL     1      -0.511  -2.751   3.857  0.00  0.00    +0.052 C 
ATOM     21  C   UNL     1      -1.407  -0.501   3.242  0.00  0.00    +0.052 C 
ENDBRANCH  18  19
ENDBRANCH  16  18
ENDBRANCH   8  16
ENDBRANCH   1   9
BRANCH   5  22
ATOM     22  C   UNL     1       2.383   1.340  -0.698  0.00  0.00    +0.003 A 
ATOM     23  C   UNL     1       3.218   0.734   0.239  0.00  0.00    +0.012 A 
ATOM     24  C   UNL     1       4.536   1.129   0.343  0.00  0.00    +0.033 A 
ATOM     25  C   UNL     1       5.027   2.130  -0.476  0.00  0.00    +0.126 A 
ATOM     26  C   UNL     1       4.202   2.738  -1.405  0.00  0.00    +0.033 A 
ATOM     27  C   UNL     1       2.883   2.348  -1.520  0.00  0.00    +0.012 A 
BRANCH  25  28
ATOM     28  N   UNL     1       6.441   2.553  -0.357  0.00  0.00    +0.056 N 
ATOM     29  O   UNL     1       6.875   3.435  -1.076  0.00  0.00    -0.126 OA
ATOM     30  O   UNL     1       7.170   2.019   0.460  0.00  0.00    -0.126 OA
ENDBRANCH  25  28
ENDBRANCH   5  22
BRANCH   3  31
ATOM     31  C   UNL     1      -2.541   1.396  -1.129  0.00  0.00    +0.065 A 
ATOM     32  C   UNL     1      -3.595   0.497  -1.224  0.00  0.00    +0.028 A 
ATOM     33  C   UNL     1      -4.890   0.964  -1.340  0.00  0.00    +0.002 A 
ATOM     34  C   UNL     1      -5.136   2.324  -1.372  0.00  0.00    +0.000 A 
ATOM     35  C   UNL     1      -4.087   3.221  -1.283  0.00  0.00    +0.002 A 
ATOM     36  C   UNL     1      -2.791   2.761  -1.161  0.00  0.00    +0.028 A 
ENDBRANCH   3  31
TORSDOF 7
