REMARK  Name = ZINC01016014
REMARK  5 active torsions:
REMARK  status: ('A' for Active; 'I' for Inactive)
REMARK    1  A    between atoms: C_1  and  C_2
REMARK    2  A    between atoms: C_2  and  N_3
REMARK    3  A    between atoms: C_7  and  C_8
REMARK    4  A    between atoms: N_11  and  C_14
REMARK    5  A    between atoms: C_12  and  C_13
REMARK                            x       y       z     vdW  Elec       q    Type
REMARK                         _______ _______ _______ _____ _____    ______ ____
ROOT
ATOM      1  N   UNL     1       0.688  -0.476  -1.203  0.00  0.00    -0.256 N 
ATOM      2  C   UNL     1      -0.013  -0.691  -2.304  0.00  0.00    +0.258 C 
ATOM      3  O   UNL     1      -1.216  -0.505  -2.342  0.00  0.00    -0.269 OA
ATOM      4  C   UNL     1       0.734  -1.165  -3.483  0.00  0.00    +0.077 C 
ATOM      5  C   UNL     1       0.285  -1.464  -4.729  0.00  0.00    +0.031 C 
ATOM      6  S   UNL     1       2.393  -1.238  -2.821  0.00  0.00    -0.061 S 
ATOM      7  C   UNL     1       2.021  -0.678  -1.167  0.00  0.00    +0.121 C 
ATOM      8  S   UNL     1       3.095  -0.454   0.147  0.00  0.00    -0.027 S 
ENDROOT
BRANCH   5   9
ATOM      9  C   UNL     1       1.227  -1.925  -5.758  0.00  0.00    +0.017 A 
ATOM     10  C   UNL     1       2.620  -2.111  -5.599  0.00  0.00    +0.142 A 
ATOM     11  N   UNL     1       3.105  -2.528  -6.736  0.00  0.00    -0.179 NA
ATOM     12  N   UNL     1       2.064  -2.628  -7.665  0.00  0.00    -0.271 N 
ATOM     13  C   UNL     1       0.917  -2.263  -7.063  0.00  0.00    +0.043 A 
ATOM     14  C   UNL     1      -0.451  -2.227  -7.694  0.00  0.00    +0.066 C 
ATOM     15  C   UNL     1       2.198  -3.061  -9.058  0.00  0.00    +0.172 C 
ENDBRANCH   5   9
BRANCH   1  17
ATOM     16  C   UNL     1      -0.019   1.526   0.010  0.00  0.00    +0.025 C 
ATOM     17  C   UNL     1       0.002  -0.004   0.002  0.00  0.00    +0.111 C 
ENDBRANCH   1  17
TORSDOF 2
