REMARK  Name = ZINC36647915
REMARK  11 active torsions:
REMARK  status: ('A' for Active; 'I' for Inactive)
REMARK    1  A    between atoms: C_1  and  C_2
REMARK    2  A    between atoms: C_2  and  O_3
REMARK    3  A    between atoms: O_3  and  C_4
REMARK    4  A    between atoms: C_4  and  C_6
REMARK    5  A    between atoms: C_10  and  N_11
REMARK    6  A    between atoms: C_12  and  C_14
REMARK    7  A    between atoms: N_19  and  S_21
REMARK    8  A    between atoms: S_21  and  C_24
REMARK    9  A    between atoms: N_30  and  C_33
REMARK   10  A    between atoms: C_33  and  C_34
REMARK   11  A    between atoms: C_33  and  C_35
REMARK                            x       y       z     vdW  Elec       q    Type
REMARK                         _______ _______ _______ _____ _____    ______ ____
ROOT
ATOM      1  C   UNL     1      -2.908  -2.348   0.044  0.00  0.00    +0.091 A 
ATOM      2  C   UNL     1      -3.595  -2.662  -1.193  0.00  0.00    -0.025 A 
ATOM      3  C   UNL     1      -4.825  -3.199  -1.025  0.00  0.00    -0.021 A 
ATOM      4  S   UNL     1      -5.042  -3.279   0.726  0.00  0.00    -0.079 S 
ATOM      5  C   UNL     1      -3.574  -2.635   1.228  0.00  0.00    +0.086 A 
ATOM      6  C   UNL     1      -5.762  -3.616  -2.115  0.00  0.00    -0.035 C 
ATOM      7  N   UNL     1      -5.305  -3.007  -3.377  0.00  0.00    +0.384 N 
ATOM      8  C   UNL     1      -3.875  -3.279  -3.568  0.00  0.00    -0.073 C 
ATOM      9  C   UNL     1      -3.042  -2.438  -2.594  0.00  0.00    +0.018 C 
ATOM     10  H   UNL     1      -5.456  -2.010  -3.342  0.00  0.00    -0.081 HD
ENDROOT
BRANCH   5  11
ATOM     11  N   UNL     1      -3.131  -2.434   2.525  0.00  0.00    -0.279 N 
ATOM     12  C   UNL     1      -3.916  -2.774   3.566  0.00  0.00    +0.222 C 
ATOM     13  O   UNL     1      -5.011  -3.256   3.367  0.00  0.00    -0.275 OA
ATOM     14  H   UNL     1      -2.255  -2.048   2.684  0.00  0.00    +0.155 HD
BRANCH  12  15
ATOM     15  C   UNL     1      -3.434  -2.556   4.977  0.00  0.00    +0.091 C 
ATOM     16  C   UNL     1      -2.150  -3.356   5.208  0.00  0.00    +0.015 C 
ATOM     17  C   UNL     1      -1.642  -3.109   6.630  0.00  0.00    +0.018 C 
ATOM     18  C   UNL     1      -2.696  -3.585   7.635  0.00  0.00    +0.109 C 
ATOM     19  N   UNL     1      -3.973  -2.927   7.328  0.00  0.00    -0.175 NA
ATOM     20  C   UNL     1      -4.509  -3.025   5.963  0.00  0.00    +0.122 C 
BRANCH  19  21
ATOM     21  S   UNL     1      -4.794  -2.091   8.498  0.00  0.00    +0.067 S 
ATOM     22  O   UNL     1      -6.158  -2.070   8.100  0.00  0.00    -0.152 OA
ATOM     23  O   UNL     1      -4.373  -2.622   9.747  0.00  0.00    -0.152 OA
BRANCH  21  24
ATOM     24  C   UNL     1      -4.228  -0.424   8.442  0.00  0.00    +0.143 A 
ATOM     25  C   UNL     1      -4.711   0.618   7.723  0.00  0.00    +0.036 A 
ATOM     26  C   UNL     1      -4.101   1.853   7.838  0.00  0.00    +0.010 A 
ATOM     27  C   UNL     1      -3.036   1.985   8.667  0.00  0.00    +0.047 A 
ATOM     28  S   UNL     1      -2.872   0.333   9.323  0.00  0.00    -0.077 S 
ENDBRANCH  21  24
ENDBRANCH  19  21
ENDBRANCH  12  15
ENDBRANCH   5  11
BRANCH   7  29
ATOM     29  C   UNL     1      -6.065  -3.576  -4.498  0.00  0.00    -0.074 C 
ATOM     30  C   UNL     1      -7.563  -3.411  -4.235  0.00  0.00    -0.014 C 
ATOM     31  C   UNL     1      -5.691  -2.848  -5.790  0.00  0.00    -0.014 C 
ENDBRANCH   7  29
BRANCH   1  32
ATOM     32  C   UNL     1      -1.567  -1.758   0.045  0.00  0.00    +0.342 C 
ATOM     33  O   UNL     1      -0.587  -2.478   0.051  0.00  0.00    -0.245 OA
BRANCH  32  34
ATOM     34  O   UNL     1      -1.420  -0.418   0.040  0.00  0.00    -0.461 OA
BRANCH  34  36
ATOM     35  C   UNL     1      -0.117   1.618   0.036  0.00  0.00    +0.048 C 
ATOM     36  C   UNL     1      -0.083   0.088   0.042  0.00  0.00    +0.229 C 
ENDBRANCH  34  36
ENDBRANCH  32  34
ENDBRANCH   1  32
TORSDOF 8
