REMARK  Name = ZINC40755614
REMARK  4 active torsions:
REMARK  status: ('A' for Active; 'I' for Inactive)
REMARK    1  A    between atoms: C_4  and  N_18
REMARK    2  A    between atoms: C_5  and  N_7
REMARK    3  A    between atoms: N_7  and  C_8
REMARK    4  A    between atoms: N_19  and  C_20
REMARK                            x       y       z     vdW  Elec       q    Type
REMARK                         _______ _______ _______ _____ _____    ______ ____
ROOT
ATOM      1  C   UNL     1      -0.016   1.313   0.009  0.00  0.00    +0.225 A 
ATOM      2  N   UNL     1       1.092   2.027   0.003  0.00  0.00    -0.219 NA
ATOM      3  C   UNL     1       2.285   1.438  -0.012  0.00  0.00    +0.145 A 
ATOM      4  C   UNL     1       2.351   0.044  -0.020  0.00  0.00    +0.105 A 
ATOM      5  C   UNL     1       1.153  -0.672  -0.013  0.00  0.00    +0.145 A 
ATOM      6  N   UNL     1       0.002  -0.004   0.002  0.00  0.00    -0.219 NA
ATOM      7  N   UNL     1       3.448   2.200  -0.019  0.00  0.00    -0.322 N 
ATOM      8  H   UNL     1       4.314   1.763  -0.030  0.00  0.00    +0.148 HD
ENDROOT
BRANCH   7   9
ATOM      9  C   UNL     1       3.366   3.662  -0.011  0.00  0.00    +0.034 C 
ATOM     10  C   UNL     1       2.629   4.125   1.248  0.00  0.00    +0.029 C 
ATOM     11  C   UNL     1       2.543   5.652   1.256  0.00  0.00    -0.008 C 
ATOM     12  C   UNL     1       3.955   6.242   1.245  0.00  0.00    +0.007 C 
ATOM     13  C   UNL     1       4.691   5.780  -0.014  0.00  0.00    -0.008 C 
ATOM     14  C   UNL     1       4.777   4.253  -0.022  0.00  0.00    +0.029 C 
ATOM     15  C   UNL     1       3.931   6.255  -1.253  0.00  0.00    +0.007 C 
ATOM     16  C   UNL     1       2.519   5.665  -1.242  0.00  0.00    -0.008 C 
ATOM     17  C   UNL     1       1.782   6.127   0.017  0.00  0.00    +0.007 C 
ATOM     18  C   UNL     1       2.605   4.137  -1.251  0.00  0.00    +0.029 C 
ENDBRANCH   7   9
BRANCH   4  19
ATOM     19  N   UNL     1       3.589  -0.620  -0.036  0.00  0.00    -0.353 N 
ATOM     20  H   UNL     1       4.413  -0.109  -0.042  0.00  0.00    +0.143 HD
ATOM     21  H   UNL     1       3.619  -1.589  -0.042  0.00  0.00    +0.143 HD
ENDBRANCH   4  19
BRANCH   5  22
ATOM     22  N   UNL     1       1.162  -2.062  -0.021  0.00  0.00    -0.322 N 
ATOM     23  H   UNL     1       2.005  -2.542  -0.032  0.00  0.00    +0.148 HD
BRANCH  22  24
ATOM     24  C   UNL     1      -0.102  -2.803  -0.013  0.00  0.00    +0.034 C 
ATOM     25  C   UNL     1      -0.919  -2.431  -1.252  0.00  0.00    +0.029 C 
ATOM     26  C   UNL     1      -2.239  -3.205  -1.243  0.00  0.00    -0.008 C 
ATOM     27  C   UNL     1      -1.950  -4.707  -1.255  0.00  0.00    +0.007 C 
ATOM     28  C   UNL     1      -1.133  -5.079  -0.015  0.00  0.00    -0.008 C 
ATOM     29  C   UNL     1       0.187  -4.305  -0.024  0.00  0.00    +0.029 C 
ATOM     30  C   UNL     1      -1.926  -4.721   1.244  0.00  0.00    +0.007 C 
ATOM     31  C   UNL     1      -2.215  -3.219   1.255  0.00  0.00    -0.008 C 
ATOM     32  C   UNL     1      -3.032  -2.847   0.016  0.00  0.00    +0.007 C 
ATOM     33  C   UNL     1      -0.895  -2.446   1.247  0.00  0.00    +0.029 C 
ENDBRANCH  22  24
ENDBRANCH   5  22
TORSDOF 4
