REMARK  Name = ZINC01784439
REMARK  12 active torsions:
REMARK  status: ('A' for Active; 'I' for Inactive)
REMARK    1  A    between atoms: C_1  and  C_2
REMARK    2  A    between atoms: C_2  and  C_3
REMARK    3  A    between atoms: N_10  and  C_13
REMARK    4  A    between atoms: C_13  and  C_14
REMARK    5  A    between atoms: N_16  and  N_17
REMARK    6  A    between atoms: C_18  and  C_19
REMARK    7  A    between atoms: C_22  and  O_27
REMARK    8  A    between atoms: C_23  and  O_25
REMARK    9  A    between atoms: O_25  and  C_26
REMARK   10  A    between atoms: O_27  and  C_28
REMARK   11  A    between atoms: C_28  and  C_29
REMARK   12  A    between atoms: C_32  and  C_35
REMARK                            x       y       z     vdW  Elec       q    Type
REMARK                         _______ _______ _______ _____ _____    ______ ____
ROOT
ATOM      1  N   UNL     1       2.385  -2.786  -0.036  0.00  0.00    -0.188 NA
ATOM      2  C   UNL     1       1.250  -2.157  -0.022  0.00  0.00    +0.138 C 
ENDROOT
BRANCH   2   3
ATOM      3  C   UNL     1       1.223  -0.683  -0.013  0.00  0.00    -0.002 A 
ATOM      4  C   UNL     1       2.420   0.039  -0.021  0.00  0.00    +0.013 A 
ATOM      5  C   UNL     1       2.393   1.418  -0.013  0.00  0.00    +0.050 A 
ATOM      6  C   UNL     1       1.180   2.091   0.002  0.00  0.00    +0.162 A 
ATOM      7  C   UNL     1      -0.017   1.378   0.010  0.00  0.00    +0.162 A 
ATOM      8  C   UNL     1       0.002  -0.004   0.002  0.00  0.00    +0.059 A 
BRANCH   7   9
ATOM      9  O   UNL     1      -1.204   2.042   0.019  0.00  0.00    -0.491 OA
ATOM     10  C   UNL     1      -2.391   1.247   0.020  0.00  0.00    +0.277 C 
ENDBRANCH   7   9
BRANCH   6  11
ATOM     11  O   UNL     1       1.159   3.450   0.009  0.00  0.00    -0.484 OA
BRANCH  11  12
ATOM     12  C   UNL     1       2.423   4.118   0.001  0.00  0.00    +0.264 C 
BRANCH  12  13
ATOM     13  C   UNL     1       2.203   5.609   0.010  0.00  0.00    -0.010 A 
ATOM     14  C   UNL     1       2.096   6.300  -1.182  0.00  0.00    +0.007 A 
ATOM     15  C   UNL     1       1.890   7.667  -1.174  0.00  0.00    +0.004 A 
ATOM     16  C   UNL     1       1.800   8.344   0.028  0.00  0.00    -0.050 A 
ATOM     17  C   UNL     1       1.911   7.654   1.221  0.00  0.00    +0.004 A 
ATOM     18  C   UNL     1       2.113   6.287   1.212  0.00  0.00    +0.007 A 
ATOM     19  C   UNL     1       1.580   9.835   0.038  0.00  0.00    +0.044 C 
ENDBRANCH  12  13
ENDBRANCH  11  12
ENDBRANCH   6  11
ENDBRANCH   2   3
BRANCH   1  22
ATOM     20  C   UNL     1       3.589  -4.839  -0.059  0.00  0.00    +0.252 C 
ATOM     21  O   UNL     1       4.628  -4.214  -0.066  0.00  0.00    -0.272 OA
ATOM     22  N   UNL     1       2.410  -4.186  -0.044  0.00  0.00    -0.206 N 
ATOM     23  H   UNL     1       1.578  -4.686  -0.040  0.00  0.00    +0.177 HD
BRANCH  20  24
ATOM     24  C   UNL     1       3.615  -6.346  -0.068  0.00  0.00    +0.223 C 
BRANCH  24  32
ATOM     25  C   UNL     1       9.103  -8.171  -2.164  0.00  0.00    -0.008 A 
ATOM     26  C   UNL     1       7.848  -7.752  -2.396  0.00  0.00    +0.026 A 
ATOM     27  C   UNL     1       6.979  -7.465  -1.270  0.00  0.00    +0.072 A 
ATOM     28  C   UNL     1       7.559  -7.663  -0.004  0.00  0.00    +0.115 A 
ATOM     29  S   UNL     1       9.203  -8.210  -0.384  0.00  0.00    -0.073 S 
ATOM     30  N   UNL     1       6.886  -7.441   1.121  0.00  0.00    -0.230 NA
ATOM     31  C   UNL     1       5.647  -7.027   1.093  0.00  0.00    +0.203 A 
ATOM     32  N   UNL     1       5.005  -6.810  -0.084  0.00  0.00    -0.290 N 
ATOM     33  C   UNL     1       5.617  -7.017  -1.264  0.00  0.00    +0.263 A 
ATOM     34  O   UNL     1       5.025  -6.822  -2.312  0.00  0.00    -0.267 OA
BRANCH  25  36
ATOM     35  C   UNL     1      10.988  -7.275  -3.503  0.00  0.00    +0.009 C 
ATOM     36  C   UNL     1      10.170  -8.524  -3.168  0.00  0.00    +0.039 C 
ENDBRANCH  25  36
ENDBRANCH  24  32
ENDBRANCH  20  24
ENDBRANCH   1  22
TORSDOF 9
