REMARK  Name = ZINC28338055
REMARK  7 active torsions:
REMARK  status: ('A' for Active; 'I' for Inactive)
REMARK    1  A    between atoms: C_4  and  C_7
REMARK    2  A    between atoms: C_8  and  C_9
REMARK    3  A    between atoms: N_11  and  C_12
REMARK    4  A    between atoms: C_12  and  C_14
REMARK    5  A    between atoms: C_12  and  N_18
REMARK    6  A    between atoms: N_18  and  C_19
REMARK    7  A    between atoms: C_19  and  N_21
REMARK                            x       y       z     vdW  Elec       q    Type
REMARK                         _______ _______ _______ _____ _____    ______ ____
ROOT
ATOM      1  C   UNL     1      -1.298   1.683   0.021  0.00  0.00    +0.211 C 
ENDROOT
BRANCH   1   4
ATOM      2  C   UNL     1       1.138   1.653   0.009  0.00  0.00    +0.238 C 
ATOM      3  O   UNL     1       1.124   2.870   0.014  0.00  0.00    -0.271 OA
ATOM      4  N   UNL     1      -0.021   0.966   0.015  0.00  0.00    -0.290 N 
ATOM      5  H   UNL     1      -0.009  -0.134   0.015  0.00  0.00    +0.151 HD
BRANCH   2   7
ATOM      6  C   UNL     1       3.574   1.623  -0.010  0.00  0.00    +0.013 C 
ATOM      7  C   UNL     1       2.414   0.935  -0.004  0.00  0.00    +0.068 C 
BRANCH   6  11
ATOM      8  C   UNL     1       7.272  -0.456  -0.044  0.00  0.00    +0.000 A 
ATOM      9  C   UNL     1       7.260   0.928  -0.040  0.00  0.00    +0.001 A 
ATOM     10  C   UNL     1       6.062   1.611  -0.028  0.00  0.00    +0.008 A 
ATOM     11  C   UNL     1       4.857   0.902  -0.022  0.00  0.00    -0.025 A 
ATOM     12  C   UNL     1       4.878  -0.497  -0.022  0.00  0.00    +0.008 A 
ATOM     13  C   UNL     1       6.083  -1.165  -0.039  0.00  0.00    +0.001 A 
ENDBRANCH   6  11
ENDBRANCH   2   7
ENDBRANCH   1   4
BRANCH   1  14
ATOM     14  C   UNL     1      -2.240   1.040   1.041  0.00  0.00    +0.225 C 
ATOM     15 CL   UNL     1      -1.496   1.122   2.681  0.00  0.00    -0.080 Cl
ATOM     16 CL   UNL     1      -3.812   1.923   1.049  0.00  0.00    -0.080 Cl
ATOM     17 CL   UNL     1      -2.522  -0.684   0.595  0.00  0.00    -0.080 Cl
ENDBRANCH   1  14
BRANCH   1  18
ATOM     18  N   UNL     1      -1.903   1.616  -1.312  0.00  0.00    -0.305 N 
ATOM     19  H   UNL     1      -2.373   0.683  -1.656  0.00  0.00    +0.150 HD
BRANCH  18  20
ATOM     20  C   UNL     1      -1.883   2.698  -2.116  0.00  0.00    +0.137 C 
ATOM     21  S   UNL     1      -1.152   4.150  -1.579  0.00  0.00    -0.018 S 
BRANCH  20  22
ATOM     22  N   UNL     1      -2.439   2.636  -3.342  0.00  0.00    -0.282 N 
ATOM     23  C   UNL     1      -2.516   3.783  -4.130  0.00  0.00    +0.124 A 
ATOM     24  C   UNL     1      -3.186   3.737  -5.348  0.00  0.00    +0.044 A 
ATOM     25  C   UNL     1      -3.255   4.883  -6.121  0.00  0.00    +0.005 A 
ATOM     26  C   UNL     1      -2.649   6.039  -5.648  0.00  0.00    +0.020 A 
ATOM     27  C   UNL     1      -2.001   6.012  -4.429  0.00  0.00    +0.113 A 
ATOM     28  N   UNL     1      -1.956   4.906  -3.711  0.00  0.00    -0.240 NA
ATOM     29  H   UNL     1      -2.833   1.681  -3.720  0.00  0.00    +0.155 HD
ENDBRANCH  20  22
ENDBRANCH  18  20
ENDBRANCH   1  18
TORSDOF 7
