REMARK  Name = ZINC34757315
REMARK  7 active torsions:
REMARK  status: ('A' for Active; 'I' for Inactive)
REMARK    1  A    between atoms: C_1  and  C_2
REMARK    2  A    between atoms: C_2  and  C_3
REMARK    3  A    between atoms: C_2  and  C_4
REMARK    4  A    between atoms: C_4  and  S_5
REMARK    5  A    between atoms: S_5  and  C_6
REMARK    6  A    between atoms: N_21  and  C_24
REMARK    7  A    between atoms: C_24  and  C_25
REMARK                            x       y       z     vdW  Elec       q    Type
REMARK                         _______ _______ _______ _____ _____    ______ ____
ROOT
ATOM      1  C   UNL     1       0.882  -0.549   4.068  0.00  0.00    +0.191 A 
ATOM      2  N   UNL     1       0.464  -0.390   5.318  0.00  0.00    -0.206 NA
ATOM      3  C   UNL     1       1.050  -0.996   6.338  0.00  0.00    +0.134 A 
ATOM      4  C   UNL     1       2.164  -1.846   6.091  0.00  0.00    +0.051 A 
ATOM      5  C   UNL     1       2.961  -2.613   7.063  0.00  0.00    -0.025 A 
ATOM      6  C   UNL     1       3.972  -3.347   6.574  0.00  0.00    -0.004 A 
ATOM      7  S   UNL     1       3.933  -3.077   4.817  0.00  0.00    -0.073 S 
ATOM      8  C   UNL     1       2.552  -1.969   4.745  0.00  0.00    +0.115 A 
ATOM      9  N   UNL     1       1.912  -1.335   3.780  0.00  0.00    -0.215 NA
ATOM     10  C   UNL     1       4.717  -4.082   7.657  0.00  0.00    +0.043 C 
ATOM     11  C   UNL     1       4.303  -3.370   8.963  0.00  0.00    +0.010 C 
ATOM     12  C   UNL     1       2.923  -2.797   8.583  0.00  0.00    +0.037 C 
ATOM     13  N   UNL     1       0.587  -0.804   7.627  0.00  0.00    -0.318 N 
ATOM     14  C   UNL     1      -0.382  -1.734   8.228  0.00  0.00    +0.088 C 
ATOM     15  C   UNL     1      -1.540  -0.919   8.811  0.00  0.00    -0.059 C 
ATOM     16  N   UNL     1      -1.011   0.088   9.739  0.00  0.00    +0.384 N 
ATOM     17  C   UNL     1      -0.177   1.052   9.008  0.00  0.00    -0.059 C 
ATOM     18  C   UNL     1       1.053   0.331   8.437  0.00  0.00    +0.088 C 
ATOM     19  H   UNL     1      -0.454  -0.367  10.446  0.00  0.00    -0.081 HD
ENDROOT
BRANCH   1  20
ATOM     20  S   UNL     1       0.048   0.292   2.764  0.00  0.00    -0.086 S 
BRANCH  20  21
ATOM     21  C   UNL     1       0.940  -0.220   1.269  0.00  0.00    +0.080 C 
BRANCH  21  23
ATOM     22  C   UNL     1       0.505   1.962   0.134  0.00  0.00    +0.008 C 
ATOM     23  C   UNL     1       0.309   0.448   0.045  0.00  0.00    -0.007 C 
ATOM     24  C   UNL     1       0.980  -0.080  -1.225  0.00  0.00    +0.008 C 
ENDBRANCH  21  23
ENDBRANCH  20  21
ENDBRANCH   1  20
BRANCH  16  25
ATOM     25  C   UNL     1      -2.127   0.796  10.380  0.00  0.00    -0.043 C 
BRANCH  25  26
ATOM     26  C   UNL     1      -1.589   1.744  11.421  0.00  0.00    -0.064 A 
ATOM     27  C   UNL     1      -1.411   1.312  12.722  0.00  0.00    +0.002 A 
ATOM     28  C   UNL     1      -0.918   2.181  13.678  0.00  0.00    +0.000 A 
ATOM     29  C   UNL     1      -0.603   3.482  13.331  0.00  0.00    +0.000 A 
ATOM     30  C   UNL     1      -0.779   3.913  12.030  0.00  0.00    +0.000 A 
ATOM     31  C   UNL     1      -1.269   3.042  11.074  0.00  0.00    +0.002 A 
ENDBRANCH  25  26
ENDBRANCH  16  25
TORSDOF 5
