REMARK  Name = ZINC36638047
REMARK  11 active torsions:
REMARK  status: ('A' for Active; 'I' for Inactive)
REMARK    1  A    between atoms: C_1  and  C_2
REMARK    2  A    between atoms: C_2  and  N_3
REMARK    3  A    between atoms: N_3  and  C_4
REMARK    4  A    between atoms: N_3  and  C_6
REMARK    5  A    between atoms: C_4  and  C_5
REMARK    6  A    between atoms: C_6  and  C_7
REMARK    7  A    between atoms: C_7  and  N_8
REMARK    8  A    between atoms: C_19  and  C_21
REMARK    9  A    between atoms: C_24  and  S_27
REMARK   10  A    between atoms: S_27  and  N_30
REMARK   11  A    between atoms: C_35  and  C_37
REMARK                            x       y       z     vdW  Elec       q    Type
REMARK                         _______ _______ _______ _____ _____    ______ ____
ROOT
ATOM      1  N   UNL     1      -3.907  -5.564  -0.239  0.00  0.00    -0.248 N 
ATOM      2  C   UNL     1      -4.149  -6.429   0.815  0.00  0.00    +0.168 A 
ATOM      3  N   UNL     1      -4.822  -6.211   1.921  0.00  0.00    -0.221 NA
ATOM      4  C   UNL     1      -4.979  -7.157   2.873  0.00  0.00    +0.115 A 
ATOM      5  C   UNL     1      -5.675  -7.053   4.101  0.00  0.00    +0.150 A 
ATOM      6  C   UNL     1      -5.739  -8.120   4.963  0.00  0.00    +0.040 A 
ATOM      7  C   UNL     1      -5.129  -9.329   4.664  0.00  0.00    +0.004 A 
ATOM      8  C   UNL     1      -4.441  -9.465   3.473  0.00  0.00    +0.017 A 
ATOM      9  C   UNL     1      -4.372  -8.403   2.604  0.00  0.00    +0.044 A 
ATOM     10  S   UNL     1      -3.631  -8.128   1.013  0.00  0.00    -0.052 S 
ATOM     11  F   UNL     1      -6.283  -5.892   4.430  0.00  0.00    -0.203 F 
ATOM     12  C   UNL     1      -3.281  -6.009  -1.346  0.00  0.00    +0.252 C 
ATOM     13  O   UNL     1      -2.990  -7.185  -1.448  0.00  0.00    -0.270 OA
ENDROOT
BRANCH  12  14
ATOM     14  C   UNL     1      -2.948  -5.068  -2.436  0.00  0.00    +0.037 A 
ATOM     15  C   UNL     1      -2.721  -3.720  -2.153  0.00  0.00    +0.015 A 
ATOM     16  C   UNL     1      -2.411  -2.847  -3.175  0.00  0.00    +0.029 A 
ATOM     17  C   UNL     1      -2.325  -3.305  -4.478  0.00  0.00    +0.106 A 
ATOM     18  C   UNL     1      -2.548  -4.640  -4.765  0.00  0.00    +0.029 A 
ATOM     19  C   UNL     1      -2.853  -5.525  -3.752  0.00  0.00    +0.015 A 
BRANCH  17  20
ATOM     20  S   UNL     1      -1.929  -2.183  -5.778  0.00  0.00    +0.061 S 
ATOM     21  O   UNL     1      -2.444  -2.749  -6.975  0.00  0.00    -0.153 OA
ATOM     22  O   UNL     1      -2.303  -0.889  -5.325  0.00  0.00    -0.153 OA
BRANCH  20  23
ATOM     23  N   UNL     1      -0.280  -2.173  -5.931  0.00  0.00    -0.174 NA
ATOM     24  C   UNL     1       0.526  -1.134  -5.276  0.00  0.00    +0.110 C 
ATOM     25  C   UNL     1       1.421  -0.469  -6.326  0.00  0.00    +0.017 C 
ATOM     26  C   UNL     1       2.242  -1.542  -7.045  0.00  0.00    +0.003 C 
ATOM     27  C   UNL     1       1.301  -2.514  -7.758  0.00  0.00    +0.020 C 
ATOM     28  C   UNL     1       0.405  -3.206  -6.720  0.00  0.00    +0.077 C 
ATOM     29  C   UNL     1      -0.631  -4.078  -7.432  0.00  0.00    +0.026 C 
ENDBRANCH  20  23
ENDBRANCH  17  20
ENDBRANCH  12  14
BRANCH   1  30
ATOM     30  C   UNL     1      -4.331  -4.164  -0.150  0.00  0.00    +0.097 C 
BRANCH  30  31
ATOM     31  C   UNL     1      -3.442  -3.424   0.851  0.00  0.00    -0.059 C 
BRANCH  31  32
ATOM     32  N   UNL     1      -3.841  -2.012   0.909  0.00  0.00    +0.380 N 
ATOM     33  H   UNL     1      -3.811  -1.615  -0.018  0.00  0.00    -0.082 HD
BRANCH  32  35
ATOM     34  C   UNL     1      -5.670  -0.453   1.385  0.00  0.00    -0.017 C 
ATOM     35  C   UNL     1      -5.207  -1.911   1.440  0.00  0.00    -0.082 C 
ENDBRANCH  32  35
BRANCH  32  36
ATOM     36  C   UNL     1      -2.920  -1.278   1.787  0.00  0.00    -0.082 C 
ATOM     37  C   UNL     1      -1.525  -1.255   1.157  0.00  0.00    -0.017 C 
ENDBRANCH  32  36
ENDBRANCH  31  32
ENDBRANCH  30  31
ENDBRANCH   1  30
TORSDOF 8
