REMARK  Name = ZINC13499248
REMARK  12 active torsions:
REMARK  status: ('A' for Active; 'I' for Inactive)
REMARK    1  A    between atoms: C_1  and  C_2
REMARK    2  A    between atoms: C_2  and  C_3
REMARK    3  A    between atoms: C_3  and  C_4
REMARK    4  A    between atoms: C_4  and  C_6
REMARK    5  A    between atoms: C_4  and  N_17
REMARK    6  A    between atoms: N_10  and  C_11
REMARK    7  A    between atoms: N_17  and  C_18
REMARK    8  A    between atoms: N_17  and  C_24
REMARK    9  A    between atoms: C_18  and  C_19
REMARK   10  A    between atoms: C_24  and  C_25
REMARK   11  A    between atoms: C_29  and  C_37
REMARK   12  A    between atoms: C_37  and  C_38
REMARK                            x       y       z     vdW  Elec       q    Type
REMARK                         _______ _______ _______ _____ _____    ______ ____
ROOT
ATOM      1  N   UNL     1       1.822  -2.562   0.004  0.00  0.00    -0.281 NA
ENDROOT
BRANCH   1   2
ATOM      2  C   UNL     1       1.352  -2.303  -1.364  0.00  0.00    +0.127 C 
BRANCH   2   3
ATOM      3  C   UNL     1       2.169  -3.114  -2.337  0.00  0.00    +0.169 A 
ATOM      4  N   UNL     1       3.471  -3.259  -2.335  0.00  0.00    -0.112 NA
ATOM      5  N   UNL     1       3.788  -4.025  -3.322  0.00  0.00    -0.023 NA
ATOM      6  N   UNL     1       2.721  -4.372  -3.954  0.00  0.00    -0.044 NA
ATOM      7  N   UNL     1       1.701  -3.835  -3.374  0.00  0.00    -0.225 N 
BRANCH   7   8
ATOM      8  C   UNL     1       0.298  -3.979  -3.771  0.00  0.00    +0.111 C 
ATOM      9  C   UNL     1      -0.099  -5.455  -3.712  0.00  0.00    +0.027 C 
ATOM     10  C   UNL     1      -1.564  -5.606  -4.127  0.00  0.00    +0.002 C 
ATOM     11  C   UNL     1      -1.746  -5.085  -5.553  0.00  0.00    +0.000 C 
ATOM     12  C   UNL     1      -1.349  -3.609  -5.612  0.00  0.00    +0.002 C 
ATOM     13  C   UNL     1       0.116  -3.458  -5.197  0.00  0.00    +0.027 C 
ENDBRANCH   7   8
ENDBRANCH   2   3
BRANCH   2  14
ATOM     14  C   UNL     1       1.507  -0.815  -1.684  0.00  0.00    +0.026 C 
BRANCH  14  16
ATOM     15  C   UNL     1       0.667   1.477  -1.152  0.00  0.00    +0.004 C 
ATOM     16  C   UNL     1       0.623   0.004  -0.742  0.00  0.00    -0.001 C 
ENDBRANCH  14  16
ENDBRANCH   2  14
ENDBRANCH   1   2
BRANCH   1  17
ATOM     17  C   UNL     1       2.993  -1.734   0.323  0.00  0.00    +0.159 C 
BRANCH  17  18
ATOM     18  C   UNL     1       3.600  -2.202   1.621  0.00  0.00    +0.119 A 
ATOM     19  C   UNL     1       4.605  -3.087   1.745  0.00  0.00    +0.046 A 
ATOM     20  C   UNL     1       4.854  -3.233   3.129  0.00  0.00    +0.041 A 
ATOM     21  C   UNL     1       3.986  -2.428   3.768  0.00  0.00    +0.195 A 
ATOM     22  O   UNL     1       3.232  -1.802   2.849  0.00  0.00    -0.467 OA
ENDBRANCH  17  18
ENDBRANCH   1  17
BRANCH   1  23
ATOM     23  C   UNL     1       0.745  -2.349   0.979  0.00  0.00    +0.126 C 
BRANCH  23  24
ATOM     24  C   UNL     1      -0.173  -3.544   0.984  0.00  0.00    +0.031 A 
ATOM     25  C   UNL     1       0.051  -4.564   1.849  0.00  0.00    +0.020 A 
ATOM     26  C   UNL     1      -0.860  -5.711   1.828  0.00  0.00    -0.001 A 
ATOM     27  C   UNL     1      -0.681  -6.793   2.696  0.00  0.00    +0.013 A 
ATOM     28  C   UNL     1      -1.548  -7.847   2.652  0.00  0.00    -0.047 A 
ATOM     29  C   UNL     1      -2.605  -7.855   1.752  0.00  0.00    +0.005 A 
ATOM     30  C   UNL     1      -2.800  -6.801   0.887  0.00  0.00    +0.026 A 
ATOM     31  C   UNL     1      -1.931  -5.715   0.915  0.00  0.00    +0.049 A 
ATOM     32  N   UNL     1      -2.103  -4.646   0.061  0.00  0.00    -0.322 N 
ATOM     33  H   UNL     1      -2.842  -4.651  -0.568  0.00  0.00    +0.169 HD
ATOM     34  C   UNL     1      -1.265  -3.595   0.091  0.00  0.00    +0.254 A 
ATOM     35  O   UNL     1      -1.451  -2.665  -0.674  0.00  0.00    -0.268 OA
BRANCH  28  36
ATOM     36  C   UNL     1      -1.355  -9.012   3.588  0.00  0.00    +0.032 C 
ATOM     37  C   UNL     1      -2.127  -8.759   4.884  0.00  0.00    +0.009 C 
ENDBRANCH  28  36
ENDBRANCH  23  24
ENDBRANCH   1  23
TORSDOF 10
