REMARK  Name = ZINC15658641
REMARK  4 active torsions:
REMARK  status: ('A' for Active; 'I' for Inactive)
REMARK    1  A    between atoms: C_3  and  N_35
REMARK    2  A    between atoms: C_6  and  C_7
REMARK    3  A    between atoms: C_18  and  S_31
REMARK    4  A    between atoms: S_31  and  N_34
REMARK                            x       y       z     vdW  Elec       q    Type
REMARK                         _______ _______ _______ _____ _____    ______ ____
ROOT
ATOM      1  C   UNL     1      -0.328   3.046   1.549  0.00  0.00    +0.108 C 
ATOM      2  C   UNL     1      -0.957   1.678   1.243  0.00  0.00    +0.029 C 
ATOM      3  C   UNL     1      -0.221   1.052   0.023  0.00  0.00    +0.033 C 
ATOM      4  C   UNL     1      -0.929   1.661  -1.171  0.00  0.00    -0.030 C 
ATOM      5  C   UNL     1      -2.120   2.086  -0.831  0.00  0.00    -0.023 C 
ATOM      6  C   UNL     1      -2.373   1.828   0.636  0.00  0.00    +0.049 C 
ATOM      7  C   UNL     1      -3.102   2.982   1.262  0.00  0.00    -0.017 A 
ATOM      8  C   UNL     1      -4.415   2.891   1.658  0.00  0.00    +0.034 A 
ATOM      9  C   UNL     1      -5.045   3.983   2.231  0.00  0.00    +0.106 A 
ATOM     10  C   UNL     1      -4.351   5.168   2.409  0.00  0.00    +0.034 A 
ATOM     11  C   UNL     1      -3.037   5.265   2.015  0.00  0.00    -0.017 A 
ATOM     12  C   UNL     1      -2.394   4.176   1.427  0.00  0.00    +0.038 A 
ATOM     13  N   UNL     1      -1.077   4.166   0.990  0.00  0.00    -0.322 N 
ATOM     14  C   UNL     1      -0.336   5.430   1.048  0.00  0.00    +0.110 C 
ATOM     15  C   UNL     1      -1.319   6.570   0.916  0.00  0.00    +0.021 C 
ATOM     16  C   UNL     1      -2.227   6.497   2.187  0.00  0.00    +0.048 C 
ATOM     17  C   UNL     1      -2.868   7.839   2.207  0.00  0.00    -0.023 C 
ATOM     18  C   UNL     1      -2.056   8.710   1.623  0.00  0.00    -0.030 C 
ATOM     19  C   UNL     1      -0.798   7.997   1.123  0.00  0.00    +0.033 C 
ENDROOT
BRANCH   1  25
ATOM     20  C   UNL     1       0.984   3.348   3.659  0.00  0.00    +0.008 A 
ATOM     21  C   UNL     1       1.058   3.508   5.030  0.00  0.00    +0.033 A 
ATOM     22  C   UNL     1      -0.098   3.525   5.787  0.00  0.00    +0.126 A 
ATOM     23  C   UNL     1      -1.328   3.386   5.173  0.00  0.00    +0.033 A 
ATOM     24  C   UNL     1      -1.403   3.231   3.802  0.00  0.00    +0.008 A 
ATOM     25  C   UNL     1      -0.247   3.215   3.044  0.00  0.00    -0.027 A 
BRANCH  22  26
ATOM     26  N   UNL     1      -0.018   3.691   7.256  0.00  0.00    +0.056 N 
ATOM     27  O   UNL     1      -1.036   3.705   7.923  0.00  0.00    -0.126 OA
ATOM     28  O   UNL     1       1.067   3.813   7.797  0.00  0.00    -0.126 OA
ENDBRANCH  22  26
ENDBRANCH   1  25
BRANCH   9  29
ATOM     29  S   UNL     1      -6.730   3.864   2.733  0.00  0.00    +0.056 S 
ATOM     30  O   UNL     1      -7.246   5.189   2.739  0.00  0.00    -0.153 OA
ATOM     31  O   UNL     1      -7.312   2.824   1.959  0.00  0.00    -0.153 OA
BRANCH  29  32
ATOM     32  N   UNL     1      -6.738   3.346   4.305  0.00  0.00    -0.204 NA
ATOM     33  H   UNL     1      -5.900   3.171   4.762  0.00  0.00    +0.144 HD
ATOM     34  H   UNL     1      -7.580   3.216   4.769  0.00  0.00    +0.144 HD
ENDBRANCH  29  32
ENDBRANCH   9  29
TORSDOF 4
