REMARK  Name = ZINC39654719
REMARK  4 active torsions:
REMARK  status: ('A' for Active; 'I' for Inactive)
REMARK    1  A    between atoms: C_4  and  C_8
REMARK    2  A    between atoms: C_12  and  C_21
REMARK    3  A    between atoms: N_23  and  C_24
REMARK    4  A    between atoms: C_24  and  C_25
REMARK                            x       y       z     vdW  Elec       q    Type
REMARK                         _______ _______ _______ _____ _____    ______ ____
ROOT
ATOM      1  C   UNL     1       3.676  -0.681  -0.046  0.00  0.00    +0.249 C 
ATOM      2  O   UNL     1       4.212  -0.981   1.003  0.00  0.00    -0.270 OA
ATOM      3  N   UNL     1       4.261  -1.003  -1.217  0.00  0.00    -0.296 N 
ATOM      4  C   UNL     1       3.769  -0.719  -2.586  0.00  0.00    +0.121 C 
ATOM      5  C   UNL     1       5.035  -0.340  -3.385  0.00  0.00    +0.100 C 
ATOM      6  C   UNL     1       6.194  -1.002  -2.621  0.00  0.00    -0.004 C 
ATOM      7  C   UNL     1       5.544  -1.715  -1.427  0.00  0.00    +0.115 C 
ATOM      8  C   UNL     1       6.910  -2.010  -3.515  0.00  0.00    -0.010 C 
ATOM      9  C   UNL     1       8.093  -2.612  -2.753  0.00  0.00    -0.082 C 
ATOM     10  N   UNL     1       9.015  -1.542  -2.353  0.00  0.00    +0.379 N 
ATOM     11  C   UNL     1       8.347  -0.627  -1.420  0.00  0.00    -0.082 C 
ATOM     12  C   UNL     1       7.174   0.058  -2.126  0.00  0.00    -0.010 C 
ATOM     13  H   UNL     1       9.824  -1.946  -1.905  0.00  0.00    -0.086 HD
ATOM     14  H   UNL     1       9.309  -1.029  -3.171  0.00  0.00    -0.086 HD
ENDROOT
BRANCH   1  18
ATOM     15  C   UNL     1      -0.037   1.381  -0.022  0.00  0.00    +0.003 A 
ATOM     16  C   UNL     1       1.147   2.096  -0.023  0.00  0.00    +0.021 A 
ATOM     17  C   UNL     1       2.358   1.433  -0.031  0.00  0.00    +0.054 A 
ATOM     18  C   UNL     1       2.385   0.035  -0.037  0.00  0.00    +0.073 A 
ATOM     19  C   UNL     1       1.185  -0.680  -0.036  0.00  0.00    +0.054 A 
ATOM     20  C   UNL     1      -0.018  -0.002  -0.029  0.00  0.00    +0.021 A 
ATOM     21 CL   UNL     1       1.206  -2.416  -0.045  0.00  0.00    -0.083 Cl
ATOM     22 CL   UNL     1       3.843   2.332  -0.033  0.00  0.00    -0.083 Cl
ENDBRANCH   1  18
BRANCH   5  23
ATOM     23  C   UNL     1       5.209   1.157  -3.414  0.00  0.00    +0.219 C 
ATOM     24  O   UNL     1       4.734   1.839  -2.531  0.00  0.00    -0.275 OA
ATOM     25  N   UNL     1       5.893   1.737  -4.420  0.00  0.00    -0.308 N 
ATOM     26  H   UNL     1       6.272   1.191  -5.126  0.00  0.00    +0.149 HD
BRANCH  25  27
ATOM     27  C   UNL     1       6.061   3.192  -4.447  0.00  0.00    +0.178 C 
BRANCH  27  28
ATOM     28  C   UNL     1       6.857   3.582  -5.667  0.00  0.00    +0.122 A 
ATOM     29  C   UNL     1       6.347   3.888  -6.873  0.00  0.00    +0.046 A 
ATOM     30  C   UNL     1       7.442   4.191  -7.715  0.00  0.00    +0.041 A 
ATOM     31  C   UNL     1       8.555   4.053  -6.972  0.00  0.00    +0.195 A 
ATOM     32  O   UNL     1       8.194   3.690  -5.731  0.00  0.00    -0.466 OA
ENDBRANCH  27  28
ENDBRANCH  25  27
ENDBRANCH   5  23
TORSDOF 4
