REMARK  Name = ZINC11675461
REMARK  10 active torsions:
REMARK  status: ('A' for Active; 'I' for Inactive)
REMARK    1  A    between atoms: C_1  and  C_2
REMARK    2  A    between atoms: C_3  and  C_12
REMARK    3  A    between atoms: C_12  and  C_13
REMARK    4  A    between atoms: C_13  and  C_14
REMARK    5  A    between atoms: N_16  and  C_17
REMARK    6  A    between atoms: C_19  and  C_24
REMARK    7  A    between atoms: C_22  and  O_23
REMARK    8  A    between atoms: C_24  and  C_25
REMARK    9  A    between atoms: C_24  and  C_26
REMARK   10  A    between atoms: C_24  and  C_27
REMARK                            x       y       z     vdW  Elec       q    Type
REMARK                         _______ _______ _______ _____ _____    ______ ____
ROOT
ATOM      1  C   UNL     1       0.061  -0.658  -3.587  0.00  0.00    +0.218 C 
ATOM      2  O   UNL     1       0.078  -1.871  -3.594  0.00  0.00    -0.275 OA
ATOM      3  N   UNL     1      -0.033   0.008  -2.419  0.00  0.00    -0.283 N 
ATOM      4  H   UNL     1      -0.111   0.974  -2.417  0.00  0.00    +0.155 HD
ENDROOT
BRANCH   3   5
ATOM      5  C   UNL     1      -0.017  -0.697  -1.207  0.00  0.00    +0.076 A 
ATOM      6  C   UNL     1      -0.603  -1.951  -1.125  0.00  0.00    +0.031 A 
ATOM      7  C   UNL     1      -0.592  -2.642   0.072  0.00  0.00    -0.040 A 
ATOM      8  C   UNL     1       0.007  -2.087   1.188  0.00  0.00    +0.008 A 
ATOM      9  C   UNL     1       0.598  -0.840   1.112  0.00  0.00    +0.047 A 
ATOM     10  C   UNL     1       0.591  -0.141  -0.084  0.00  0.00    +0.138 A 
BRANCH   7  11
ATOM     11  C   UNL     1      -1.235  -4.002   0.162  0.00  0.00    -0.013 C 
ATOM     12  C   UNL     1      -1.085  -4.544   1.584  0.00  0.00    +0.015 C 
ATOM     13  C   UNL     1      -2.720  -3.888  -0.187  0.00  0.00    +0.015 C 
ATOM     14  C   UNL     1      -0.551  -4.954  -0.822  0.00  0.00    +0.015 C 
ENDBRANCH   7  11
BRANCH  10  15
ATOM     15  O   UNL     1       1.171   1.086  -0.160  0.00  0.00    -0.505 OA
ATOM     16  H   UNL     1       2.106   1.065  -0.406  0.00  0.00    +0.292 HD
ENDBRANCH  10  15
ENDBRANCH   3   5
BRANCH   1  17
ATOM     17  C   UNL     1       0.146   0.104  -4.884  0.00  0.00    +0.101 C 
BRANCH  17  18
ATOM     18  C   UNL     1       0.244  -0.882  -6.050  0.00  0.00    +0.051 C 
BRANCH  18  21
ATOM     19  C   UNL     1       2.798  -0.292  -7.222  0.00  0.00    +0.064 C 
ATOM     20  C   UNL     1       1.529   0.159  -7.899  0.00  0.00    +0.023 A 
ATOM     21  C   UNL     1       0.329  -0.120  -7.347  0.00  0.00    +0.036 A 
ATOM     22  C   UNL     1      -0.849   0.319  -7.999  0.00  0.00    +0.255 A 
ATOM     23  O   UNL     1      -1.942   0.083  -7.518  0.00  0.00    -0.267 OA
ATOM     24  N   UNL     1      -0.748   0.999  -9.159  0.00  0.00    -0.303 N 
ATOM     25  H   UNL     1      -1.550   1.303  -9.612  0.00  0.00    +0.171 HD
ATOM     26  C   UNL     1       0.462   1.259  -9.690  0.00  0.00    +0.158 A 
ATOM     27  S   UNL     1       0.568   2.126 -11.162  0.00  0.00    -0.013 S 
ATOM     28  N   UNL     1       1.588   0.848  -9.079  0.00  0.00    -0.339 N 
ATOM     29  H   UNL     1       2.450   1.046  -9.478  0.00  0.00    +0.167 HD
ENDBRANCH  18  21
ENDBRANCH  17  18
ENDBRANCH   1  17
TORSDOF 6
