REMARK  Name = ZINC59170724
REMARK  7 active torsions:
REMARK  status: ('A' for Active; 'I' for Inactive)
REMARK    1  A    between atoms: C_1  and  O_2
REMARK    2  A    between atoms: O_2  and  C_3
REMARK    3  A    between atoms: C_8  and  N_9
REMARK    4  A    between atoms: C_10  and  C_12
REMARK    5  A    between atoms: N_22  and  C_23
REMARK    6  A    between atoms: C_26  and  S_29
REMARK    7  A    between atoms: S_29  and  N_32
REMARK                            x       y       z     vdW  Elec       q    Type
REMARK                         _______ _______ _______ _____ _____    ______ ____
ROOT
ATOM      1  C   UNL     1      -0.677  -4.904   0.737  0.00  0.00    +0.098 A 
ATOM      2  C   UNL     1      -0.617  -6.290   0.682  0.00  0.00    +0.030 A 
ATOM      3  C   UNL     1      -1.271  -7.035   1.761  0.00  0.00    +0.018 A 
ATOM      4  C   UNL     1      -1.037  -8.405   1.931  0.00  0.00    +0.011 A 
ATOM      5  C   UNL     1      -1.656  -9.077   2.947  0.00  0.00    +0.001 A 
ATOM      6  C   UNL     1      -2.515  -8.413   3.810  0.00  0.00    +0.004 A 
ATOM      7  C   UNL     1      -2.761  -7.063   3.659  0.00  0.00    +0.047 A 
ATOM      8  C   UNL     1      -2.144  -6.360   2.635  0.00  0.00    +0.137 A 
ATOM      9  O   UNL     1      -2.378  -5.036   2.466  0.00  0.00    -0.439 OA
ATOM     10  C   UNL     1      -1.391  -4.306   1.883  0.00  0.00    +0.212 A 
ATOM     11  N   UNL     1      -1.083  -3.105   2.321  0.00  0.00    -0.325 N 
ATOM     12  H   UNL     1      -0.304  -2.645   1.970  0.00  0.00    +0.169 HD
ENDROOT
BRANCH  11  13
ATOM     13  C   UNL     1      -1.861  -2.503   3.271  0.00  0.00    +0.042 A 
ATOM     14  C   UNL     1      -3.254  -2.536   3.161  0.00  0.00    +0.027 A 
ATOM     15  C   UNL     1      -4.032  -1.928   4.123  0.00  0.00    +0.030 A 
ATOM     16  C   UNL     1      -3.438  -1.285   5.195  0.00  0.00    +0.105 A 
ATOM     17  C   UNL     1      -2.059  -1.249   5.310  0.00  0.00    +0.030 A 
ATOM     18  C   UNL     1      -1.268  -1.858   4.358  0.00  0.00    +0.027 A 
BRANCH  16  19
ATOM     19  S   UNL     1      -4.440  -0.510   6.418  0.00  0.00    +0.056 S 
ATOM     20  O   UNL     1      -3.636   0.490   7.028  0.00  0.00    -0.153 OA
ATOM     21  O   UNL     1      -5.684  -0.214   5.797  0.00  0.00    -0.153 OA
BRANCH  19  22
ATOM     22  N   UNL     1      -4.753  -1.643   7.585  0.00  0.00    -0.204 NA
ATOM     23  H   UNL     1      -4.890  -1.366   8.505  0.00  0.00    +0.144 HD
ATOM     24  H   UNL     1      -4.798  -2.582   7.349  0.00  0.00    +0.144 HD
ENDBRANCH  19  22
ENDBRANCH  16  19
ENDBRANCH  11  13
BRANCH   1  26
ATOM     25  N   UNL     1      -0.217  -2.729  -0.278  0.00  0.00    -0.278 N 
ATOM     26  C   UNL     1      -0.050  -4.066  -0.300  0.00  0.00    +0.253 C 
ATOM     27  O   UNL     1       0.618  -4.582  -1.176  0.00  0.00    -0.270 OA
ATOM     28  H   UNL     1      -0.710  -2.314   0.447  0.00  0.00    +0.155 HD
BRANCH  25  34
ATOM     29  C   UNL     1      -0.191  -0.666  -1.544  0.00  0.00    +0.141 A 
ATOM     30  C   UNL     1       0.349   0.112  -2.555  0.00  0.00    +0.047 A 
ATOM     31  C   UNL     1       1.389  -0.376  -3.323  0.00  0.00    +0.004 A 
ATOM     32  C   UNL     1       1.893  -1.641  -3.087  0.00  0.00    +0.002 A 
ATOM     33  C   UNL     1       1.361  -2.425  -2.082  0.00  0.00    +0.027 A 
ATOM     34  C   UNL     1       0.321  -1.940  -1.302  0.00  0.00    +0.076 A 
BRANCH  29  36
ATOM     35  C   UNL     1      -1.687   1.126  -1.092  0.00  0.00    +0.277 C 
ATOM     36  O   UNL     1      -1.214  -0.187  -0.787  0.00  0.00    -0.493 OA
ENDBRANCH  29  36
ENDBRANCH  25  34
ENDBRANCH   1  26
TORSDOF 6
