REMARK  Name = ZINC38897995
REMARK  9 active torsions:
REMARK  status: ('A' for Active; 'I' for Inactive)
REMARK    1  A    between atoms: C_1  and  C_2
REMARK    2  A    between atoms: C_8  and  C_14
REMARK    3  A    between atoms: C_14  and  N_15
REMARK    4  A    between atoms: N_15  and  C_16
REMARK    5  A    between atoms: C_22  and  C_24
REMARK    6  A    between atoms: C_27  and  C_30
REMARK    7  A    between atoms: C_30  and  C_31
REMARK    8  A    between atoms: C_30  and  C_32
REMARK    9  A    between atoms: C_30  and  C_33
REMARK                            x       y       z     vdW  Elec       q    Type
REMARK                         _______ _______ _______ _____ _____    ______ ____
ROOT
ATOM      1  N   UNL     1       1.810  -2.175   5.871  0.00  0.00    -0.266 N 
ATOM      2  C   UNL     1       2.636  -1.268   6.428  0.00  0.00    +0.251 C 
ATOM      3  O   UNL     1       2.665  -1.133   7.635  0.00  0.00    -0.270 OA
ENDROOT
BRANCH   1   4
ATOM      4  C   UNL     1       0.928  -2.905   6.675  0.00  0.00    +0.037 A 
ATOM      5  C   UNL     1       0.928  -4.293   6.626  0.00  0.00    +0.023 A 
ATOM      6  C   UNL     1       0.056  -5.010   7.421  0.00  0.00    +0.002 A 
ATOM      7  C   UNL     1      -0.816  -4.348   8.266  0.00  0.00    +0.000 A 
ATOM      8  C   UNL     1      -0.818  -2.966   8.317  0.00  0.00    +0.002 A 
ATOM      9  C   UNL     1       0.055  -2.243   7.529  0.00  0.00    +0.023 A 
ENDBRANCH   1   4
BRANCH   2  10
ATOM     10  C   UNL     1       3.506  -0.436   5.570  0.00  0.00    +0.037 A 
ATOM     11  C   UNL     1       3.072  -0.043   4.302  0.00  0.00    +0.013 A 
ATOM     12  C   UNL     1       3.890   0.733   3.507  0.00  0.00    +0.005 A 
ATOM     13  C   UNL     1       5.137   1.121   3.962  0.00  0.00    -0.042 A 
ATOM     14  C   UNL     1       5.573   0.735   5.217  0.00  0.00    +0.005 A 
ATOM     15  C   UNL     1       4.763  -0.035   6.025  0.00  0.00    +0.013 A 
BRANCH  13  16
ATOM     16  C   UNL     1       6.025   1.968   3.087  0.00  0.00    -0.013 C 
ATOM     17  C   UNL     1       5.318   3.287   2.768  0.00  0.00    +0.015 C 
ATOM     18  C   UNL     1       7.337   2.256   3.819  0.00  0.00    +0.015 C 
ATOM     19  C   UNL     1       6.321   1.220   1.785  0.00  0.00    +0.015 C 
ENDBRANCH  13  16
ENDBRANCH   2  10
BRANCH   1  20
ATOM     20  C   UNL     1       1.835  -2.398   4.423  0.00  0.00    +0.131 C 
BRANCH  20  28
ATOM     21  C   UNL     1      -1.133   2.068   1.438  0.00  0.00    +0.045 C 
ATOM     22  C   UNL     1      -0.696   0.695   0.999  0.00  0.00    -0.029 A 
ATOM     23  C   UNL     1      -0.665   0.389  -0.325  0.00  0.00    +0.005 A 
ATOM     24  C   UNL     1      -0.270  -0.863  -0.799  0.00  0.00    +0.001 A 
ATOM     25  C   UNL     1       0.109  -1.853   0.050  0.00  0.00    +0.009 A 
ATOM     26  C   UNL     1       0.099  -1.591   1.490  0.00  0.00    -0.007 A 
ATOM     27  C   UNL     1       0.471  -2.555   2.379  0.00  0.00    -0.003 C 
ATOM     28  C   UNL     1       0.431  -2.195   3.851  0.00  0.00    +0.116 C 
ATOM     29  C   UNL     1      -0.020  -0.798   4.213  0.00  0.00    +0.226 C 
ATOM     30  O   UNL     1      -0.071  -0.456   5.380  0.00  0.00    -0.275 OA
ATOM     31  N   UNL     1      -0.357   0.051   3.257  0.00  0.00    -0.284 N 
ATOM     32  C   UNL     1      -0.317  -0.259   1.961  0.00  0.00    +0.043 A 
ATOM     33  H   UNL     1      -0.643   0.943   3.511  0.00  0.00    +0.155 HD
ENDBRANCH  20  28
ENDBRANCH   1  20
TORSDOF 5
