REMARK  Name = ZINC38666230
REMARK  14 active torsions:
REMARK  status: ('A' for Active; 'I' for Inactive)
REMARK    1  A    between atoms: C_1  and  C_2
REMARK    2  A    between atoms: C_2  and  C_3
REMARK    3  A    between atoms: C_2  and  C_4
REMARK    4  A    between atoms: C_2  and  C_5
REMARK    5  A    between atoms: C_8  and  S_11
REMARK    6  A    between atoms: S_11  and  N_14
REMARK    7  A    between atoms: N_14  and  C_15
REMARK    8  A    between atoms: C_15  and  C_16
REMARK    9  A    between atoms: C_16  and  C_18
REMARK   10  A    between atoms: C_16  and  N_27
REMARK   11  A    between atoms: C_21  and  N_24
REMARK   12  A    between atoms: N_24  and  C_25
REMARK   13  A    between atoms: N_24  and  C_26
REMARK   14  A    between atoms: N_30  and  C_33
REMARK                            x       y       z     vdW  Elec       q    Type
REMARK                         _______ _______ _______ _____ _____    ______ ____
ROOT
ATOM      1  C   UNL     1       3.072   1.264  -7.299  0.00  0.00    +0.102 C 
ENDROOT
BRANCH   1   2
ATOM      2  C   UNL     1       3.405   2.733  -7.348  0.00  0.00    -0.029 A 
ATOM      3  C   UNL     1       3.073   3.552  -6.285  0.00  0.00    +0.007 A 
ATOM      4  C   UNL     1       3.377   4.898  -6.327  0.00  0.00    +0.023 A 
ATOM      5  C   UNL     1       4.016   5.430  -7.439  0.00  0.00    +0.029 A 
ATOM      6  C   UNL     1       4.348   4.604  -8.506  0.00  0.00    +0.023 A 
ATOM      7  C   UNL     1       4.047   3.258  -8.455  0.00  0.00    +0.007 A 
BRANCH   5   8
ATOM      8  N   UNL     1       4.324   6.791  -7.486  0.00  0.00    -0.336 N 
ATOM      9  C   UNL     1       3.973   7.661  -6.360  0.00  0.00    +0.129 C 
ATOM     10  C   UNL     1       4.999   7.350  -8.660  0.00  0.00    +0.129 C 
ENDBRANCH   5   8
ENDBRANCH   1   2
BRANCH   1  11
ATOM     11  N   UNL     1       1.616   1.089  -7.385  0.00  0.00    -0.291 NA
ATOM     12  C   UNL     1       0.937   1.775  -6.278  0.00  0.00    +0.104 C 
ATOM     13  C   UNL     1      -0.554   1.420  -6.300  0.00  0.00    +0.120 C 
ATOM     14  N   UNL     1      -1.086   1.720  -7.638  0.00  0.00    -0.327 N 
ATOM     15  C   UNL     1      -0.376   1.179  -8.806  0.00  0.00    +0.120 C 
ATOM     16  C   UNL     1       1.107   1.543  -8.686  0.00  0.00    +0.104 C 
BRANCH  14  17
ATOM     17  C   UNL     1      -2.237   2.498  -7.794  0.00  0.00    +0.030 A 
ATOM     18  C   UNL     1      -2.796   2.668  -9.054  0.00  0.00    +0.026 A 
ATOM     19  C   UNL     1      -3.933   3.437  -9.207  0.00  0.00    +0.040 A 
ATOM     20  C   UNL     1      -4.516   4.038  -8.104  0.00  0.00    +0.124 A 
ATOM     21  C   UNL     1      -3.961   3.870  -6.847  0.00  0.00    +0.040 A 
ATOM     22  C   UNL     1      -2.827   3.097  -6.689  0.00  0.00    +0.026 A 
ATOM     23  F   UNL     1      -5.628   4.790  -8.255  0.00  0.00    -0.205 F 
ENDBRANCH  14  17
ENDBRANCH   1  11
BRANCH   1  24
ATOM     24  C   UNL     1       3.580   0.670  -5.983  0.00  0.00    +0.129 C 
BRANCH  24  25
ATOM     25  N   UNL     1       3.153  -0.728  -5.881  0.00  0.00    -0.188 NA
ATOM     26  H   UNL     1       2.459  -1.067  -6.468  0.00  0.00    +0.148 HD
BRANCH  25  27
ATOM     27  S   UNL     1       3.854  -1.728  -4.764  0.00  0.00    +0.058 S 
ATOM     28  O   UNL     1       5.260  -1.567  -4.900  0.00  0.00    -0.153 OA
ATOM     29  O   UNL     1       3.216  -2.992  -4.893  0.00  0.00    -0.153 OA
BRANCH  27  33
ATOM     30  C   UNL     1       2.761  -0.140  -0.668  0.00  0.00    -0.042 A 
ATOM     31  C   UNL     1       1.946  -1.066  -1.291  0.00  0.00    +0.006 A 
ATOM     32  C   UNL     1       2.279  -1.551  -2.541  0.00  0.00    +0.029 A 
ATOM     33  C   UNL     1       3.428  -1.109  -3.170  0.00  0.00    +0.105 A 
ATOM     34  C   UNL     1       4.244  -0.182  -2.548  0.00  0.00    +0.029 A 
ATOM     35  C   UNL     1       3.908   0.306  -1.299  0.00  0.00    +0.006 A 
BRANCH  30  37
ATOM     36  C   UNL     1       2.213   1.906   0.621  0.00  0.00    +0.015 C 
ATOM     37  C   UNL     1       2.398   0.389   0.695  0.00  0.00    -0.013 C 
ATOM     38  C   UNL     1       3.517   0.059   1.685  0.00  0.00    +0.015 C 
ATOM     39  C   UNL     1       1.094  -0.261   1.163  0.00  0.00    +0.015 C 
ENDBRANCH  30  37
ENDBRANCH  27  33
ENDBRANCH  25  27
ENDBRANCH  24  25
ENDBRANCH   1  24
TORSDOF 9
