REMARK  Name = ZINC60563993
REMARK  6 active torsions:
REMARK  status: ('A' for Active; 'I' for Inactive)
REMARK    1  A    between atoms: C_3  and  N_12
REMARK    2  A    between atoms: C_5  and  N_7
REMARK    3  A    between atoms: N_7  and  S_8
REMARK    4  A    between atoms: S_8  and  N_11
REMARK    5  A    between atoms: C_13  and  C_15
REMARK    6  A    between atoms: C_15  and  N_16
REMARK                            x       y       z     vdW  Elec       q    Type
REMARK                         _______ _______ _______ _____ _____    ______ ____
ROOT
ATOM      1  N   UNL     1       3.100   2.479   0.013  0.00  0.00    -0.287 N 
ATOM      2  C   UNL     1       2.883   3.806  -0.069  0.00  0.00    +0.201 C 
ATOM      3  O   UNL     1       1.750   4.239  -0.037  0.00  0.00    -0.278 OA
ATOM      4  H   UNL     1       4.006   2.137   0.063  0.00  0.00    +0.155 HD
ENDROOT
BRANCH   1   7
ATOM      5  C   UNL     1      -0.204   1.016  -0.680  0.00  0.00    +0.004 A 
ATOM      6  C   UNL     1       0.866   1.890  -0.692  0.00  0.00    +0.023 A 
ATOM      7  C   UNL     1       2.017   1.593   0.026  0.00  0.00    +0.035 A 
ATOM      8  C   UNL     1       2.092   0.415   0.757  0.00  0.00    +0.047 A 
ATOM      9  C   UNL     1       1.016  -0.461   0.767  0.00  0.00    +0.051 A 
ATOM     10  C   UNL     1      -0.133  -0.157   0.046  0.00  0.00    +0.024 A 
BRANCH   9  11
ATOM     11  N   UNL     1       1.087  -1.647   1.501  0.00  0.00    -0.207 N 
ATOM     12  H   UNL     1       1.206  -2.494   1.043  0.00  0.00    +0.175 HD
BRANCH  11  13
ATOM     13  S   UNL     1       0.970  -1.608   3.152  0.00  0.00    +0.107 S 
ATOM     14  O   UNL     1       0.985  -2.959   3.593  0.00  0.00    -0.138 OA
ATOM     15  O   UNL     1       1.916  -0.649   3.604  0.00  0.00    -0.138 OA
BRANCH  13  16
ATOM     16  N   UNL     1      -0.528  -1.006   3.522  0.00  0.00    -0.191 NA
ATOM     17  H   UNL     1      -1.005  -1.337   4.299  0.00  0.00    +0.146 HD
ATOM     18  H   UNL     1      -0.928  -0.322   2.962  0.00  0.00    +0.146 HD
ENDBRANCH  13  16
ENDBRANCH  11  13
ENDBRANCH   9  11
ENDBRANCH   1   7
BRANCH   2  19
ATOM     19  C   UNL     1       4.048   4.753  -0.202  0.00  0.00    +0.019 C 
BRANCH  19  20
ATOM     20  N   UNL     1       3.551   6.134  -0.272  0.00  0.00    +0.388 N 
ATOM     21  C   UNL     1       4.675   7.038  -0.552  0.00  0.00    -0.073 C 
ATOM     22  C   UNL     1       4.117   8.415  -0.951  0.00  0.00    +0.024 C 
ATOM     23  C   UNL     1       3.066   8.781   0.045  0.00  0.00    -0.011 A 
ATOM     24  C   UNL     1       2.487   7.947   0.954  0.00  0.00    -0.054 A 
ATOM     25  C   UNL     1       1.528   8.509   1.792  0.00  0.00    +0.009 A 
ATOM     26  C   UNL     1       1.213   9.821   1.675  0.00  0.00    +0.045 A 
ATOM     27  S   UNL     1       2.283  10.340   0.341  0.00  0.00    -0.101 S 
ATOM     28  C   UNL     1       2.908   6.481   1.001  0.00  0.00    -0.042 C 
ATOM     29  H   UNL     1       2.874   6.205  -1.017  0.00  0.00    -0.081 HD
ENDBRANCH  19  20
ENDBRANCH   2  19
TORSDOF 6
