REMARK  Name = ZINC26598012
REMARK  14 active torsions:
REMARK  status: ('A' for Active; 'I' for Inactive)
REMARK    1  A    between atoms: C_1  and  C_2
REMARK    2  A    between atoms: C_2  and  C_3
REMARK    3  A    between atoms: C_3  and  C_4
REMARK    4  A    between atoms: C_4  and  C_5
REMARK    5  A    between atoms: C_5  and  N_6
REMARK    6  A    between atoms: C_19  and  S_20
REMARK    7  A    between atoms: S_20  and  C_21
REMARK    8  A    between atoms: C_21  and  C_23
REMARK    9  A    between atoms: C_21  and  C_24
REMARK   10  A    between atoms: N_26  and  C_27
REMARK   11  A    between atoms: C_27  and  C_28
REMARK   12  A    between atoms: C_28  and  C_29
REMARK   13  A    between atoms: C_32  and  O_35
REMARK   14  A    between atoms: O_35  and  C_36
REMARK                            x       y       z     vdW  Elec       q    Type
REMARK                         _______ _______ _______ _____ _____    ______ ____
ROOT
ATOM      1  N   UNL     1       2.831 -11.938  -5.096  0.00  0.00    -0.277 N 
ATOM      2  C   UNL     1       3.343 -11.833  -6.339  0.00  0.00    +0.263 A 
ATOM      3  O   UNL     1       3.696 -12.824  -6.949  0.00  0.00    -0.267 OA
ATOM      4  C   UNL     1       3.466 -10.495  -6.946  0.00  0.00    +0.064 A 
ATOM      5  C   UNL     1       3.987 -10.327  -8.228  0.00  0.00    +0.015 A 
ATOM      6  C   UNL     1       4.087  -9.060  -8.762  0.00  0.00    +0.001 A 
ATOM      7  C   UNL     1       3.671  -7.957  -8.032  0.00  0.00    +0.002 A 
ATOM      8  C   UNL     1       3.153  -8.111  -6.761  0.00  0.00    +0.027 A 
ATOM      9  C   UNL     1       3.047  -9.377  -6.208  0.00  0.00    +0.064 A 
ATOM     10  N   UNL     1       2.526  -9.560  -4.929  0.00  0.00    -0.256 N 
ATOM     11  C   UNL     1       2.425 -10.815  -4.392  0.00  0.00    +0.240 A 
ATOM     12  N   UNL     1       1.907 -10.697  -3.190  0.00  0.00    -0.109 NA
ATOM     13  N   UNL     1       1.676  -9.338  -2.947  0.00  0.00    -0.120 NA
ATOM     14  C   UNL     1       2.050  -8.666  -4.008  0.00  0.00    +0.198 A 
ENDROOT
BRANCH   1  15
ATOM     15  C   UNL     1       2.703 -13.261  -4.479  0.00  0.00    +0.128 C 
BRANCH  15  16
ATOM     16  C   UNL     1       1.334 -13.852  -4.821  0.00  0.00    +0.022 C 
BRANCH  16  17
ATOM     17  C   UNL     1       1.200 -15.234  -4.177  0.00  0.00    +0.001 C 
BRANCH  17  19
ATOM     18  C   UNL     1      -0.304 -17.206  -3.875  0.00  0.00    +0.004 C 
ATOM     19  C   UNL     1      -0.170 -15.825  -4.519  0.00  0.00    -0.003 C 
ENDBRANCH  17  19
ENDBRANCH  16  17
ENDBRANCH  15  16
ENDBRANCH   1  15
BRANCH  14  20
ATOM     20  S   UNL     1       1.963  -6.918  -4.212  0.00  0.00    -0.073 S 
BRANCH  20  21
ATOM     21  C   UNL     1       1.248  -6.330  -2.652  0.00  0.00    +0.137 C 
ATOM     22  C   UNL     1      -0.181  -6.857  -2.515  0.00  0.00    +0.029 C 
BRANCH  21  23
ATOM     23  C   UNL     1       1.231  -4.823  -2.644  0.00  0.00    +0.226 C 
ATOM     24  O   UNL     1       1.214  -4.211  -3.691  0.00  0.00    -0.275 OA
ATOM     25  N   UNL     1       1.234  -4.155  -1.474  0.00  0.00    -0.314 N 
ATOM     26  H   UNL     1       1.250  -4.710  -0.524  0.00  0.00    +0.149 HD
BRANCH  25  27
ATOM     27  C   UNL     1       1.217  -2.690  -1.466  0.00  0.00    +0.109 C 
BRANCH  27  28
ATOM     28  C   UNL     1       1.226  -2.187  -0.021  0.00  0.00    +0.054 C 
BRANCH  28  29
ATOM     29  C   UNL     1       1.208  -0.680  -0.013  0.00  0.00    -0.046 A 
ATOM     30  C   UNL     1       0.002  -0.004   0.002  0.00  0.00    +0.007 A 
ATOM     31  C   UNL     1      -0.017   1.377   0.010  0.00  0.00    +0.046 A 
ATOM     32  C   UNL     1       1.176   2.086   0.002  0.00  0.00    +0.120 A 
ATOM     33  C   UNL     1       2.385   1.405  -0.013  0.00  0.00    +0.046 A 
ATOM     34  C   UNL     1       2.398   0.024  -0.021  0.00  0.00    +0.007 A 
BRANCH  32  35
ATOM     35  O   UNL     1       1.160   3.445   0.009  0.00  0.00    -0.495 OA
ATOM     36  C   UNL     1       2.426   4.108   0.001  0.00  0.00    +0.277 C 
ENDBRANCH  32  35
ENDBRANCH  28  29
ENDBRANCH  27  28
ENDBRANCH  25  27
ENDBRANCH  21  23
ENDBRANCH  20  21
ENDBRANCH  14  20
TORSDOF 11
