REMARK  Name = ZINC09173552
REMARK  12 active torsions:
REMARK  status: ('A' for Active; 'I' for Inactive)
REMARK    1  A    between atoms: C_1  and  C_2
REMARK    2  A    between atoms: C_2  and  C_3
REMARK    3  A    between atoms: C_3  and  C_5
REMARK    4  A    between atoms: C_3  and  N_67
REMARK    5  A    between atoms: C_8  and  S_17
REMARK    6  A    between atoms: N_9  and  C_10
REMARK    7  A    between atoms: C_10  and  C_11
REMARK    8  A    between atoms: S_17  and  C_18
REMARK    9  A    between atoms: C_18  and  C_19
REMARK   10  A    between atoms: C_24  and  C_33
REMARK   11  A    between atoms: C_34  and  N_67
REMARK   12  A    between atoms: C_35  and  N_67
REMARK                            x       y       z     vdW  Elec       q    Type
REMARK                         _______ _______ _______ _____ _____    ______ ____
ROOT
ATOM      1  C   UNL     1       2.378   5.253  -2.243  0.00  0.00    +0.121 A 
ATOM      2  N   UNL     1       2.716   5.010  -3.477  0.00  0.00    -0.135 NA
ATOM      3  N   UNL     1       3.336   3.887  -3.552  0.00  0.00    -0.123 NA
ATOM      4  C   UNL     1       3.433   3.350  -2.358  0.00  0.00    +0.192 A 
ATOM      5  N   UNL     1       2.819   4.203  -1.486  0.00  0.00    -0.303 N 
ENDROOT
BRANCH   1   6
ATOM      6  C   UNL     1       1.637   6.466  -1.742  0.00  0.00    +0.000 C 
BRANCH   6   9
ATOM      7  C   UNL     1       3.655   7.767  -1.433  0.00  0.00    -0.096 C 
ATOM      8  C   UNL     1       2.550   7.740  -3.587  0.00  0.00    -0.096 C 
ATOM      9  N   UNL     1       2.350   7.703  -2.123  0.00  0.00    +0.383 N 
ATOM     10  H   UNL     1       1.785   8.513  -1.843  0.00  0.00    -0.082 HD
ENDBRANCH   6   9
BRANCH   6  12
ATOM     11  C   UNL     1      -0.541   7.689  -1.793  0.00  0.00    +0.002 C 
ATOM     12  C   UNL     1       0.234   6.495  -2.352  0.00  0.00    -0.011 C 
ENDBRANCH   6  12
ENDBRANCH   1   6
BRANCH   5  13
ATOM     13  C   UNL     1       2.670   4.031  -0.038  0.00  0.00    +0.160 C 
BRANCH  13  14
ATOM     14  C   UNL     1       1.382   3.304   0.251  0.00  0.00    -0.028 A 
ATOM     15  C   UNL     1       1.368   1.923   0.319  0.00  0.00    +0.005 A 
ATOM     16  C   UNL     1       0.187   1.256   0.586  0.00  0.00    +0.000 A 
ATOM     17  C   UNL     1      -0.981   1.970   0.778  0.00  0.00    +0.000 A 
ATOM     18  C   UNL     1      -0.967   3.350   0.714  0.00  0.00    +0.000 A 
ATOM     19  C   UNL     1       0.214   4.018   0.449  0.00  0.00    +0.005 A 
ENDBRANCH  13  14
ENDBRANCH   5  13
BRANCH   4  20
ATOM     20  S   UNL     1       4.204   1.818  -1.957  0.00  0.00    -0.077 S 
BRANCH  20  21
ATOM     21  C   UNL     1       4.761   1.307  -3.602  0.00  0.00    +0.173 C 
BRANCH  21  22
ATOM     22  C   UNL     1       5.471  -0.019  -3.502  0.00  0.00    +0.230 C 
ATOM     23  O   UNL     1       5.588  -0.565  -2.425  0.00  0.00    -0.274 OA
ATOM     24  N   UNL     1       5.974  -0.599  -4.610  0.00  0.00    -0.270 N 
ATOM     25  C   UNL     1       6.670  -1.893  -4.534  0.00  0.00    +0.115 C 
ATOM     26  C   UNL     1       8.147  -1.705  -4.299  0.00  0.00    +0.033 C 
ATOM     27  C   UNL     1       8.913  -1.065  -5.446  0.00  0.00    +0.050 C 
ATOM     28  S   UNL     1       8.466   0.689  -5.596  0.00  0.00    -0.120 S 
ATOM     29  C   UNL     1       6.928   0.626  -6.486  0.00  0.00    +0.030 A 
ATOM     30  C   UNL     1       5.843   0.013  -5.861  0.00  0.00    +0.050 A 
ATOM     31  C   UNL     1       4.618   0.005  -6.509  0.00  0.00    +0.024 A 
ATOM     32  C   UNL     1       4.500   0.564  -7.768  0.00  0.00    +0.002 A 
ATOM     33  C   UNL     1       5.592   1.135  -8.395  0.00  0.00    +0.001 A 
ATOM     34  C   UNL     1       6.818   1.172  -7.748  0.00  0.00    +0.016 A 
ATOM     35  C   UNL     1      10.415  -1.185  -5.181  0.00  0.00    +0.019 C 
ENDBRANCH  21  22
ENDBRANCH  20  21
ENDBRANCH   4  20
TORSDOF 8
