REMARK  Name = ZINC12449372
REMARK  6 active torsions:
REMARK  status: ('A' for Active; 'I' for Inactive)
REMARK    1  A    between atoms: C_4  and  C_7
REMARK    2  A    between atoms: C_7  and  C_8
REMARK    3  A    between atoms: C_8  and  N_9
REMARK    4  A    between atoms: C_11  and  N_16
REMARK    5  A    between atoms: C_17  and  C_19
REMARK    6  A    between atoms: C_19  and  N_20
REMARK                            x       y       z     vdW  Elec       q    Type
REMARK                         _______ _______ _______ _____ _____    ______ ____
ROOT
ATOM      1  N   UNL     1       5.094   7.550  -4.129  0.00  0.00    -0.299 N 
ATOM      2  C   UNL     1       4.016   7.636  -3.137  0.00  0.00    +0.130 C 
ATOM      3  C   UNL     1       3.436   6.207  -3.033  0.00  0.00    +0.099 C 
ATOM      4  C   UNL     1       4.642   5.345  -3.473  0.00  0.00    +0.119 C 
ATOM      5  C   UNL     1       5.469   6.275  -4.333  0.00  0.00    +0.217 C 
ATOM      6  O   UNL     1       6.343   5.922  -5.096  0.00  0.00    -0.276 OA
ENDROOT
BRANCH   3   7
ATOM      7  N   UNL     1       3.046   5.899  -1.655  0.00  0.00    -0.309 N 
ATOM      8  C   UNL     1       2.190   4.888  -1.407  0.00  0.00    +0.233 C 
ATOM      9  O   UNL     1       1.743   4.233  -2.325  0.00  0.00    -0.274 OA
ATOM     10  H   UNL     1       3.403   6.423  -0.921  0.00  0.00    +0.149 HD
BRANCH   8  11
ATOM     11  C   UNL     1       1.788   4.571   0.010  0.00  0.00    +0.218 C 
BRANCH  11  12
ATOM     12  N   UNL     1       0.858   3.439   0.012  0.00  0.00    -0.321 N 
ATOM     13  C   UNL     1      -0.500   3.512   0.026  0.00  0.00    +0.200 A 
ATOM     14  N   UNL     1      -1.013   2.316   0.019  0.00  0.00    -0.236 NA
ATOM     15  C   UNL     1      -0.017   1.393   0.010  0.00  0.00    +0.089 A 
ATOM     16  C   UNL     1       1.197   2.101   0.002  0.00  0.00    +0.069 A 
ATOM     17  C   UNL     1       2.400   1.409  -0.013  0.00  0.00    +0.028 A 
ATOM     18  C   UNL     1       2.395   0.030  -0.021  0.00  0.00    +0.002 A 
ATOM     19  C   UNL     1       1.196  -0.669  -0.013  0.00  0.00    +0.002 A 
ATOM     20  C   UNL     1       0.002  -0.004   0.002  0.00  0.00    +0.030 A 
ENDBRANCH  11  12
ENDBRANCH   8  11
ENDBRANCH   3   7
BRANCH   1  21
ATOM     21  C   UNL     1       5.684   8.704  -4.810  0.00  0.00    +0.112 C 
BRANCH  21  22
ATOM     22  C   UNL     1       4.912   8.986  -6.100  0.00  0.00    +0.054 C 
BRANCH  22  26
ATOM     23  C   UNL     1       6.635  12.353  -8.086  0.00  0.00    +0.000 A 
ATOM     24  C   UNL     1       7.091  11.078  -8.365  0.00  0.00    +0.000 A 
ATOM     25  C   UNL     1       6.534   9.989  -7.722  0.00  0.00    +0.004 A 
ATOM     26  C   UNL     1       5.520  10.174  -6.801  0.00  0.00    -0.046 A 
ATOM     27  C   UNL     1       5.059  11.448  -6.526  0.00  0.00    +0.004 A 
ATOM     28  C   UNL     1       5.620  12.538  -7.165  0.00  0.00    +0.000 A 
ENDBRANCH  22  26
ENDBRANCH  21  22
ENDBRANCH   1  21
TORSDOF 6
