REMARK  Name = ZINC13640039
REMARK  8 active torsions:
REMARK  status: ('A' for Active; 'I' for Inactive)
REMARK    1  A    between atoms: C_1  and  C_2
REMARK    2  A    between atoms: C_6  and  C_36
REMARK    3  A    between atoms: C_7  and  N_8
REMARK    4  A    between atoms: N_8  and  S_9
REMARK    5  A    between atoms: S_9  and  C_12
REMARK    6  A    between atoms: C_25  and  C_28
REMARK    7  A    between atoms: C_31  and  O_35
REMARK    8  A    between atoms: C_33  and  O_34
REMARK                            x       y       z     vdW  Elec       q    Type
REMARK                         _______ _______ _______ _____ _____    ______ ____
ROOT
ATOM      1  C   UNL     1       3.226   3.701   0.852  0.00  0.00    +0.109 A 
ATOM      2  C   UNL     1       2.201   4.599   0.618  0.00  0.00    +0.030 A 
ATOM      3  C   UNL     1       0.897   4.234   0.888  0.00  0.00    +0.025 A 
ATOM      4  C   UNL     1       0.620   2.969   1.394  0.00  0.00    +0.031 A 
ATOM      5  C   UNL     1       1.648   2.052   1.612  0.00  0.00    -0.018 A 
ATOM      6  C   UNL     1       2.957   2.418   1.326  0.00  0.00    +0.034 A 
ATOM      7  C   UNL     1       1.406   0.676   2.172  0.00  0.00    +0.049 C 
ATOM      8  C   UNL     1       2.185   0.579   3.486  0.00  0.00    -0.023 C 
ATOM      9  C   UNL     1       1.403   0.832   4.505  0.00  0.00    -0.030 C 
ATOM     10  C   UNL     1      -0.005   1.141   4.031  0.00  0.00    +0.033 C 
ATOM     11  C   UNL     1      -0.050   0.481   2.633  0.00  0.00    +0.029 C 
ATOM     12  C   UNL     1      -1.038   1.189   1.725  0.00  0.00    +0.108 C 
ATOM     13  N   UNL     1      -0.708   2.617   1.660  0.00  0.00    -0.336 N 
ATOM     14  H   UNL     1      -1.389   3.295   1.794  0.00  0.00    +0.147 HD
ENDROOT
BRANCH  12  15
ATOM     15  C   UNL     1      -0.964   0.594   0.343  0.00  0.00    +0.015 A 
ATOM     16  C   UNL     1      -0.300   1.267  -0.665  0.00  0.00    +0.012 A 
ATOM     17  C   UNL     1      -0.231   0.724  -1.933  0.00  0.00    +0.046 A 
ATOM     18  C   UNL     1      -0.829  -0.500  -2.199  0.00  0.00    +0.120 A 
ATOM     19  C   UNL     1      -1.496  -1.177  -1.190  0.00  0.00    +0.091 A 
ATOM     20  C   UNL     1      -1.560  -0.632   0.083  0.00  0.00    +0.125 A 
BRANCH  20  21
ATOM     21  O   UNL     1      -2.208  -1.296   1.076  0.00  0.00    -0.506 OA
ATOM     22  H   UNL     1      -3.148  -1.078   1.146  0.00  0.00    +0.292 HD
ENDBRANCH  20  21
BRANCH  18  23
ATOM     23  O   UNL     1      -0.761  -1.033  -3.447  0.00  0.00    -0.507 OA
ATOM     24  H   UNL     1       0.009  -1.602  -3.590  0.00  0.00    +0.292 HD
ENDBRANCH  18  23
ENDBRANCH  12  15
BRANCH   1  25
ATOM     25  S   UNL     1       4.892   4.162   0.507  0.00  0.00    +0.072 S 
ATOM     26  O   UNL     1       5.586   2.965   0.185  0.00  0.00    -0.150 OA
ATOM     27  O   UNL     1       4.831   5.270  -0.381  0.00  0.00    -0.150 OA
BRANCH  25  28
ATOM     28  N   UNL     1       5.546   4.724   1.920  0.00  0.00    -0.216 N 
ATOM     29  H   UNL     1       5.774   5.663   2.010  0.00  0.00    +0.174 HD
BRANCH  28  36
ATOM     30  C   UNL     1       3.776   4.830   4.145  0.00  0.00    +0.046 C 
ATOM     31  C   UNL     1       4.932   3.864   4.090  0.00  0.00    -0.028 A 
ATOM     32  C   UNL     1       5.154   2.991   5.137  0.00  0.00    +0.005 A 
ATOM     33  C   UNL     1       6.217   2.108   5.090  0.00  0.00    +0.001 A 
ATOM     34  C   UNL     1       7.058   2.092   3.992  0.00  0.00    +0.005 A 
ATOM     35  C   UNL     1       6.838   2.958   2.939  0.00  0.00    -0.028 A 
ATOM     36  C   UNL     1       5.771   3.846   2.983  0.00  0.00    +0.054 A 
ATOM     37  C   UNL     1       7.755   2.940   1.743  0.00  0.00    +0.046 C 
ENDBRANCH  28  36
ENDBRANCH  25  28
ENDBRANCH   1  25
TORSDOF 6
