REMARK  Name = ZINC59386003
REMARK  12 active torsions:
REMARK  status: ('A' for Active; 'I' for Inactive)
REMARK    1  A    between atoms: C_1  and  C_2
REMARK    2  A    between atoms: C_2  and  N_3
REMARK    3  A    between atoms: N_6  and  C_9
REMARK    4  A    between atoms: C_9  and  C_10
REMARK    5  A    between atoms: C_10  and  N_11
REMARK    6  A    between atoms: N_11  and  C_12
REMARK    7  A    between atoms: C_15  and  S_21
REMARK    8  A    between atoms: C_17  and  N_18
REMARK    9  A    between atoms: S_21  and  N_24
REMARK   10  A    between atoms: N_24  and  C_25
REMARK   11  A    between atoms: C_28  and  C_32
REMARK   12  A    between atoms: C_30  and  C_31
REMARK                            x       y       z     vdW  Elec       q    Type
REMARK                         _______ _______ _______ _____ _____    ______ ____
ROOT
ATOM      1  C   UNL     1      -6.411  -5.471  -1.658  0.00  0.00    +0.058 A 
ATOM      2  C   UNL     1      -5.279  -6.274  -1.591  0.00  0.00    +0.027 A 
ATOM      3  C   UNL     1      -5.413  -7.642  -1.453  0.00  0.00    +0.031 A 
ATOM      4  C   UNL     1      -6.671  -8.211  -1.383  0.00  0.00    +0.111 A 
ATOM      5  C   UNL     1      -7.799  -7.415  -1.449  0.00  0.00    +0.063 A 
ATOM      6  C   UNL     1      -7.673  -6.046  -1.581  0.00  0.00    +0.149 A 
ENDROOT
BRANCH   6   7
ATOM      7  N   UNL     1      -8.881  -5.193  -1.646  0.00  0.00    +0.058 N 
ATOM      8  O   UNL     1      -8.884  -4.108  -1.113  0.00  0.00    -0.126 OA
ATOM      9  O   UNL     1      -9.864  -5.581  -2.233  0.00  0.00    -0.126 OA
ENDBRANCH   6   7
BRANCH   4  10
ATOM     10  S   UNL     1      -6.837  -9.957  -1.207  0.00  0.00    +0.072 S 
ATOM     11  O   UNL     1      -8.121 -10.296  -1.713  0.00  0.00    -0.150 OA
ATOM     12  O   UNL     1      -5.642 -10.532  -1.717  0.00  0.00    -0.150 OA
BRANCH  10  13
ATOM     13  N   UNL     1      -6.865 -10.286   0.416  0.00  0.00    -0.216 N 
ATOM     14  H   UNL     1      -6.185 -10.856   0.807  0.00  0.00    +0.174 HD
BRANCH  13  15
ATOM     15  C   UNL     1      -7.869  -9.742   1.221  0.00  0.00    +0.051 A 
ATOM     16  C   UNL     1      -9.155  -9.586   0.721  0.00  0.00    +0.025 A 
ATOM     17  C   UNL     1     -10.145  -9.049   1.520  0.00  0.00    +0.005 A 
ATOM     18  C   UNL     1      -9.856  -8.665   2.816  0.00  0.00    -0.050 A 
ATOM     19  C   UNL     1      -8.576  -8.817   3.317  0.00  0.00    +0.008 A 
ATOM     20  C   UNL     1      -7.583  -9.360   2.526  0.00  0.00    -0.028 A 
ATOM     21  C   UNL     1      -6.191  -9.532   3.075  0.00  0.00    +0.046 C 
ATOM     22  C   UNL     1     -10.939  -8.078   3.685  0.00  0.00    +0.044 C 
ENDBRANCH  13  15
ENDBRANCH  10  13
ENDBRANCH   4  10
BRANCH   1  23
ATOM     23  N   UNL     1      -6.279  -4.087  -1.796  0.00  0.00    -0.341 N 
ATOM     24  H   UNL     1      -7.067  -3.536  -1.929  0.00  0.00    +0.146 HD
BRANCH  23  25
ATOM     25  C   UNL     1      -4.953  -3.468  -1.741  0.00  0.00    +0.117 C 
BRANCH  25  26
ATOM     26  C   UNL     1      -5.088  -1.954  -1.919  0.00  0.00    +0.103 C 
BRANCH  26  30
ATOM     27  N   UNL     1      -1.839   0.551  -0.902  0.00  0.00    +0.381 N 
ATOM     28  C   UNL     1      -2.408   0.671  -2.250  0.00  0.00    -0.063 C 
ATOM     29  C   UNL     1      -3.819   0.079  -2.264  0.00  0.00    +0.066 C 
ATOM     30  N   UNL     1      -3.758  -1.334  -1.864  0.00  0.00    -0.304 NA
ATOM     31  C   UNL     1      -3.167  -1.472  -0.525  0.00  0.00    +0.066 C 
ATOM     32  C   UNL     1      -1.762  -0.867  -0.526  0.00  0.00    -0.063 C 
ATOM     33  H   UNL     1      -2.426   1.041  -0.244  0.00  0.00    -0.082 HD
BRANCH  27  35
ATOM     34  C   UNL     1      -0.585   2.639  -1.154  0.00  0.00    -0.017 C 
ATOM     35  C   UNL     1      -0.491   1.135  -0.885  0.00  0.00    -0.082 C 
ENDBRANCH  27  35
ENDBRANCH  26  30
ENDBRANCH  25  26
ENDBRANCH  23  25
ENDBRANCH   1  23
TORSDOF 9
