REMARK  Name = ZINC12420896
REMARK  5 active torsions:
REMARK  status: ('A' for Active; 'I' for Inactive)
REMARK    1  A    between atoms: C_1  and  C_2
REMARK    2  A    between atoms: C_2  and  C_3
REMARK    3  A    between atoms: C_2  and  C_4
REMARK    4  A    between atoms: C_7  and  C_19
REMARK    5  A    between atoms: C_10  and  C_12
REMARK                            x       y       z     vdW  Elec       q    Type
REMARK                         _______ _______ _______ _____ _____    ______ ____
ROOT
ATOM      1  C   UNL     1      -1.412  -0.526   0.013  0.00  0.00    +0.238 C 
ATOM      2  O   UNL     1      -2.344   0.250   0.026  0.00  0.00    -0.274 OA
ATOM      3  N   UNL     1      -1.640  -1.854   0.008  0.00  0.00    -0.185 N 
ATOM      4  C   UNL     1      -2.965  -2.495   0.023  0.00  0.00    +0.137 C 
ATOM      5  C   UNL     1      -2.637  -4.001   0.006  0.00  0.00    +0.087 C 
ATOM      6  C   UNL     1      -1.126  -4.046  -0.008  0.00  0.00    +0.069 C 
ATOM      7  N   UNL     1      -0.660  -2.845  -0.006  0.00  0.00    -0.181 NA
ENDROOT
BRANCH   4   8
ATOM      8  C   UNL     1      -3.717  -2.127   1.275  0.00  0.00    -0.023 A 
ATOM      9  C   UNL     1      -3.033  -2.036   2.486  0.00  0.00    +0.008 A 
ATOM     10  C   UNL     1      -3.682  -1.702   3.634  0.00  0.00    +0.030 A 
ATOM     11  C   UNL     1      -5.066  -1.453   3.605  0.00  0.00    +0.089 A 
ATOM     12  C   UNL     1      -5.763  -1.550   2.374  0.00  0.00    +0.089 A 
ATOM     13  C   UNL     1      -5.056  -1.894   1.208  0.00  0.00    +0.035 A 
ATOM     14  N   UNL     1      -7.079  -1.316   2.341  0.00  0.00    -0.252 NA
ATOM     15  C   UNL     1      -7.712  -0.998   3.447  0.00  0.00    +0.131 A 
ATOM     16  C   UNL     1      -7.026  -0.901   4.659  0.00  0.00    +0.131 A 
ATOM     17  N   UNL     1      -5.733  -1.127   4.718  0.00  0.00    -0.252 NA
ENDBRANCH   4   8
BRANCH   6  18
ATOM     18  C   UNL     1      -0.311  -5.274  -0.022  0.00  0.00    -0.002 A 
ATOM     19  C   UNL     1      -0.930  -6.527  -0.016  0.00  0.00    +0.011 A 
ATOM     20  C   UNL     1      -0.162  -7.672  -0.035  0.00  0.00    +0.020 A 
ATOM     21  C   UNL     1       1.220  -7.583  -0.048  0.00  0.00    +0.041 A 
ATOM     22  C   UNL     1       1.840  -6.344  -0.048  0.00  0.00    +0.020 A 
ATOM     23  C   UNL     1       1.083  -5.191  -0.035  0.00  0.00    +0.011 A 
ATOM     24 CL   UNL     1       2.180  -9.029  -0.064  0.00  0.00    -0.084 Cl
ENDBRANCH   6  18
BRANCH   1  26
ATOM     25  C   UNL     1      -0.019   1.526   0.010  0.00  0.00    +0.017 C 
ATOM     26  C   UNL     1       0.002  -0.004   0.002  0.00  0.00    +0.071 C 
ATOM     27  C   UNL     1       0.742  -0.511   1.242  0.00  0.00    +0.017 C 
ENDBRANCH   1  26
TORSDOF 3
