REMARK  Name = ZINC36333802
REMARK  4 active torsions:
REMARK  status: ('A' for Active; 'I' for Inactive)
REMARK    1  A    between atoms: C_4  and  N_7
REMARK    2  A    between atoms: N_7  and  S_8
REMARK    3  A    between atoms: S_8  and  C_11
REMARK    4  A    between atoms: C_14  and  N_18
REMARK                            x       y       z     vdW  Elec       q    Type
REMARK                         _______ _______ _______ _____ _____    ______ ____
ROOT
ATOM      1  C   UNL     1       6.296  -0.940  -0.066  0.00  0.00    +0.147 A 
ATOM      2  C   UNL     1       6.818  -1.412   1.125  0.00  0.00    +0.071 A 
ATOM      3  C   UNL     1       7.847  -2.335   1.113  0.00  0.00    +0.044 A 
ATOM      4  C   UNL     1       8.355  -2.789  -0.097  0.00  0.00    +0.027 A 
ATOM      5  C   UNL     1       7.829  -2.314  -1.292  0.00  0.00    +0.044 A 
ATOM      6  C   UNL     1       6.797  -1.395  -1.273  0.00  0.00    +0.071 A 
ATOM      7 CL   UNL     1       6.134  -0.805  -2.765  0.00  0.00    -0.081 Cl
ATOM      8 CL   UNL     1       6.181  -0.843   2.637  0.00  0.00    -0.081 Cl
ENDROOT
BRANCH   1   9
ATOM      9  S   UNL     1       4.984   0.237  -0.047  0.00  0.00    +0.096 S 
ATOM     10  O   UNL     1       5.037   0.925  -1.289  0.00  0.00    -0.148 OA
ATOM     11  O   UNL     1       5.063   0.912   1.202  0.00  0.00    -0.148 OA
BRANCH   9  12
ATOM     12  N   UNL     1       3.563  -0.613  -0.036  0.00  0.00    -0.076 NA
BRANCH  12  16
ATOM     13  C   UNL     1      -0.016   1.318   0.009  0.00  0.00    +0.130 A 
ATOM     14  C   UNL     1       1.169   2.029   0.002  0.00  0.00    +0.132 A 
ATOM     15  N   UNL     1       2.326   1.390  -0.013  0.00  0.00    -0.234 NA
ATOM     16  C   UNL     1       2.349   0.063  -0.020  0.00  0.00    +0.181 A 
ATOM     17  C   UNL     1       1.153  -0.650  -0.012  0.00  0.00    +0.157 A 
ATOM     18  N   UNL     1       0.002  -0.004   0.002  0.00  0.00    -0.258 NA
ENDBRANCH  12  16
ENDBRANCH   9  12
ENDBRANCH   1   9
BRANCH   4  19
ATOM     19  N   UNL     1       9.395  -3.722  -0.113  0.00  0.00    -0.358 N 
ATOM     20  H   UNL     1       9.762  -4.053   0.722  0.00  0.00    +0.142 HD
ATOM     21  H   UNL     1       9.750  -4.039  -0.959  0.00  0.00    +0.142 HD
ENDBRANCH   4  19
TORSDOF 4
