REMARK  Name = ZINC09117690
REMARK  13 active torsions:
REMARK  status: ('A' for Active; 'I' for Inactive)
REMARK    1  A    between atoms: C_1  and  C_2
REMARK    2  A    between atoms: C_5  and  O_31
REMARK    3  A    between atoms: C_6  and  C_8
REMARK    4  A    between atoms: C_8  and  N_65
REMARK    5  A    between atoms: N_11  and  C_14
REMARK    6  A    between atoms: C_17  and  S_23
REMARK    7  A    between atoms: C_19  and  N_20
REMARK    8  A    between atoms: S_23  and  N_26
REMARK    9  A    between atoms: N_26  and  C_27
REMARK   10  A    between atoms: C_27  and  C_28
REMARK   11  A    between atoms: C_27  and  C_29
REMARK   12  A    between atoms: C_27  and  C_30
REMARK   13  A    between atoms: O_31  and  C_32
REMARK                            x       y       z     vdW  Elec       q    Type
REMARK                         _______ _______ _______ _____ _____    ______ ____
ROOT
ATOM      1  C   UNL     1      -1.024   4.624  -2.766  0.00  0.00    +0.060 A 
ATOM      2  C   UNL     1      -0.012   4.848  -1.841  0.00  0.00    +0.027 A 
ATOM      3  C   UNL     1       0.110   4.024  -0.740  0.00  0.00    +0.030 A 
ATOM      4  C   UNL     1      -0.767   2.970  -0.563  0.00  0.00    +0.108 A 
ATOM      5  C   UNL     1      -1.776   2.744  -1.481  0.00  0.00    +0.063 A 
ATOM      6  C   UNL     1      -1.907   3.567  -2.582  0.00  0.00    +0.149 A 
ENDROOT
BRANCH   1   9
ATOM      7  C   UNL     1      -1.600   7.717  -4.712  0.00  0.00    -0.059 C 
ATOM      8  C   UNL     1      -1.385   6.850  -3.468  0.00  0.00    +0.086 C 
ATOM      9  N   UNL     1      -1.154   5.458  -3.878  0.00  0.00    -0.332 N 
ATOM     10  C   UNL     1       0.024   5.358  -4.752  0.00  0.00    +0.086 C 
ATOM     11  C   UNL     1      -0.191   6.224  -5.995  0.00  0.00    -0.059 C 
ATOM     12  N   UNL     1      -0.400   7.625  -5.570  0.00  0.00    +0.384 N 
ATOM     13  H   UNL     1       0.419   7.936  -5.034  0.00  0.00    -0.081 HD
BRANCH  12  14
ATOM     14  C   UNL     1      -0.558   8.494  -6.755  0.00  0.00    -0.039 C 
BRANCH  14  20
ATOM     15  C   UNL     1       3.884   9.596  -8.776  0.00  0.00    +0.044 C 
ATOM     16  C   UNL     1       2.664   8.715  -8.711  0.00  0.00    -0.050 A 
ATOM     17  C   UNL     1       2.551   7.627  -9.558  0.00  0.00    +0.007 A 
ATOM     18  C   UNL     1       1.433   6.819  -9.500  0.00  0.00    +0.046 A 
ATOM     19  C   UNL     1       0.422   7.097  -8.592  0.00  0.00    +0.121 A 
ATOM     20  C   UNL     1       0.538   8.188  -7.743  0.00  0.00    -0.022 A 
ATOM     21  C   UNL     1       1.656   8.998  -7.808  0.00  0.00    +0.008 A 
BRANCH  19  22
ATOM     22  O   UNL     1      -0.678   6.303  -8.533  0.00  0.00    -0.495 OA
ATOM     23  C   UNL     1      -0.729   5.197  -9.437  0.00  0.00    +0.277 C 
ENDBRANCH  19  22
ENDBRANCH  14  20
ENDBRANCH  12  14
ENDBRANCH   1   9
BRANCH   6  24
ATOM     24  N   UNL     1      -2.987   3.324  -3.565  0.00  0.00    +0.058 N 
ATOM     25  O   UNL     1      -3.760   2.397  -3.403  0.00  0.00    -0.126 OA
ATOM     26  O   UNL     1      -3.102   4.051  -4.535  0.00  0.00    -0.126 OA
ENDBRANCH   6  24
BRANCH   4  27
ATOM     27  S   UNL     1      -0.604   1.916   0.840  0.00  0.00    +0.059 S 
ATOM     28  O   UNL     1      -1.802   1.157   0.920  0.00  0.00    -0.153 OA
ATOM     29  O   UNL     1      -0.147   2.732   1.910  0.00  0.00    -0.153 OA
BRANCH  27  30
ATOM     30  N   UNL     1       0.615   0.845   0.509  0.00  0.00    -0.185 NA
ATOM     31  H   UNL     1       1.436   0.870   1.024  0.00  0.00    +0.149 HD
BRANCH  30  32
ATOM     32  C   UNL     1       0.450  -0.144  -0.559  0.00  0.00    +0.032 C 
ATOM     33  C   UNL     1      -0.010   0.558  -1.838  0.00  0.00    +0.029 C 
ATOM     34  C   UNL     1       1.785  -0.846  -0.815  0.00  0.00    +0.029 C 
ATOM     35  C   UNL     1      -0.597  -1.178  -0.140  0.00  0.00    +0.029 C 
ENDBRANCH  30  32
ENDBRANCH  27  30
ENDBRANCH   4  27
TORSDOF 8
