REMARK  Name = ZINC35092819
REMARK  16 active torsions:
REMARK  status: ('A' for Active; 'I' for Inactive)
REMARK    1  A    between atoms: C_1  and  C_2
REMARK    2  A    between atoms: C_2  and  C_3
REMARK    3  A    between atoms: C_3  and  C_4
REMARK    4  A    between atoms: C_4  and  C_5
REMARK    5  A    between atoms: C_8  and  C_11
REMARK    6  A    between atoms: N_13  and  C_14
REMARK    7  A    between atoms: N_13  and  C_18
REMARK    8  A    between atoms: C_14  and  C_15
REMARK    9  A    between atoms: C_15  and  O_16
REMARK   10  A    between atoms: O_16  and  C_17
REMARK   11  A    between atoms: C_18  and  C_20
REMARK   12  A    between atoms: C_18  and  C_21
REMARK   13  A    between atoms: N_31  and  C_32
REMARK   14  A    between atoms: C_37  and  O_38
REMARK   15  A    between atoms: O_38  and  C_39
REMARK   16  A    between atoms: C_39  and  C_40
REMARK                            x       y       z     vdW  Elec       q    Type
REMARK                         _______ _______ _______ _____ _____    ______ ____
ROOT
ATOM      1  C   UNL     1       6.106  -5.183  -5.727  0.00  0.00    +0.138 A 
ATOM      2  N   UNL     1       6.881  -4.367  -5.080  0.00  0.00    -0.231 NA
ATOM      3  C   UNL     1       7.802  -4.815  -4.191  0.00  0.00    +0.078 A 
ATOM      4  C   UNL     1       8.636  -3.938  -3.495  0.00  0.00    +0.028 A 
ATOM      5  C   UNL     1       9.556  -4.437  -2.601  0.00  0.00    +0.002 A 
ATOM      6  C   UNL     1       9.667  -5.804  -2.382  0.00  0.00    +0.001 A 
ATOM      7  C   UNL     1       8.856  -6.690  -3.057  0.00  0.00    +0.015 A 
ATOM      8  C   UNL     1       7.917  -6.205  -3.966  0.00  0.00    +0.065 A 
ATOM      9  C   UNL     1       7.025  -7.102  -4.714  0.00  0.00    +0.266 A 
ATOM     10  O   UNL     1       7.073  -8.309  -4.566  0.00  0.00    -0.267 OA
ATOM     11  N   UNL     1       6.144  -6.533  -5.570  0.00  0.00    -0.259 N 
ENDROOT
BRANCH  11  12
ATOM     12  C   UNL     1       5.266  -7.343  -6.303  0.00  0.00    +0.093 A 
ATOM     13  C   UNL     1       5.509  -7.593  -7.646  0.00  0.00    +0.030 A 
ATOM     14  C   UNL     1       4.642  -8.392  -8.368  0.00  0.00    +0.002 A 
ATOM     15  C   UNL     1       3.532  -8.943  -7.755  0.00  0.00    +0.004 A 
ATOM     16  C   UNL     1       3.283  -8.698  -6.417  0.00  0.00    +0.048 A 
ATOM     17  C   UNL     1       4.151  -7.904  -5.685  0.00  0.00    +0.144 A 
BRANCH  17  18
ATOM     18  O   UNL     1       3.911  -7.667  -4.368  0.00  0.00    -0.490 OA
BRANCH  18  19
ATOM     19  C   UNL     1       2.748  -8.274  -3.801  0.00  0.00    +0.226 C 
ATOM     20  C   UNL     1       2.646  -7.896  -2.322  0.00  0.00    +0.048 C 
ENDBRANCH  18  19
ENDBRANCH  17  18
ENDBRANCH  11  12
BRANCH   1  21
ATOM     21  C   UNL     1       5.109  -4.604  -6.698  0.00  0.00    +0.140 C 
ATOM     22  C   UNL     1       5.500  -3.163  -7.032  0.00  0.00    +0.036 C 
BRANCH  21  25
ATOM     23  C   UNL     1       2.716  -5.052  -6.810  0.00  0.00    +0.247 C 
ATOM     24  O   UNL     1       1.600  -5.010  -6.331  0.00  0.00    -0.270 OA
ATOM     25  N   UNL     1       3.774  -4.620  -6.095  0.00  0.00    -0.286 N 
BRANCH  23  29
ATOM     26  C   UNL     1       3.284  -6.559 -10.741  0.00  0.00    -0.047 A 
ATOM     27  C   UNL     1       2.467  -7.238  -9.855  0.00  0.00    +0.004 A 
ATOM     28  C   UNL     1       2.278  -6.754  -8.576  0.00  0.00    +0.013 A 
ATOM     29  C   UNL     1       2.914  -5.577  -8.178  0.00  0.00    +0.037 A 
ATOM     30  C   UNL     1       3.737  -4.897  -9.078  0.00  0.00    +0.013 A 
ATOM     31  C   UNL     1       3.922  -5.395 -10.351  0.00  0.00    +0.004 A 
BRANCH  26  32
ATOM     32  C   UNL     1       3.485  -7.093 -12.136  0.00  0.00    +0.035 C 
BRANCH  32  33
ATOM     33  C   UNL     1       4.682  -8.046 -12.149  0.00  0.00    +0.004 C 
BRANCH  33  35
ATOM     34  C   UNL     1       6.083  -9.542 -13.578  0.00  0.00    +0.004 C 
ATOM     35  C   UNL     1       4.886  -8.589 -13.565  0.00  0.00    -0.003 C 
ENDBRANCH  33  35
ENDBRANCH  32  33
ENDBRANCH  26  32
ENDBRANCH  23  29
BRANCH  25  36
ATOM     36  C   UNL     1       3.588  -4.167  -4.714  0.00  0.00    +0.137 C 
BRANCH  36  37
ATOM     37  C   UNL     1       3.341  -2.657  -4.701  0.00  0.00    +0.178 C 
BRANCH  37  38
ATOM     38  O   UNL     1       2.078  -2.376  -5.308  0.00  0.00    -0.381 OA
ATOM     39  C   UNL     1       1.797  -0.982  -5.446  0.00  0.00    +0.194 C 
ENDBRANCH  37  38
ENDBRANCH  36  37
ENDBRANCH  25  36
ENDBRANCH  21  25
ENDBRANCH   1  21
TORSDOF 12
