REMARK  Name = ZINC37400424
REMARK  14 active torsions:
REMARK  status: ('A' for Active; 'I' for Inactive)
REMARK    1  A    between atoms: C_1  and  C_2
REMARK    2  A    between atoms: C_2  and  C_3
REMARK    3  A    between atoms: C_2  and  C_4
REMARK    4  A    between atoms: C_4  and  N_5
REMARK    5  A    between atoms: N_5  and  C_6
REMARK    6  A    between atoms: C_6  and  C_7
REMARK    7  A    between atoms: C_10  and  O_13
REMARK    8  A    between atoms: O_13  and  S_14
REMARK    9  A    between atoms: S_14  and  C_17
REMARK   10  A    between atoms: C_20  and  O_23
REMARK   11  A    between atoms: O_23  and  C_24
REMARK   12  A    between atoms: N_27  and  C_28
REMARK   13  A    between atoms: C_33  and  O_34
REMARK   14  A    between atoms: O_34  and  C_35
REMARK                            x       y       z     vdW  Elec       q    Type
REMARK                         _______ _______ _______ _____ _____    ______ ____
ROOT
ATOM      1  C   UNL     1      -1.384  -2.835   1.084  0.00  0.00    +0.144 C 
ENDROOT
BRANCH   1   2
ATOM      2  C   UNL     1      -2.786  -3.148   1.538  0.00  0.00    -0.030 A 
ATOM      3  C   UNL     1      -3.427  -2.308   2.429  0.00  0.00    +0.009 A 
ATOM      4  C   UNL     1      -4.712  -2.593   2.848  0.00  0.00    +0.049 A 
ATOM      5  C   UNL     1      -5.360  -3.723   2.372  0.00  0.00    +0.157 A 
ATOM      6  C   UNL     1      -4.715  -4.565   1.477  0.00  0.00    +0.049 A 
ATOM      7  C   UNL     1      -3.432  -4.273   1.058  0.00  0.00    +0.009 A 
BRANCH   5   8
ATOM      8  O   UNL     1      -6.625  -4.006   2.782  0.00  0.00    -0.342 OA
BRANCH   8   9
ATOM      9  S   UNL     1      -7.710  -3.396   1.907  0.00  0.00    +0.151 S 
ATOM     10  O   UNL     1      -8.943  -3.608   2.582  0.00  0.00    -0.131 OA
ATOM     11  O   UNL     1      -7.256  -2.101   1.540  0.00  0.00    -0.131 OA
BRANCH   9  12
ATOM     12  C   UNL     1      -7.779  -4.345   0.424  0.00  0.00    +0.128 A 
ATOM     13  C   UNL     1      -6.990  -3.995  -0.656  0.00  0.00    +0.034 A 
ATOM     14  C   UNL     1      -7.043  -4.738  -1.820  0.00  0.00    +0.047 A 
ATOM     15  C   UNL     1      -7.888  -5.835  -1.904  0.00  0.00    +0.120 A 
ATOM     16  C   UNL     1      -8.678  -6.184  -0.819  0.00  0.00    +0.047 A 
ATOM     17  C   UNL     1      -8.617  -5.442   0.345  0.00  0.00    +0.034 A 
BRANCH  15  18
ATOM     18  O   UNL     1      -7.941  -6.566  -3.049  0.00  0.00    -0.495 OA
ATOM     19  C   UNL     1      -8.833  -7.683  -3.064  0.00  0.00    +0.277 C 
ENDBRANCH  15  18
ENDBRANCH   9  12
ENDBRANCH   8   9
ENDBRANCH   5   8
ENDBRANCH   1   2
BRANCH   1  20
ATOM     20  N   UNL     1      -1.435  -1.994  -0.115  0.00  0.00    -0.281 N 
ATOM     21  C   UNL     1      -1.462  -2.563  -1.337  0.00  0.00    +0.307 C 
ATOM     22  O   UNL     1      -1.444  -3.774  -1.444  0.00  0.00    -0.252 OA
ATOM     23  N   UNL     1      -1.509  -1.790  -2.439  0.00  0.00    -0.266 N 
ATOM     24  H   UNL     1      -1.588  -0.827  -2.353  0.00  0.00    +0.156 HD
BRANCH  23  25
ATOM     25  C   UNL     1      -1.443  -2.377  -3.710  0.00  0.00    +0.077 A 
ATOM     26  C   UNL     1      -2.024  -3.616  -3.935  0.00  0.00    +0.027 A 
ATOM     27  C   UNL     1      -1.958  -4.193  -5.189  0.00  0.00    +0.002 A 
ATOM     28  C   UNL     1      -1.314  -3.537  -6.222  0.00  0.00    +0.004 A 
ATOM     29  C   UNL     1      -0.733  -2.302  -6.006  0.00  0.00    +0.047 A 
ATOM     30  C   UNL     1      -0.799  -1.714  -4.753  0.00  0.00    +0.141 A 
BRANCH  30  31
ATOM     31  O   UNL     1      -0.233  -0.497  -4.540  0.00  0.00    -0.493 OA
ATOM     32  C   UNL     1       0.410   0.123  -5.655  0.00  0.00    +0.277 C 
ENDBRANCH  30  31
ENDBRANCH  23  25
BRANCH  20  33
ATOM     33  C   UNL     1      -1.456  -0.535   0.014  0.00  0.00    +0.112 C 
BRANCH  33  35
ATOM     34  C   UNL     1      -0.047   1.528   0.025  0.00  0.00    +0.009 C 
ATOM     35  C   UNL     1      -0.022  -0.002   0.015  0.00  0.00    +0.000 C 
ATOM     36  C   UNL     1       0.709  -0.508   1.261  0.00  0.00    +0.009 C 
ENDBRANCH  33  35
ENDBRANCH  20  33
ENDBRANCH   1  20
TORSDOF 10
