REMARK  Name = ZINC16652560
REMARK  9 active torsions:
REMARK  status: ('A' for Active; 'I' for Inactive)
REMARK    1  A    between atoms: C_3  and  C_6
REMARK    2  A    between atoms: C_6  and  N_7
REMARK    3  A    between atoms: N_7  and  C_8
REMARK    4  A    between atoms: C_8  and  C_9
REMARK    5  A    between atoms: C_18  and  C_20
REMARK    6  A    between atoms: C_20  and  N_21
REMARK    7  A    between atoms: N_21  and  C_22
REMARK    8  A    between atoms: C_22  and  C_23
REMARK    9  A    between atoms: C_29  and  C_31
REMARK                            x       y       z     vdW  Elec       q    Type
REMARK                         _______ _______ _______ _____ _____    ______ ____
ROOT
ATOM      1  C   UNL     1       4.484   3.821  -2.494  0.00  0.00    +0.203 C 
ENDROOT
BRANCH   1   3
ATOM      2  N   UNL     1       2.611   2.982  -1.113  0.00  0.00    -0.289 N 
ATOM      3  C   UNL     1       3.903   2.871  -1.478  0.00  0.00    +0.234 C 
ATOM      4  O   UNL     1       4.599   2.006  -0.989  0.00  0.00    -0.274 OA
BRANCH   2   5
ATOM      5  C   UNL     1       1.737   3.940  -1.795  0.00  0.00    +0.182 C 
BRANCH   5   8
ATOM      6  C   UNL     1       2.236   7.332  -0.442  0.00  0.00    +0.041 A 
ATOM      7  C   UNL     1       2.519   6.323  -1.391  0.00  0.00    +0.046 A 
ATOM      8  C   UNL     1       1.767   5.257  -1.062  0.00  0.00    +0.122 A 
ATOM      9  O   UNL     1       1.044   5.567   0.026  0.00  0.00    -0.466 OA
ATOM     10  C   UNL     1       1.329   6.823   0.410  0.00  0.00    +0.195 A 
ENDBRANCH   5   8
ENDBRANCH   2   5
BRANCH   2  11
ATOM     11  C   UNL     1       2.079   2.145  -0.035  0.00  0.00    +0.143 C 
BRANCH  11  12
ATOM     12  C   UNL     1       1.544   0.861  -0.613  0.00  0.00    -0.026 A 
ATOM     13  C   UNL     1       2.374  -0.237  -0.744  0.00  0.00    +0.009 A 
ATOM     14  C   UNL     1       1.888  -1.417  -1.274  0.00  0.00    +0.050 A 
ATOM     15  C   UNL     1       0.566  -1.501  -1.682  0.00  0.00    +0.166 A 
ATOM     16  C   UNL     1      -0.273  -0.397  -1.544  0.00  0.00    +0.167 A 
ATOM     17  C   UNL     1       0.222   0.782  -1.012  0.00  0.00    +0.054 A 
ATOM     18  O   UNL     1      -1.513  -0.732  -2.004  0.00  0.00    -0.453 OA
ATOM     19  C   UNL     1      -1.535  -2.171  -2.040  0.00  0.00    +0.466 C 
ATOM     20  O   UNL     1      -0.152  -2.530  -2.219  0.00  0.00    -0.453 OA
ENDBRANCH  11  12
ENDBRANCH   2  11
ENDBRANCH   1   3
BRANCH   1  21
ATOM     21  N   UNL     1       5.666   3.214  -3.110  0.00  0.00    -0.290 N 
ATOM     22  C   UNL     1       6.898   3.551  -2.679  0.00  0.00    +0.222 C 
ATOM     23  O   UNL     1       7.879   3.092  -3.226  0.00  0.00    -0.275 OA
BRANCH  22  24
ATOM     24  C   UNL     1       7.057   4.496  -1.516  0.00  0.00    +0.048 C 
ATOM     25  C   UNL     1       6.186   4.023  -0.351  0.00  0.00    +0.019 C 
ATOM     26  C   UNL     1       6.347   4.983   0.829  0.00  0.00    -0.009 C 
ATOM     27  C   UNL     1       7.813   5.011   1.268  0.00  0.00    +0.007 C 
ATOM     28  C   UNL     1       8.685   5.484   0.102  0.00  0.00    -0.009 C 
ATOM     29  C   UNL     1       8.523   4.524  -1.078  0.00  0.00    +0.019 C 
ATOM     30  C   UNL     1       8.252   6.889  -0.320  0.00  0.00    +0.007 C 
ATOM     31  C   UNL     1       6.787   6.862  -0.758  0.00  0.00    -0.009 C 
ATOM     32  C   UNL     1       5.915   6.389   0.407  0.00  0.00    +0.007 C 
ATOM     33  C   UNL     1       6.625   5.902  -1.939  0.00  0.00    +0.019 C 
ENDBRANCH  22  24
BRANCH  21  34
ATOM     34  C   UNL     1       5.510   2.242  -4.195  0.00  0.00    +0.139 C 
BRANCH  34  35
ATOM     35  C   UNL     1       5.607   2.961  -5.542  0.00  0.00    +0.136 C 
ATOM     36  C   UNL     1       5.324   1.977  -6.698  0.00  0.00    +0.035 C 
ATOM     37  C   UNL     1       6.300   2.417  -7.813  0.00  0.00    +0.031 C 
ATOM     38  C   UNL     1       7.056   3.615  -7.198  0.00  0.00    +0.160 C 
ATOM     39  O   UNL     1       6.957   3.423  -5.769  0.00  0.00    -0.375 OA
ENDBRANCH  34  35
ENDBRANCH  21  34
ENDBRANCH   1  21
TORSDOF 9
