REMARK  Name = ZINC34363687
REMARK  5 active torsions:
REMARK  status: ('A' for Active; 'I' for Inactive)
REMARK    1  A    between atoms: N_3  and  C1*_10
REMARK    2  A    between atoms: C2*_12  and  O2*_22
REMARK    3  A    between atoms: C3*_14  and  O3*_21
REMARK    4  A    between atoms: C4*_16  and  C5*_19
REMARK    5  A    between atoms: C5*_19  and  O5*_20
REMARK                            x       y       z     vdW  Elec       q    Type
REMARK                         _______ _______ _______ _____ _____    ______ ____
ROOT
ATOM      1  C1* UNL     1      -1.098  -2.182   0.001  0.00  0.00    +0.253 C 
ATOM      2  C2* UNL     1      -1.712  -2.751   1.300  0.00  0.00    +0.195 C 
ATOM      3  C3* UNL     1      -2.449  -4.027   0.838  0.00  0.00    +0.178 C 
ATOM      4  C4* UNL     1      -2.195  -4.079  -0.684  0.00  0.00    +0.177 C 
ATOM      5  O4* UNL     1      -1.922  -2.710  -1.061  0.00  0.00    -0.346 OA
ENDROOT
BRANCH   1   8
ATOM      6  C   UNL     1      -0.016   1.346   0.009  0.00  0.00    +0.070 A 
ATOM      7  C   UNL     1       0.002  -0.004   0.002  0.00  0.00    +0.095 A 
ATOM      8  N   UNL     1      -1.155  -0.718   0.010  0.00  0.00    -0.285 N 
ATOM      9  C   UNL     1      -2.351  -0.101   0.025  0.00  0.00    +0.276 A 
ATOM     10  C   UNL     1      -2.421   1.298   0.032  0.00  0.00    +0.152 A 
ATOM     11  C   UNL     1      -1.248   2.030   0.031  0.00  0.00    +0.204 A 
ATOM     12  O   UNL     1      -1.283   3.384   0.038  0.00  0.00    -0.286 OA
ATOM     13 CL   UNL     1      -3.960   2.101   0.050  0.00  0.00    -0.074 Cl
ATOM     14  O   UNL     1      -3.378  -0.763   0.031  0.00  0.00    -0.266 OA
ENDBRANCH   1   8
BRANCH   3  15
ATOM     15  O3* UNL     1      -1.902  -5.181   1.479  0.00  0.00    -0.386 OA
ATOM     16  H3* UNL     1      -2.329  -6.012   1.226  0.00  0.00    +0.210 HD
ENDBRANCH   3  15
BRANCH   2  17
ATOM     17  O2* UNL     1      -0.684  -3.075   2.239  0.00  0.00    -0.385 OA
ATOM     18  H2* UNL     1      -1.013  -3.437   3.073  0.00  0.00    +0.210 HD
ENDBRANCH   2  17
BRANCH   4  19
ATOM     19  C5* UNL     1      -3.435  -4.598  -1.415  0.00  0.00    +0.190 C 
BRANCH  19  20
ATOM     20  O5* UNL     1      -3.141  -4.748  -2.805  0.00  0.00    -0.392 OA
ATOM     21  H5* UNL     1      -3.884  -5.074  -3.331  0.00  0.00    +0.210 HD
ENDBRANCH  19  20
ENDBRANCH   4  19
TORSDOF 5
