REMARK  Name = ZINC39987375
REMARK  12 active torsions:
REMARK  status: ('A' for Active; 'I' for Inactive)
REMARK    1  A    between atoms: C_1  and  C_2
REMARK    2  A    between atoms: C_2  and  C_4
REMARK    3  A    between atoms: C_2  and  O_30
REMARK    4  A    between atoms: N_6  and  N_7
REMARK    5  A    between atoms: N_15  and  C_18
REMARK    6  A    between atoms: C_18  and  C_19
REMARK    7  A    between atoms: C_19  and  C_20
REMARK    8  A    between atoms: C_20  and  O_21
REMARK    9  A    between atoms: O_21  and  C_22
REMARK   10  A    between atoms: C_25  and  O_28
REMARK   11  A    between atoms: O_28  and  C_29
REMARK   12  A    between atoms: O_30  and  C_31
REMARK                            x       y       z     vdW  Elec       q    Type
REMARK                         _______ _______ _______ _____ _____    ______ ____
ROOT
ATOM      1  N   UNL     1      -3.544  -1.209   0.938  0.00  0.00    -0.174 NA
ATOM      2  C   UNL     1      -4.329  -1.187   1.987  0.00  0.00    +0.153 C 
ATOM      3  C   UNL     1      -5.732  -1.657   2.075  0.00  0.00    +0.028 A 
ATOM      4  C   UNL     1      -6.604  -2.226   1.154  0.00  0.00    +0.012 A 
ATOM      5  C   UNL     1      -7.885  -2.566   1.544  0.00  0.00    +0.001 A 
ATOM      6  C   UNL     1      -8.296  -2.341   2.847  0.00  0.00    +0.002 A 
ATOM      7  C   UNL     1      -7.437  -1.776   3.768  0.00  0.00    +0.024 A 
ATOM      8  C   UNL     1      -6.144  -1.427   3.394  0.00  0.00    +0.046 A 
ATOM      9  N   UNL     1      -5.098  -0.855   4.109  0.00  0.00    -0.265 N 
ATOM     10  C   UNL     1      -4.006  -0.695   3.342  0.00  0.00    +0.271 C 
ATOM     11  O   UNL     1      -2.942  -0.226   3.699  0.00  0.00    -0.268 OA
ENDROOT
BRANCH   1  14
ATOM     12  C   UNL     1      -1.426  -0.748  -0.046  0.00  0.00    +0.273 C 
ATOM     13  O   UNL     1      -1.835  -1.187  -1.100  0.00  0.00    -0.270 OA
ATOM     14  N   UNL     1      -2.233  -0.726   1.034  0.00  0.00    -0.203 N 
ATOM     15  H   UNL     1      -1.905  -0.376   1.877  0.00  0.00    +0.177 HD
BRANCH  12  17
ATOM     16  C   UNL     1      -0.044   1.273   0.345  0.00  0.00    +0.062 C 
ATOM     17  C   UNL     1      -0.015  -0.229   0.058  0.00  0.00    +0.257 C 
BRANCH  17  18
ATOM     18  O   UNL     1       0.671  -0.465  -1.174  0.00  0.00    -0.480 OA
BRANCH  18  19
ATOM     19  C   UNL     1       2.026  -0.553  -1.118  0.00  0.00    +0.122 A 
ATOM     20  C   UNL     1       2.690  -0.309   0.075  0.00  0.00    +0.047 A 
ATOM     21  C   UNL     1       4.067  -0.399   0.130  0.00  0.00    +0.023 A 
ATOM     22  C   UNL     1       4.785  -0.732  -1.005  0.00  0.00    +0.041 A 
ATOM     23  C   UNL     1       4.125  -0.975  -2.197  0.00  0.00    +0.023 A 
ATOM     24  C   UNL     1       2.747  -0.893  -2.253  0.00  0.00    +0.047 A 
ATOM     25 CL   UNL     1       6.516  -0.844  -0.934  0.00  0.00    -0.084 Cl
ENDBRANCH  18  19
ENDBRANCH  17  18
ENDBRANCH  12  17
ENDBRANCH   1  14
BRANCH   9  26
ATOM     26  C   UNL     1      -5.174  -0.479   5.524  0.00  0.00    +0.117 C 
BRANCH  26  27
ATOM     27  C   UNL     1      -4.737  -1.663   6.389  0.00  0.00    +0.060 C 
BRANCH  27  28
ATOM     28  C   UNL     1      -4.817  -1.271   7.866  0.00  0.00    +0.230 C 
BRANCH  28  29
ATOM     29  O   UNL     1      -4.409  -2.376   8.675  0.00  0.00    -0.492 OA
BRANCH  29  30
ATOM     30  C   UNL     1      -4.422  -2.193  10.022  0.00  0.00    +0.121 A 
ATOM     31  C   UNL     1      -4.824  -0.976  10.553  0.00  0.00    +0.049 A 
ATOM     32  C   UNL     1      -4.838  -0.790  11.922  0.00  0.00    +0.049 A 
ATOM     33  C   UNL     1      -4.449  -1.820  12.765  0.00  0.00    +0.120 A 
ATOM     34  C   UNL     1      -4.047  -3.037  12.235  0.00  0.00    +0.049 A 
ATOM     35  C   UNL     1      -4.038  -3.224  10.866  0.00  0.00    +0.049 A 
BRANCH  33  36
ATOM     36  O   UNL     1      -4.461  -1.637  14.113  0.00  0.00    -0.495 OA
ATOM     37  C   UNL     1      -4.048  -2.740  14.921  0.00  0.00    +0.277 C 
ENDBRANCH  33  36
ENDBRANCH  29  30
ENDBRANCH  28  29
ENDBRANCH  27  28
ENDBRANCH  26  27
ENDBRANCH   9  26
TORSDOF 10
