REMARK  Name = ZINC42162866
REMARK  6 active torsions:
REMARK  status: ('A' for Active; 'I' for Inactive)
REMARK    1  A    between atoms: C_1  and  C_2
REMARK    2  A    between atoms: C_2  and  C_4
REMARK    3  A    between atoms: C_2  and  N_11
REMARK    4  A    between atoms: C_12  and  C_14
REMARK    5  A    between atoms: C_14  and  C_16
REMARK    6  A    between atoms: C_14  and  N_17
REMARK                            x       y       z     vdW  Elec       q    Type
REMARK                         _______ _______ _______ _____ _____    ______ ____
ROOT
ATOM      1  N   UNL     1      -1.367  -0.521  -0.078  0.00  0.00    -0.307 N 
ATOM      2  C   UNL     1      -1.944  -0.718  -1.280  0.00  0.00    +0.234 C 
ATOM      3  O   UNL     1      -1.330  -0.467  -2.295  0.00  0.00    -0.274 OA
ATOM      4  H   UNL     1      -1.857  -0.721   0.735  0.00  0.00    +0.149 HD
ENDROOT
BRANCH   1   6
ATOM      5  C   UNL     1      -0.028   1.526  -0.017  0.00  0.00    +0.033 C 
ATOM      6  C   UNL     1       0.002  -0.004   0.002  0.00  0.00    +0.101 C 
BRANCH   6   7
ATOM      7  C   UNL     1       0.644  -0.478   1.280  0.00  0.00    -0.014 A 
ATOM      8  C   UNL     1      -0.139  -0.765   2.382  0.00  0.00    +0.006 A 
ATOM      9  C   UNL     1       0.450  -1.200   3.555  0.00  0.00    +0.000 A 
ATOM     10  C   UNL     1       1.823  -1.349   3.626  0.00  0.00    +0.001 A 
ATOM     11  C   UNL     1       2.607  -1.062   2.524  0.00  0.00    +0.015 A 
ATOM     12  C   UNL     1       2.017  -0.631   1.349  0.00  0.00    +0.023 A 
ATOM     13 BR   UNL     1       3.089  -0.246  -0.161  0.00  0.00    -0.050 Br
ENDBRANCH   6   7
ENDBRANCH   1   6
BRANCH   2  14
ATOM     14  C   UNL     1      -3.352  -1.249  -1.361  0.00  0.00    +0.157 C 
ATOM     15  C   UNL     1      -4.302  -0.286  -0.648  0.00  0.00    +0.038 C 
BRANCH  14  16
ATOM     16  N   UNL     1      -3.746  -1.373  -2.767  0.00  0.00    -0.289 N 
ATOM     17  C   UNL     1      -4.700  -2.255  -3.124  0.00  0.00    +0.298 C 
ATOM     18  O   UNL     1      -5.234  -2.948  -2.279  0.00  0.00    -0.253 OA
ATOM     19  N   UNL     1      -5.062  -2.369  -4.417  0.00  0.00    -0.313 N 
ATOM     20  H   UNL     1      -3.320  -0.820  -3.441  0.00  0.00    +0.151 HD
ATOM     21  H   UNL     1      -4.637  -1.817  -5.091  0.00  0.00    +0.146 HD
ATOM     22  H   UNL     1      -5.749  -3.005  -4.674  0.00  0.00    +0.146 HD
ENDBRANCH  14  16
ENDBRANCH   2  14
TORSDOF 4
