REMARK  Name = ZINC04222474
REMARK  10 active torsions:
REMARK  status: ('A' for Active; 'I' for Inactive)
REMARK    1  A    between atoms: C_1  and  C_2
REMARK    2  A    between atoms: C_5  and  O_36
REMARK    3  A    between atoms: C_7  and  C_33
REMARK    4  A    between atoms: C_7  and  C_34
REMARK    5  A    between atoms: C_17  and  C_19
REMARK    6  A    between atoms: C_19  and  O_20
REMARK    7  A    between atoms: O_20  and  C_21
REMARK    8  A    between atoms: C_22  and  C_24
REMARK    9  A    between atoms: C_24  and  C_25
REMARK   10  A    between atoms: C_34  and  O_35
REMARK                            x       y       z     vdW  Elec       q    Type
REMARK                         _______ _______ _______ _____ _____    ______ ____
ROOT
ATOM      1  C   UNL     1       3.034  -8.463  -1.752  0.00  0.00    +0.012 C 
ATOM      2  C   UNL     1       1.874  -8.414  -2.748  0.00  0.00    -0.019 C 
ATOM      3  C   UNL     1       2.133  -9.405  -3.887  0.00  0.00    +0.010 C 
ATOM      4  C   UNL     1       2.192 -10.833  -3.348  0.00  0.00    +0.032 C 
ATOM      5  C   UNL     1       0.847 -11.171  -2.698  0.00  0.00    +0.123 C 
ATOM      6  C   UNL     1       0.611 -10.213  -1.532  0.00  0.00    +0.021 C 
ATOM      7  C   UNL     1       0.568  -8.765  -2.032  0.00  0.00    +0.011 C 
ATOM      8  C   UNL     1       0.417  -7.860  -0.793  0.00  0.00    +0.049 C 
ATOM      9  C   UNL     1       0.716  -6.455  -1.181  0.00  0.00    +0.015 A 
ATOM     10  C   UNL     1       1.323  -6.018  -2.314  0.00  0.00    +0.058 A 
ATOM     11  N   UNL     1       1.478  -4.700  -2.422  0.00  0.00    -0.229 NA
ATOM     12  C   UNL     1       1.064  -3.867  -1.490  0.00  0.00    +0.165 A 
ATOM     13  S   UNL     1       0.390  -4.948  -0.307  0.00  0.00    -0.057 S 
ATOM     14  N   UNL     1       1.150  -2.480  -1.458  0.00  0.00    -0.263 N 
ATOM     15  C   UNL     1       0.662  -1.799  -0.402  0.00  0.00    +0.244 C 
ATOM     16  O   UNL     1       0.148  -2.396   0.520  0.00  0.00    -0.273 OA
ATOM     17  C   UNL     1       1.778  -7.015  -3.369  0.00  0.00    +0.054 C 
ATOM     18  C   UNL     1      -0.719 -10.555  -0.857  0.00  0.00    +0.016 C 
ATOM     19  H   UNL     1       1.561  -2.002  -2.195  0.00  0.00    +0.157 HD
ENDROOT
BRANCH   5  20
ATOM     20  O   UNL     1       0.872 -12.516  -2.216  0.00  0.00    -0.391 OA
ATOM     21  H   UNL     1       1.029 -13.177  -2.904  0.00  0.00    +0.210 HD
ENDBRANCH   5  20
BRANCH  15  22
ATOM     22  C   UNL     1       0.756  -0.295  -0.367  0.00  0.00    +0.255 C 
BRANCH  22  23
ATOM     23  O   UNL     1       0.174   0.191   0.844  0.00  0.00    -0.374 OA
ATOM     24  C   UNL     1       0.211   1.613   0.978  0.00  0.00    +0.194 C 
ENDBRANCH  22  23
ENDBRANCH  15  22
BRANCH  17  25
ATOM     25  C   UNL     1       3.150  -6.599  -3.905  0.00  0.00    +0.106 C 
BRANCH  25  26
ATOM     26  C   UNL     1       3.016  -5.321  -4.691  0.00  0.00    +0.219 C 
ATOM     27  O   UNL     1       1.930  -4.793  -4.811  0.00  0.00    -0.275 OA
ATOM     28  N   UNL     1       4.103  -4.763  -5.260  0.00  0.00    -0.265 N 
ATOM     29  C   UNL     1       3.979  -3.583  -5.985  0.00  0.00    +0.164 A 
ATOM     30  N   UNL     1       4.914  -2.893  -6.609  0.00  0.00    -0.233 NA
ATOM     31  C   UNL     1       4.624  -1.782  -7.258  0.00  0.00    +0.120 A 
ATOM     32  C   UNL     1       3.336  -1.359  -7.271  0.00  0.00    +0.068 A 
ATOM     33  S   UNL     1       2.554  -2.645  -6.308  0.00  0.00    -0.061 S 
ATOM     34  H   UNL     1       4.971  -5.185  -5.165  0.00  0.00    +0.157 HD
ENDBRANCH  25  26
ENDBRANCH  17  25
BRANCH   6  35
ATOM     35  C   UNL     1       1.744 -10.364  -0.515  0.00  0.00    +0.165 C 
BRANCH  35  36
ATOM     36  O   UNL     1       1.690 -11.668   0.068  0.00  0.00    -0.394 OA
ATOM     37  H   UNL     1       2.381 -11.834   0.724  0.00  0.00    +0.209 HD
ENDBRANCH  35  36
ENDBRANCH   6  35
TORSDOF 7
