REMARK  Name = ZINC22561447
REMARK  12 active torsions:
REMARK  status: ('A' for Active; 'I' for Inactive)
REMARK    1  A    between atoms: C_1  and  C_2
REMARK    2  A    between atoms: C_2  and  C_4
REMARK    3  A    between atoms: C_2  and  N_32
REMARK    4  A    between atoms: C_7  and  S_16
REMARK    5  A    between atoms: N_8  and  C_9
REMARK    6  A    between atoms: S_16  and  C_17
REMARK    7  A    between atoms: C_17  and  C_19
REMARK    8  A    between atoms: C_17  and  C_20
REMARK    9  A    between atoms: N_22  and  C_23
REMARK   10  A    between atoms: C_26  and  C_29
REMARK   11  A    between atoms: N_32  and  C_33
REMARK   12  A    between atoms: N_32  and  C_34
REMARK                            x       y       z     vdW  Elec       q    Type
REMARK                         _______ _______ _______ _____ _____    ______ ____
ROOT
ATOM      1  C   UNL     1      -1.502   3.728   0.033  0.00  0.00    +0.125 A 
ATOM      2  N   UNL     1      -1.606   3.157  -1.134  0.00  0.00    -0.135 NA
ATOM      3  N   UNL     1      -2.530   3.724  -1.823  0.00  0.00    -0.122 NA
ATOM      4  C   UNL     1      -3.073   4.697  -1.129  0.00  0.00    +0.197 A 
ATOM      5  N   UNL     1      -2.436   4.728   0.082  0.00  0.00    -0.275 N 
ENDROOT
BRANCH   5   6
ATOM      6  C   UNL     1      -2.687   5.602   1.150  0.00  0.00    +0.050 A 
ATOM      7  C   UNL     1      -3.179   5.110   2.350  0.00  0.00    +0.028 A 
ATOM      8  C   UNL     1      -3.420   5.972   3.402  0.00  0.00    +0.022 A 
ATOM      9  C   UNL     1      -3.182   7.327   3.256  0.00  0.00    +0.041 A 
ATOM     10  C   UNL     1      -2.696   7.821   2.058  0.00  0.00    +0.022 A 
ATOM     11  C   UNL     1      -2.448   6.962   1.005  0.00  0.00    +0.028 A 
ATOM     12 CL   UNL     1      -3.491   8.410   4.577  0.00  0.00    -0.084 Cl
ENDBRANCH   5   6
BRANCH   1  14
ATOM     13  C   UNL     1       0.865   3.847   0.763  0.00  0.00    -0.005 C 
ATOM     14  C   UNL     1      -0.536   3.353   1.127  0.00  0.00    -0.003 C 
BRANCH  14  15
ATOM     15  N   UNL     1      -0.515   1.892   1.282  0.00  0.00    +0.382 N 
ATOM     16  C   UNL     1       0.042   1.244   0.088  0.00  0.00    -0.096 C 
ATOM     17  C   UNL     1       0.228   1.502   2.488  0.00  0.00    -0.096 C 
ATOM     18  H   UNL     1      -1.554   1.550   1.399  0.00  0.00    -0.082 HD
ENDBRANCH  14  15
ENDBRANCH   1  14
BRANCH   4  19
ATOM     19  S   UNL     1      -4.378   5.758  -1.653  0.00  0.00    -0.073 S 
BRANCH  19  20
ATOM     20  C   UNL     1      -4.672   5.099  -3.313  0.00  0.00    +0.137 C 
ATOM     21  C   UNL     1      -5.190   3.663  -3.207  0.00  0.00    +0.029 C 
BRANCH  20  22
ATOM     22  C   UNL     1      -5.694   5.951  -4.019  0.00  0.00    +0.230 C 
ATOM     23  O   UNL     1      -6.436   6.665  -3.377  0.00  0.00    -0.274 OA
ATOM     24  N   UNL     1      -5.785   5.920  -5.363  0.00  0.00    -0.285 N 
ATOM     25  H   UNL     1      -5.058   5.341  -5.950  0.00  0.00    +0.155 HD
BRANCH  24  26
ATOM     26  C   UNL     1      -6.802   6.623  -6.009  0.00  0.00    +0.033 A 
ATOM     27  C   UNL     1      -8.048   6.754  -5.405  0.00  0.00    +0.024 A 
ATOM     28  C   UNL     1      -9.052   7.451  -6.038  0.00  0.00    +0.015 A 
ATOM     29  C   UNL     1      -8.822   8.019  -7.294  0.00  0.00    +0.037 A 
ATOM     30  C   UNL     1      -7.570   7.881  -7.901  0.00  0.00    +0.015 A 
ATOM     31  C   UNL     1      -6.569   7.187  -7.260  0.00  0.00    +0.024 A 
BRANCH  29  32
ATOM     32  C   UNL     1      -9.897   8.763  -7.978  0.00  0.00    +0.242 C 
ATOM     33  O   UNL     1      -9.695   9.257  -9.071  0.00  0.00    -0.270 OA
ATOM     34  N   UNL     1     -11.104   8.894  -7.392  0.00  0.00    -0.325 N 
ATOM     35  H   UNL     1     -11.905   9.449  -7.902  0.00  0.00    +0.145 HD
ATOM     36  H   UNL     1     -11.287   8.447  -6.404  0.00  0.00    +0.145 HD
ENDBRANCH  29  32
ENDBRANCH  24  26
ENDBRANCH  20  22
ENDBRANCH  19  20
ENDBRANCH   4  19
TORSDOF 8
