REMARK  Name = ZINC46659582
REMARK  6 active torsions:
REMARK  status: ('A' for Active; 'I' for Inactive)
REMARK    1  A    between atoms: C_4  and  C_7
REMARK    2  A    between atoms: C_12  and  O_13
REMARK    3  A    between atoms: O_13  and  C_14
REMARK    4  A    between atoms: C_14  and  C_15
REMARK    5  A    between atoms: N_17  and  N_18
REMARK    6  A    between atoms: C_19  and  C_21
REMARK                            x       y       z     vdW  Elec       q    Type
REMARK                         _______ _______ _______ _____ _____    ______ ____
ROOT
ATOM      1  C   UNL     1       2.154  -3.345   3.627  0.00  0.00    +0.267 C 
ATOM      2  O   UNL     1       1.149  -2.674   3.524  0.00  0.00    -0.271 OA
ATOM      3  N   UNL     1       2.230  -4.302   4.574  0.00  0.00    -0.231 N 
ATOM      4  H   UNL     1       3.034  -4.839   4.657  0.00  0.00    +0.173 HD
ENDROOT
BRANCH   3   5
ATOM      5  N   UNL     1       1.149  -4.520   5.438  0.00  0.00    -0.230 N 
ATOM      6  C   UNL     1       1.226  -5.477   6.385  0.00  0.00    +0.260 C 
ATOM      7  O   UNL     1       2.232  -6.150   6.488  0.00  0.00    -0.269 OA
ATOM      8  H   UNL     1       0.346  -3.983   5.355  0.00  0.00    +0.173 HD
BRANCH   6   9
ATOM      9  C   UNL     1       0.083  -5.708   7.298  0.00  0.00    +0.040 A 
ATOM     10  C   UNL     1      -1.079  -4.931   7.169  0.00  0.00    +0.014 A 
ATOM     11  C   UNL     1      -2.142  -5.124   7.997  0.00  0.00    +0.016 A 
ATOM     12  C   UNL     1      -2.083  -6.109   8.992  0.00  0.00    +0.065 A 
ATOM     13  C   UNL     1      -0.914  -6.903   9.134  0.00  0.00    +0.080 A 
ATOM     14  C   UNL     1       0.168  -6.693   8.269  0.00  0.00    +0.041 A 
ATOM     15  N   UNL     1      -0.874  -7.841  10.091  0.00  0.00    -0.223 NA
ATOM     16  C   UNL     1      -1.908  -8.031  10.897  0.00  0.00    +0.180 A 
ATOM     17  N   UNL     1      -3.035  -7.307  10.804  0.00  0.00    -0.301 N 
ATOM     18  H   UNL     1      -3.767  -7.481  11.416  0.00  0.00    +0.171 HD
ATOM     19  C   UNL     1      -3.164  -6.340   9.869  0.00  0.00    +0.260 A 
ATOM     20  O   UNL     1      -4.293  -5.616   9.777  0.00  0.00    -0.267 OA
ATOM     21  S   UNL     1      -1.803  -9.244  12.101  0.00  0.00    -0.011 S 
ENDBRANCH   6   9
ENDBRANCH   3   5
BRANCH   1  22
ATOM     22  C   UNL     1       3.316  -3.111   2.698  0.00  0.00    +0.326 C 
BRANCH  22  23
ATOM     23  O   UNL     1       2.995  -2.054   1.792  0.00  0.00    -0.482 OA
BRANCH  23  29
ATOM     24  C   UNL     1       3.698  -0.688  -0.038  0.00  0.00    +0.024 A 
ATOM     25  C   UNL     1       4.679  -0.343  -0.966  0.00  0.00    +0.012 A 
ATOM     26  C   UNL     1       5.883  -1.017  -0.978  0.00  0.00    +0.001 A 
ATOM     27  C   UNL     1       6.121  -2.036  -0.071  0.00  0.00    +0.004 A 
ATOM     28  C   UNL     1       5.155  -2.386   0.853  0.00  0.00    +0.046 A 
ATOM     29  C   UNL     1       3.943  -1.714   0.880  0.00  0.00    +0.129 A 
BRANCH  24  33
ATOM     30  C   UNL     1      -0.017   1.379   0.010  0.00  0.00    +0.000 A 
ATOM     31  C   UNL     1       1.169   2.092   0.002  0.00  0.00    +0.001 A 
ATOM     32  C   UNL     1       2.377   1.426  -0.013  0.00  0.00    +0.008 A 
ATOM     33  C   UNL     1       2.402   0.033  -0.021  0.00  0.00    -0.014 A 
ATOM     34  C   UNL     1       1.205  -0.680  -0.013  0.00  0.00    +0.008 A 
ATOM     35  C   UNL     1       0.002  -0.004   0.002  0.00  0.00    +0.001 A 
ENDBRANCH  24  33
ENDBRANCH  23  29
ENDBRANCH  22  23
ENDBRANCH   1  22
TORSDOF 6
