REMARK  Name = ZINC39918930
REMARK  5 active torsions:
REMARK  status: ('A' for Active; 'I' for Inactive)
REMARK    1  A    between atoms: C_1  and  C_2
REMARK    2  A    between atoms: C_11  and  N_33
REMARK    3  A    between atoms: C_12  and  C_31
REMARK    4  A    between atoms: N_20  and  C_23
REMARK    5  A    between atoms: C_23  and  C_24
REMARK                            x       y       z     vdW  Elec       q    Type
REMARK                         _______ _______ _______ _____ _____    ______ ____
ROOT
ATOM      1  C   UNL     1      -0.018   1.503   0.010  0.00  0.00    +0.063 C 
ATOM      2  C   UNL     1       0.002  -0.004   0.002  0.00  0.00    +0.034 C 
ATOM      3  N   UNL     1       0.005  -0.644  -1.147  0.00  0.00    -0.185 NA
ATOM      4  C   UNL     1       0.013  -1.966  -1.231  0.00  0.00    +0.248 C 
ATOM      5  O   UNL     1       0.043  -2.478  -2.332  0.00  0.00    -0.273 OA
ATOM      6  C   UNL     1      -0.012  -2.858  -0.027  0.00  0.00    +0.167 C 
ATOM      7  C   UNL     1       0.029  -2.043   1.244  0.00  0.00    +0.122 C 
ATOM      8  C   UNL     1       0.023  -0.697   1.216  0.00  0.00    +0.063 C 
ATOM      9  O   UNL     1       0.084  -2.716   2.415  0.00  0.00    -0.445 OA
ATOM     10  C   UNL     1       0.880  -3.807   2.457  0.00  0.00    +0.199 C 
ATOM     11  C   UNL     1       1.423  -4.353   1.346  0.00  0.00    +0.107 C 
ATOM     12  C   UNL     1       1.211  -3.778  -0.022  0.00  0.00    +0.131 C 
ATOM     13  C   UNL     1       1.063  -4.862  -1.043  0.00  0.00    -0.005 A 
ATOM     14  C   UNL     1       0.137  -5.875  -1.172  0.00  0.00    +0.007 A 
ATOM     15  C   UNL     1       0.287  -6.732  -2.257  0.00  0.00    +0.000 A 
ATOM     16  C   UNL     1       1.317  -6.572  -3.162  0.00  0.00    +0.002 A 
ATOM     17  C   UNL     1       2.251  -5.556  -3.039  0.00  0.00    +0.024 A 
ATOM     18  C   UNL     1       2.112  -4.689  -1.953  0.00  0.00    +0.041 A 
ATOM     19  N   UNL     1       2.891  -3.605  -1.590  0.00  0.00    -0.266 N 
ATOM     20  C   UNL     1       2.436  -3.009  -0.468  0.00  0.00    +0.237 C 
ATOM     21  O   UNL     1       2.918  -2.041   0.081  0.00  0.00    -0.274 OA
ENDROOT
BRANCH  10  22
ATOM     22  N   UNL     1       1.148  -4.383   3.674  0.00  0.00    -0.328 N 
ATOM     23  H   UNL     1       0.767  -4.005   4.483  0.00  0.00    +0.145 HD
ATOM     24  H   UNL     1       1.717  -5.166   3.726  0.00  0.00    +0.145 HD
ENDBRANCH  10  22
BRANCH  11  25
ATOM     25  C   UNL     1       2.237  -5.524   1.483  0.00  0.00    +0.101 C 
ATOM     26  N   UNL     1       2.883  -6.452   1.591  0.00  0.00    -0.191 NA
ENDBRANCH  11  25
BRANCH  19  27
ATOM     27  C   UNL     1       4.069  -3.156  -2.335  0.00  0.00    +0.150 C 
BRANCH  27  28
ATOM     28  C   UNL     1       3.652  -2.149  -3.376  0.00  0.00    -0.011 A 
ATOM     29  C   UNL     1       3.492  -2.540  -4.692  0.00  0.00    +0.006 A 
ATOM     30  C   UNL     1       3.109  -1.617  -5.646  0.00  0.00    +0.000 A 
ATOM     31  C   UNL     1       2.886  -0.301  -5.285  0.00  0.00    +0.001 A 
ATOM     32  C   UNL     1       3.046   0.092  -3.970  0.00  0.00    +0.020 A 
ATOM     33  C   UNL     1       3.424  -0.834  -3.013  0.00  0.00    +0.046 A 
ATOM     34 CL   UNL     1       3.618  -0.343  -1.359  0.00  0.00    -0.083 Cl
ENDBRANCH  27  28
ENDBRANCH  19  27
TORSDOF 4
