REMARK  Name = ZINC40349010
REMARK  6 active torsions:
REMARK  status: ('A' for Active; 'I' for Inactive)
REMARK    1  A    between atoms: C_1  and  C_2
REMARK    2  A    between atoms: C_3  and  N_12
REMARK    3  A    between atoms: C_7  and  S_8
REMARK    4  A    between atoms: S_8  and  N_11
REMARK    5  A    between atoms: N_12  and  S_13
REMARK    6  A    between atoms: S_13  and  C_16
REMARK                            x       y       z     vdW  Elec       q    Type
REMARK                         _______ _______ _______ _____ _____    ______ ____
ROOT
ATOM      1  N   UNL     1      -0.095  -0.036  -2.370  0.00  0.00    -0.216 N 
ATOM      2  H   UNL     1       0.424   0.783  -2.394  0.00  0.00    +0.174 HD
ENDROOT
BRANCH   1   5
ATOM      3  C   UNL     1      -0.422   1.546  -0.028  0.00  0.00    +0.048 C 
ATOM      4  C   UNL     1      -0.474   0.041   0.012  0.00  0.00    -0.002 A 
ATOM      5  C   UNL     1      -0.309  -0.693  -1.156  0.00  0.00    +0.053 A 
ATOM      6  C   UNL     1      -0.357  -2.080  -1.115  0.00  0.00    +0.025 A 
ATOM      7  C   UNL     1      -0.569  -2.726   0.088  0.00  0.00    +0.004 A 
ATOM      8  C   UNL     1      -0.733  -1.994   1.249  0.00  0.00    +0.029 A 
ATOM      9  C   UNL     1      -0.680  -0.612   1.212  0.00  0.00    +0.110 A 
BRANCH   9  10
ATOM     10  S   UNL     1      -0.883   0.317   2.695  0.00  0.00    +0.056 S 
ATOM     11  O   UNL     1      -1.848   1.322   2.416  0.00  0.00    -0.153 OA
ATOM     12  O   UNL     1      -1.047  -0.627   3.745  0.00  0.00    -0.153 OA
BRANCH  10  13
ATOM     13  N   UNL     1       0.547   1.100   2.982  0.00  0.00    -0.204 NA
ATOM     14  H   UNL     1       1.292   0.989   2.371  0.00  0.00    +0.144 HD
ATOM     15  H   UNL     1       0.640   1.670   3.761  0.00  0.00    +0.144 HD
ENDBRANCH  10  13
ENDBRANCH   9  10
ENDBRANCH   1   5
BRANCH   1  16
ATOM     16  S   UNL     1      -0.729  -0.655  -3.769  0.00  0.00    +0.077 S 
ATOM     17  O   UNL     1      -2.077  -1.002  -3.486  0.00  0.00    -0.150 OA
ATOM     18  O   UNL     1      -0.377   0.247  -4.809  0.00  0.00    -0.150 OA
BRANCH  16  19
ATOM     19  C   UNL     1       0.120  -2.163  -4.103  0.00  0.00    +0.167 A 
ATOM     20  C   UNL     1      -0.432  -3.397  -4.133  0.00  0.00    +0.135 A 
ATOM     21  N   UNL     1       0.547  -4.281  -4.422  0.00  0.00    -0.281 N 
ATOM     22  H   UNL     1       0.440  -5.241  -4.509  0.00  0.00    +0.188 HD
ATOM     23  N   UNL     1       1.743  -3.569  -4.576  0.00  0.00    -0.157 NA
ATOM     24  C   UNL     1       1.488  -2.295  -4.390  0.00  0.00    +0.165 A 
ATOM     25  N   UNL     1       2.418  -1.251  -4.463  0.00  0.00    -0.340 N 
ATOM     26  H   UNL     1       2.123  -0.332  -4.373  0.00  0.00    +0.144 HD
ATOM     27  H   UNL     1       3.357  -1.448  -4.603  0.00  0.00    +0.144 HD
ENDBRANCH  16  19
ENDBRANCH   1  16
TORSDOF 5
