REMARK  Name = ZINC37269650
REMARK  9 active torsions:
REMARK  status: ('A' for Active; 'I' for Inactive)
REMARK    1  A    between atoms: C_1  and  C_2
REMARK    2  A    between atoms: C_2  and  C_4
REMARK    3  A    between atoms: C_2  and  N_16
REMARK    4  A    between atoms: N_6  and  C_7
REMARK    5  A    between atoms: C_8  and  N_15
REMARK    6  A    between atoms: N_16  and  C_17
REMARK    7  A    between atoms: N_16  and  C_18
REMARK    8  A    between atoms: C_18  and  C_19
REMARK    9  A    between atoms: N_21  and  C_22
REMARK                            x       y       z     vdW  Elec       q    Type
REMARK                         _______ _______ _______ _____ _____    ______ ____
ROOT
ATOM      1  C   UNL     1       0.688  -1.262  -1.055  0.00  0.00    +0.203 C 
ATOM      2  O   UNL     1       1.248  -2.279  -0.701  0.00  0.00    -0.277 OA
ATOM      3  N   UNL     1       0.952  -0.736  -2.268  0.00  0.00    -0.284 N 
ATOM      4  H   UNL     1       0.572   0.121  -2.517  0.00  0.00    +0.155 HD
ENDROOT
BRANCH   3   5
ATOM      5  C   UNL     1       1.774  -1.428  -3.169  0.00  0.00    +0.073 A 
ATOM      6  C   UNL     1       1.334  -1.675  -4.469  0.00  0.00    +0.049 A 
ATOM      7  C   UNL     1       2.151  -2.360  -5.356  0.00  0.00    +0.044 A 
ATOM      8  C   UNL     1       3.401  -2.795  -4.950  0.00  0.00    +0.044 A 
ATOM      9  C   UNL     1       3.838  -2.549  -3.661  0.00  0.00    +0.042 A 
ATOM     10  C   UNL     1       3.030  -1.863  -2.772  0.00  0.00    +0.065 A 
ATOM     11 CL   UNL     1       3.586  -1.550  -1.157  0.00  0.00    -0.082 Cl
ATOM     12 CL   UNL     1       4.422  -3.651  -6.062  0.00  0.00    -0.083 Cl
BRANCH   6  13
ATOM     13  N   UNL     1       0.070  -1.235  -4.877  0.00  0.00    -0.356 N 
ATOM     14  H   UNL     1      -0.501  -0.757  -4.256  0.00  0.00    +0.142 HD
ATOM     15  H   UNL     1      -0.235  -1.408  -5.782  0.00  0.00    +0.142 HD
ENDBRANCH   6  13
ENDBRANCH   3   5
BRANCH   1  17
ATOM     16  C   UNL     1       0.417   0.481   0.687  0.00  0.00    -0.004 C 
ATOM     17  C   UNL     1      -0.300  -0.588  -0.140  0.00  0.00    +0.017 C 
BRANCH  17  18
ATOM     18  N   UNL     1      -0.894  -1.586   0.760  0.00  0.00    +0.391 N 
ATOM     19  C   UNL     1      -1.634  -2.579  -0.030  0.00  0.00    -0.094 C 
ATOM     20  H   UNL     1      -0.163  -2.047   1.280  0.00  0.00    -0.080 HD
BRANCH  18  21
ATOM     21  C   UNL     1      -1.813  -0.919   1.693  0.00  0.00    +0.019 C 
BRANCH  21  22
ATOM     22  C   UNL     1      -2.328  -1.921   2.693  0.00  0.00    +0.196 C 
ATOM     23  O   UNL     1      -1.965  -3.077   2.635  0.00  0.00    -0.278 OA
ATOM     24  N   UNL     1      -3.191  -1.534   3.653  0.00  0.00    -0.320 N 
ATOM     25  C   UNL     1      -3.691  -2.508   4.626  0.00  0.00    +0.128 C 
ATOM     26  H   UNL     1      -3.481  -0.609   3.699  0.00  0.00    +0.148 HD
ENDBRANCH  21  22
ENDBRANCH  18  21
ENDBRANCH  17  18
ENDBRANCH   1  17
TORSDOF 6
