REMARK  Name = ZINC39516778
REMARK  9 active torsions:
REMARK  status: ('A' for Active; 'I' for Inactive)
REMARK    1  A    between atoms: C_1  and  C_2
REMARK    2  A    between atoms: C_2  and  C_3
REMARK    3  A    between atoms: C_3  and  C_4
REMARK    4  A    between atoms: C_4  and  N_5
REMARK    5  A    between atoms: C_6  and  C_8
REMARK    6  A    between atoms: C_8  and  N_9
REMARK    7  A    between atoms: N_12  and  C_15
REMARK    8  A    between atoms: C_15  and  C_17
REMARK    9  A    between atoms: C_15  and  C_23
REMARK                            x       y       z     vdW  Elec       q    Type
REMARK                         _______ _______ _______ _____ _____    ______ ____
ROOT
ATOM      1  N   UNL     1      -4.409  -5.889   0.013  0.00  0.00    +0.387 N 
ATOM      2  C   UNL     1      -3.804  -6.377   1.259  0.00  0.00    -0.063 C 
ATOM      3  C   UNL     1      -3.765  -7.907   1.242  0.00  0.00    +0.067 C 
ATOM      4  N   UNL     1      -5.133  -8.427   1.106  0.00  0.00    -0.291 NA
ATOM      5  C   UNL     1      -5.761  -7.927  -0.125  0.00  0.00    +0.067 C 
ATOM      6  C   UNL     1      -5.783  -6.397  -0.098  0.00  0.00    -0.063 C 
ATOM      7  H   UNL     1      -3.867  -6.214  -0.774  0.00  0.00    -0.081 HD
ENDROOT
BRANCH   1   8
ATOM      8  C   UNL     1      -4.429  -4.420   0.021  0.00  0.00    +0.019 C 
BRANCH   8  10
ATOM      9  N   UNL     1      -2.787  -2.571   0.015  0.00  0.00    -0.317 N 
ATOM     10  C   UNL     1      -3.015  -3.899   0.010  0.00  0.00    +0.196 C 
ATOM     11  O   UNL     1      -2.083  -4.674  -0.003  0.00  0.00    -0.278 OA
ATOM     12  H   UNL     1      -3.533  -1.950   0.025  0.00  0.00    +0.149 HD
BRANCH   9  13
ATOM     13  C   UNL     1      -1.413  -2.063   0.004  0.00  0.00    +0.104 C 
BRANCH  13  14
ATOM     14  C   UNL     1      -1.433  -0.534   0.013  0.00  0.00    +0.018 C 
BRANCH  14  16
ATOM     15  C   UNL     1      -0.019   1.526   0.010  0.00  0.00    +0.004 C 
ATOM     16  C   UNL     1       0.002  -0.004   0.002  0.00  0.00    -0.002 C 
ENDBRANCH  14  16
ENDBRANCH  13  14
ENDBRANCH   9  13
ENDBRANCH   8  10
ENDBRANCH   1   8
BRANCH   4  17
ATOM     17  C   UNL     1      -5.145  -9.895   1.143  0.00  0.00    +0.174 C 
BRANCH  17  18
ATOM     18  C   UNL     1      -4.577 -10.369   2.457  0.00  0.00    +0.242 C 
ATOM     19  O   UNL     1      -4.200  -9.563   3.280  0.00  0.00    -0.273 OA
ATOM     20  N   UNL     1      -4.488 -11.688   2.716  0.00  0.00    -0.239 N 
ATOM     21  C   UNL     1      -3.980 -12.112   3.890  0.00  0.00    +0.303 C 
ATOM     22  O   UNL     1      -3.602 -11.304   4.715  0.00  0.00    -0.253 OA
ATOM     23  N   UNL     1      -3.891 -13.431   4.149  0.00  0.00    -0.313 N 
ATOM     24  H   UNL     1      -4.789 -12.333   2.057  0.00  0.00    +0.159 HD
ATOM     25  H   UNL     1      -4.193 -14.076   3.490  0.00  0.00    +0.146 HD
ATOM     26  H   UNL     1      -3.526 -13.736   4.995  0.00  0.00    +0.146 HD
ENDBRANCH  17  18
BRANCH  17  27
ATOM     27  C   UNL     1      -6.561 -10.391   1.001  0.00  0.00    -0.021 A 
ATOM     28  C   UNL     1      -7.592  -9.729   1.640  0.00  0.00    +0.005 A 
ATOM     29  C   UNL     1      -8.891 -10.183   1.509  0.00  0.00    +0.000 A 
ATOM     30  C   UNL     1      -9.159 -11.299   0.739  0.00  0.00    +0.000 A 
ATOM     31  C   UNL     1      -8.127 -11.961   0.099  0.00  0.00    +0.000 A 
ATOM     32  C   UNL     1      -6.829 -11.504   0.226  0.00  0.00    +0.005 A 
ENDBRANCH  17  27
ENDBRANCH   4  17
TORSDOF 8
