REMARK  Name = ZINC59852638
REMARK  12 active torsions:
REMARK  status: ('A' for Active; 'I' for Inactive)
REMARK    1  A    between atoms: C_1  and  O_2
REMARK    2  A    between atoms: O_2  and  C_3
REMARK    3  A    between atoms: C_5  and  C_16
REMARK    4  A    between atoms: C_6  and  N_13
REMARK    5  A    between atoms: C_7  and  O_11
REMARK    6  A    between atoms: C_8  and  O_9
REMARK    7  A    between atoms: O_9  and  C_10
REMARK    8  A    between atoms: O_11  and  C_12
REMARK    9  A    between atoms: N_18  and  C_19
REMARK   10  A    between atoms: C_19  and  C_21
REMARK   11  A    between atoms: C_19  and  C_29
REMARK   12  A    between atoms: C_21  and  C_22
REMARK                            x       y       z     vdW  Elec       q    Type
REMARK                         _______ _______ _______ _____ _____    ______ ____
ROOT
ATOM      1  C   UNL     1      -4.856   0.233   0.038  0.00  0.00    +0.247 C 
ATOM      2  O   UNL     1      -5.931  -0.335   0.046  0.00  0.00    -0.270 OA
ATOM      3  N   UNL     1      -4.806   1.580   0.040  0.00  0.00    -0.304 N 
ATOM      4  H   UNL     1      -3.948   2.034   0.034  0.00  0.00    +0.150 HD
ENDROOT
BRANCH   1   7
ATOM      5  C   UNL     1      -1.201  -0.638   0.010  0.00  0.00    +0.166 A 
ATOM      6  C   UNL     1      -2.370   0.100   0.019  0.00  0.00    +0.065 A 
ATOM      7  C   UNL     1      -3.606  -0.552   0.028  0.00  0.00    +0.074 A 
ATOM      8  C   UNL     1      -3.657  -1.948   0.027  0.00  0.00    +0.183 A 
ATOM      9  C   UNL     1      -2.485  -2.681   0.017  0.00  0.00    +0.196 A 
ATOM     10  C   UNL     1      -1.254  -2.029   0.003  0.00  0.00    +0.206 A 
BRANCH   8  11
ATOM     11  N   UNL     1      -4.964  -2.642   0.036  0.00  0.00    +0.061 N 
ATOM     12  O   UNL     1      -5.506  -2.924  -1.007  0.00  0.00    -0.126 OA
ATOM     13  O   UNL     1      -5.490  -2.926   1.087  0.00  0.00    -0.126 OA
ENDBRANCH   8  11
BRANCH   5  15
ATOM     14  C   UNL     1      -0.017   1.425   0.010  0.00  0.00    +0.277 C 
ATOM     15  O   UNL     1       0.002  -0.004   0.002  0.00  0.00    -0.491 OA
ENDBRANCH   5  15
BRANCH  10  16
ATOM     16  O   UNL     1      -0.104  -2.752  -0.012  0.00  0.00    -0.488 OA
ATOM     17  C   UNL     1       0.458  -3.104   1.254  0.00  0.00    +0.277 C 
ENDBRANCH  10  16
BRANCH   9  18
ATOM     18  O   UNL     1      -2.534  -4.040   0.016  0.00  0.00    -0.489 OA
ATOM     19  C   UNL     1      -2.566  -4.688  -1.257  0.00  0.00    +0.277 C 
ENDBRANCH   9  18
ENDBRANCH   1   7
BRANCH   3  20
ATOM     20  C   UNL     1      -6.046   2.359   0.051  0.00  0.00    +0.108 C 
BRANCH  20  21
ATOM     21  C   UNL     1      -6.548   2.524  -1.361  0.00  0.00    -0.027 A 
ATOM     22  C   UNL     1      -5.655   2.761  -2.389  0.00  0.00    +0.005 A 
ATOM     23  C   UNL     1      -6.115   2.912  -3.684  0.00  0.00    +0.000 A 
ATOM     24  C   UNL     1      -7.468   2.825  -3.950  0.00  0.00    +0.000 A 
ATOM     25  C   UNL     1      -8.362   2.587  -2.923  0.00  0.00    +0.000 A 
ATOM     26  C   UNL     1      -7.901   2.432  -1.629  0.00  0.00    +0.005 A 
ENDBRANCH  20  21
BRANCH  20  27
ATOM     27  C   UNL     1      -5.778   3.737   0.660  0.00  0.00    +0.062 C 
BRANCH  27  28
ATOM     28  C   UNL     1      -5.394   3.579   2.109  0.00  0.00    -0.045 A 
ATOM     29  C   UNL     1      -6.371   3.586   3.087  0.00  0.00    +0.005 A 
ATOM     30  C   UNL     1      -6.019   3.441   4.416  0.00  0.00    +0.020 A 
ATOM     31  C   UNL     1      -4.690   3.289   4.767  0.00  0.00    +0.041 A 
ATOM     32  C   UNL     1      -3.713   3.282   3.788  0.00  0.00    +0.020 A 
ATOM     33  C   UNL     1      -4.066   3.421   2.459  0.00  0.00    +0.005 A 
ATOM     34 CL   UNL     1      -4.248   3.108   6.436  0.00  0.00    -0.084 Cl
ENDBRANCH  27  28
ENDBRANCH  20  27
ENDBRANCH   3  20
TORSDOF 9
