REMARK  Name = ZINC66153619
REMARK  10 active torsions:
REMARK  status: ('A' for Active; 'I' for Inactive)
REMARK    1  A    between atoms: C_1  and  C_2
REMARK    2  A    between atoms: C_2  and  C_3
REMARK    3  A    between atoms: C_3  and  C_4
REMARK    4  A    between atoms: C_4  and  N_5
REMARK    5  A    between atoms: C_6  and  C_8
REMARK    6  A    between atoms: C_11  and  N_14
REMARK    7  A    between atoms: C_15  and  C_17
REMARK    8  A    between atoms: C_17  and  C_18
REMARK    9  A    between atoms: C_18  and  C_19
REMARK   10  A    between atoms: C_23  and  N_25
REMARK                            x       y       z     vdW  Elec       q    Type
REMARK                         _______ _______ _______ _____ _____    ______ ____
ROOT
ATOM      1  N   UNL     1       4.204  -5.641  -7.334  0.00  0.00    -0.285 N 
ATOM      2  C   UNL     1       5.113  -4.855  -7.944  0.00  0.00    +0.218 C 
ATOM      3  O   UNL     1       5.430  -3.795  -7.447  0.00  0.00    -0.275 OA
ATOM      4  H   UNL     1       4.007  -6.521  -7.690  0.00  0.00    +0.155 HD
ENDROOT
BRANCH   1   8
ATOM      5  C   UNL     1       2.242  -4.291  -3.917  0.00  0.00    +0.037 A 
ATOM      6  C   UNL     1       2.600  -3.388  -4.921  0.00  0.00    +0.015 A 
ATOM      7  C   UNL     1       3.249  -3.838  -6.049  0.00  0.00    +0.024 A 
ATOM      8  C   UNL     1       3.548  -5.189  -6.190  0.00  0.00    +0.033 A 
ATOM      9  C   UNL     1       3.193  -6.091  -5.191  0.00  0.00    +0.024 A 
ATOM     10  C   UNL     1       2.549  -5.647  -4.058  0.00  0.00    +0.015 A 
BRANCH   5  12
ATOM     11  N   UNL     1       1.251  -2.505  -2.571  0.00  0.00    -0.311 N 
ATOM     12  C   UNL     1       1.547  -3.813  -2.706  0.00  0.00    +0.244 C 
ATOM     13  O   UNL     1       1.240  -4.599  -1.830  0.00  0.00    -0.270 OA
ATOM     14  H   UNL     1       1.496  -1.878  -3.269  0.00  0.00    +0.149 HD
BRANCH  11  15
ATOM     15  C   UNL     1       0.561  -2.030  -1.369  0.00  0.00    +0.104 C 
BRANCH  15  16
ATOM     16  C   UNL     1       0.348  -0.518  -1.467  0.00  0.00    +0.018 C 
BRANCH  16  18
ATOM     17  C   UNL     1      -0.585   1.490  -0.309  0.00  0.00    +0.004 C 
ATOM     18  C   UNL     1      -0.373  -0.022  -0.211  0.00  0.00    -0.002 C 
ENDBRANCH  16  18
ENDBRANCH  15  16
ENDBRANCH  11  15
ENDBRANCH   5  12
ENDBRANCH   1   8
BRANCH   2  19
ATOM     19  C   UNL     1       5.735  -5.292  -9.245  0.00  0.00    +0.101 C 
BRANCH  19  20
ATOM     20  C   UNL     1       6.724  -4.227  -9.721  0.00  0.00    +0.044 C 
BRANCH  20  21
ATOM     21  C   UNL     1       7.346  -4.664 -11.022  0.00  0.00    -0.045 A 
ATOM     22  C   UNL     1       8.507  -5.416 -11.015  0.00  0.00    +0.004 A 
ATOM     23  C   UNL     1       9.082  -5.819 -12.206  0.00  0.00    +0.002 A 
ATOM     24  C   UNL     1       8.497  -5.472 -13.409  0.00  0.00    +0.023 A 
ATOM     25  C   UNL     1       7.331  -4.718 -13.420  0.00  0.00    +0.025 A 
ATOM     26  C   UNL     1       6.754  -4.319 -12.221  0.00  0.00    +0.026 A 
BRANCH  25  27
ATOM     27  N   UNL     1       6.737  -4.365 -14.634  0.00  0.00    -0.358 N 
ATOM     28  H   UNL     1       7.139  -4.647 -15.470  0.00  0.00    +0.142 HD
ATOM     29  H   UNL     1       5.923  -3.838 -14.640  0.00  0.00    +0.142 HD
ENDBRANCH  25  27
ENDBRANCH  20  21
ENDBRANCH  19  20
ENDBRANCH   2  19
TORSDOF 9
