REMARK  Name = ZINC45335029
REMARK  9 active torsions:
REMARK  status: ('A' for Active; 'I' for Inactive)
REMARK    1  A    between atoms: C_3  and  S_8
REMARK    2  A    between atoms: S_8  and  N_11
REMARK    3  A    between atoms: N_11  and  C_12
REMARK    4  A    between atoms: C_12  and  C_13
REMARK    5  A    between atoms: C_13  and  C_14
REMARK    6  A    between atoms: C_14  and  O_16
REMARK    7  A    between atoms: O_16  and  C_17
REMARK    8  A    between atoms: C_17  and  C_18
REMARK    9  A    between atoms: C_20  and  C_23
REMARK                            x       y       z     vdW  Elec       q    Type
REMARK                         _______ _______ _______ _____ _____    ______ ____
ROOT
ATOM      1  C   UNL     1       5.735   0.733   4.539  0.00  0.00    +0.309 C 
ATOM      2  O   UNL     1       5.447  -0.387   4.189  0.00  0.00    -0.251 OA
ENDROOT
BRANCH   1   3
ATOM      3  C   UNL     1       5.381   1.910   3.666  0.00  0.00    +0.137 C 
BRANCH   3   4
ATOM      4  C   UNL     1       4.670   1.413   2.405  0.00  0.00    +0.117 C 
BRANCH   4   5
ATOM      5  N   UNL     1       4.326   2.557   1.557  0.00  0.00    -0.189 NA
ATOM      6  H   UNL     1       4.354   3.456   1.919  0.00  0.00    +0.148 HD
BRANCH   5   7
ATOM      7  S   UNL     1       3.891   2.314  -0.023  0.00  0.00    +0.058 S 
ATOM      8  O   UNL     1       4.872   1.456  -0.587  0.00  0.00    -0.153 OA
ATOM      9  O   UNL     1       3.596   3.595  -0.564  0.00  0.00    -0.153 OA
BRANCH   7  12
ATOM     10  C   UNL     1      -0.017   1.378   0.010  0.00  0.00    +0.003 A 
ATOM     11  C   UNL     1       1.171   2.086   0.002  0.00  0.00    +0.028 A 
ATOM     12  C   UNL     1       2.378   1.412  -0.013  0.00  0.00    +0.107 A 
ATOM     13  C   UNL     1       2.398   0.029  -0.021  0.00  0.00    +0.048 A 
ATOM     14  C   UNL     1       1.210  -0.679  -0.013  0.00  0.00    +0.043 A 
ATOM     15  C   UNL     1       0.002  -0.004   0.002  0.00  0.00    +0.020 A 
ATOM     16 CL   UNL     1       1.234  -2.415  -0.024  0.00  0.00    -0.083 Cl
ENDBRANCH   7  12
ENDBRANCH   5   7
ENDBRANCH   4   5
ENDBRANCH   3   4
ENDBRANCH   1   3
BRANCH   1  17
ATOM     17  O   UNL     1       6.369   0.930   5.706  0.00  0.00    -0.455 OA
BRANCH  17  18
ATOM     18  C   UNL     1       6.673  -0.230   6.483  0.00  0.00    +0.330 C 
BRANCH  18  19
ATOM     19  C   UNL     1       7.379   0.183   7.748  0.00  0.00    +0.265 A 
ATOM     20  N   UNL     1       6.805   0.473   8.880  0.00  0.00    -0.188 NA
ATOM     21  C   UNL     1       7.733   0.800   9.797  0.00  0.00    +0.202 A 
ATOM     22  N   UNL     1       8.917   0.719   9.242  0.00  0.00    -0.056 NA
ATOM     23  O   UNL     1       8.704   0.310   7.899  0.00  0.00    -0.334 OA
BRANCH  21  24
ATOM     24  C   UNL     1       7.462   1.190  11.203  0.00  0.00    +0.023 A 
ATOM     25  C   UNL     1       6.152   1.232  11.676  0.00  0.00    +0.014 A 
ATOM     26  C   UNL     1       5.904   1.594  12.984  0.00  0.00    +0.039 A 
ATOM     27  C   UNL     1       6.955   1.914  13.827  0.00  0.00    +0.123 A 
ATOM     28  C   UNL     1       8.260   1.873  13.361  0.00  0.00    +0.039 A 
ATOM     29  C   UNL     1       8.517   1.507  12.056  0.00  0.00    +0.014 A 
ATOM     30  F   UNL     1       6.708   2.268  15.107  0.00  0.00    -0.205 F 
ENDBRANCH  21  24
ENDBRANCH  18  19
ENDBRANCH  17  18
ENDBRANCH   1  17
TORSDOF 9
