REMARK  Name = ZINC38596287
REMARK  13 active torsions:
REMARK  status: ('A' for Active; 'I' for Inactive)
REMARK    1  A    between atoms: C_1  and  C_2
REMARK    2  A    between atoms: C_2  and  O_3
REMARK    3  A    between atoms: O_3  and  C_4
REMARK    4  A    between atoms: C_7  and  S_11
REMARK    5  A    between atoms: C_9  and  C_10
REMARK    6  A    between atoms: S_11  and  N_14
REMARK    7  A    between atoms: N_14  and  C_15
REMARK    8  A    between atoms: C_15  and  C_17
REMARK    9  A    between atoms: C_15  and  C_18
REMARK   10  A    between atoms: C_18  and  C_20
REMARK   11  A    between atoms: C_18  and  N_25
REMARK   12  A    between atoms: N_28  and  C_31
REMARK   13  A    between atoms: C_31  and  C_32
REMARK                            x       y       z     vdW  Elec       q    Type
REMARK                         _______ _______ _______ _____ _____    ______ ____
ROOT
ATOM      1  C   UNL     1      -1.309  -7.324  -4.848  0.00  0.00    +0.112 C 
ENDROOT
BRANCH   1   2
ATOM      2  N   UNL     1      -1.409  -6.924  -6.258  0.00  0.00    -0.297 NA
ATOM      3  C   UNL     1      -1.791  -5.510  -6.378  0.00  0.00    +0.066 C 
ATOM      4  C   UNL     1      -1.825  -5.119  -7.857  0.00  0.00    -0.063 C 
ATOM      5  N   UNL     1      -2.792  -5.967  -8.566  0.00  0.00    +0.384 N 
ATOM      6  C   UNL     1      -2.384  -7.374  -8.458  0.00  0.00    -0.063 C 
ATOM      7  C   UNL     1      -2.354  -7.784  -6.984  0.00  0.00    +0.066 C 
ATOM      8  H   UNL     1      -3.706  -5.850  -8.156  0.00  0.00    -0.081 HD
BRANCH   5   9
ATOM      9  C   UNL     1      -2.838  -5.579  -9.982  0.00  0.00    -0.043 C 
BRANCH   9  10
ATOM     10  C   UNL     1      -3.916  -6.364 -10.684  0.00  0.00    -0.064 A 
ATOM     11  C   UNL     1      -3.618  -7.584 -11.262  0.00  0.00    +0.002 A 
ATOM     12  C   UNL     1      -4.606  -8.304 -11.905  0.00  0.00    +0.000 A 
ATOM     13  C   UNL     1      -5.894  -7.804 -11.971  0.00  0.00    +0.000 A 
ATOM     14  C   UNL     1      -6.192  -6.585 -11.392  0.00  0.00    +0.000 A 
ATOM     15  C   UNL     1      -5.204  -5.867 -10.745  0.00  0.00    +0.002 A 
ENDBRANCH   9  10
ENDBRANCH   5   9
ENDBRANCH   1   2
BRANCH   1  16
ATOM     16  C   UNL     1      -0.937  -8.782  -4.764  0.00  0.00    +0.008 A 
ATOM     17  C   UNL     1      -1.399  -9.734  -3.916  0.00  0.00    +0.013 A 
ATOM     18  C   UNL     1      -0.910 -11.022  -4.024  0.00  0.00    +0.008 A 
ATOM     19  C   UNL     1       0.017 -11.296  -4.975  0.00  0.00    +0.045 A 
ATOM     20  S   UNL     1       0.220  -9.706  -5.761  0.00  0.00    -0.100 S 
ENDBRANCH   1  16
BRANCH   1  21
ATOM     21  C   UNL     1      -0.236  -6.483  -4.154  0.00  0.00    +0.095 C 
ATOM     22  C   UNL     1      -0.123  -6.909  -2.688  0.00  0.00    +0.027 C 
BRANCH  21  23
ATOM     23  N   UNL     1       1.052  -6.687  -4.822  0.00  0.00    -0.185 NA
ATOM     24  H   UNL     1       1.276  -7.557  -5.188  0.00  0.00    +0.148 HD
BRANCH  23  25
ATOM     25  S   UNL     1       2.125  -5.433  -4.951  0.00  0.00    +0.059 S 
ATOM     26  O   UNL     1       1.393  -4.321  -5.447  0.00  0.00    -0.153 OA
ATOM     27  O   UNL     1       3.272  -5.946  -5.615  0.00  0.00    -0.153 OA
BRANCH  25  31
ATOM     28  C   UNL     1       3.435  -4.352  -0.753  0.00  0.00    +0.123 A 
ATOM     29  C   UNL     1       4.140  -5.302  -1.478  0.00  0.00    +0.048 A 
ATOM     30  C   UNL     1       3.739  -5.630  -2.759  0.00  0.00    +0.032 A 
ATOM     31  C   UNL     1       2.635  -5.012  -3.318  0.00  0.00    +0.106 A 
ATOM     32  C   UNL     1       1.931  -4.066  -2.597  0.00  0.00    +0.035 A 
ATOM     33  C   UNL     1       2.325  -3.738  -1.314  0.00  0.00    -0.007 A 
ATOM     34  C   UNL     1       1.553  -2.711  -0.527  0.00  0.00    +0.047 C 
BRANCH  28  35
ATOM     35  O   UNL     1       3.828  -4.029   0.507  0.00  0.00    -0.492 OA
BRANCH  35  37
ATOM     36  C   UNL     1       5.266  -4.209   2.441  0.00  0.00    +0.048 C 
ATOM     37  C   UNL     1       4.979  -4.701   1.021  0.00  0.00    +0.225 C 
ENDBRANCH  35  37
ENDBRANCH  28  35
ENDBRANCH  25  31
ENDBRANCH  23  25
ENDBRANCH  21  23
ENDBRANCH   1  21
TORSDOF 10
