REMARK  Name = ZINC12167603
REMARK  6 active torsions:
REMARK  status: ('A' for Active; 'I' for Inactive)
REMARK    1  A    between atoms: C_2  and  C_27
REMARK    2  A    between atoms: C_8  and  C_11
REMARK    3  A    between atoms: C_11  and  N_12
REMARK    4  A    between atoms: C_13  and  C_15
REMARK    5  A    between atoms: C_15  and  N_68
REMARK    6  A    between atoms: C_29  and  C_33
REMARK                            x       y       z     vdW  Elec       q    Type
REMARK                         _______ _______ _______ _____ _____    ______ ____
ROOT
ATOM      1  C   UNL     1      -0.793   5.964   0.595  0.00  0.00    +0.016 A 
ATOM      2  C   UNL     1       0.480   5.442   0.824  0.00  0.00    -0.013 A 
ATOM      3  C   UNL     1       1.562   6.309   0.969  0.00  0.00    +0.050 A 
ATOM      4  C   UNL     1       1.375   7.673   0.879  0.00  0.00    +0.166 A 
ATOM      5  C   UNL     1       0.101   8.196   0.653  0.00  0.00    +0.159 A 
ATOM      6  C   UNL     1      -0.971   7.325   0.508  0.00  0.00    +0.001 A 
ATOM      7  C   UNL     1      -2.202   8.174   0.254  0.00  0.00    +0.085 C 
ATOM      8  C   UNL     1      -1.579   9.543  -0.104  0.00  0.00    +0.195 C 
ATOM      9  O   UNL     1      -0.302   9.494   0.555  0.00  0.00    -0.484 OA
ATOM     10  F   UNL     1       2.430   8.506   1.015  0.00  0.00    -0.202 F 
ENDROOT
BRANCH   2  11
ATOM     11  C   UNL     1       0.681   3.975   0.918  0.00  0.00    +0.001 A 
ATOM     12  C   UNL     1       1.952   3.448   1.147  0.00  0.00    +0.024 A 
ATOM     13  C   UNL     1       2.086   2.059   1.227  0.00  0.00    +0.055 A 
ATOM     14  C   UNL     1       0.952   1.260   1.076  0.00  0.00    +0.123 A 
ATOM     15  N   UNL     1      -0.229   1.799   0.856  0.00  0.00    -0.262 NA
ATOM     16  C   UNL     1      -0.399   3.104   0.779  0.00  0.00    +0.119 A 
BRANCH  13  17
ATOM     17  C   UNL     1       3.410   1.446   1.468  0.00  0.00    +0.243 C 
ATOM     18  O   UNL     1       4.392   2.150   1.598  0.00  0.00    -0.270 OA
ATOM     19  N   UNL     1       3.528   0.105   1.542  0.00  0.00    -0.325 N 
ATOM     20  H   UNL     1       2.744  -0.457   1.438  0.00  0.00    +0.145 HD
ATOM     21  H   UNL     1       4.396  -0.297   1.700  0.00  0.00    +0.145 HD
ENDBRANCH  13  17
ENDBRANCH   2  11
BRANCH   8  22
ATOM     22  C   UNL     1      -2.430  10.688   0.449  0.00  0.00    +0.149 C 
BRANCH  22  23
ATOM     23  N   UNL     1      -1.813  11.969   0.098  0.00  0.00    -0.313 N 
ATOM     24  C   UNL     1      -2.392  13.124   0.482  0.00  0.00    +0.203 C 
ATOM     25  O   UNL     1      -3.470  13.106   1.038  0.00  0.00    -0.277 OA
ATOM     26  H   UNL     1      -0.988  11.987  -0.412  0.00  0.00    +0.149 HD
BRANCH  24  27
ATOM     27  C   UNL     1      -1.700  14.437   0.222  0.00  0.00    +0.013 C 
ATOM     28  C   UNL     1      -2.686  15.586   0.444  0.00  0.00    -0.003 C 
ATOM     29  C   UNL     1      -3.870  15.434  -0.513  0.00  0.00    -0.001 C 
ATOM     30  C   UNL     1      -3.366  15.468  -1.957  0.00  0.00    -0.000 C 
ATOM     31  C   UNL     1      -2.380  14.319  -2.179  0.00  0.00    -0.001 C 
ATOM     32  C   UNL     1      -1.196  14.470  -1.222  0.00  0.00    -0.003 C 
BRANCH  27  38
ATOM     33  C   UNL     1       0.470  13.577   0.863  0.00  0.00    -0.077 C 
ATOM     34  C   UNL     1       1.696  13.848   1.738  0.00  0.00    -0.019 C 
ATOM     35  C   UNL     1       1.287  13.793   3.213  0.00  0.00    -0.004 C 
ATOM     36  C   UNL     1       0.176  14.816   3.465  0.00  0.00    -0.019 C 
ATOM     37  C   UNL     1      -1.006  14.517   2.540  0.00  0.00    -0.077 C 
ATOM     38  N   UNL     1      -0.552  14.610   1.136  0.00  0.00    +0.389 N 
ATOM     39  H   UNL     1      -0.139  15.537   0.980  0.00  0.00    -0.080 HD
ENDBRANCH  27  38
ENDBRANCH  24  27
ENDBRANCH  22  23
ENDBRANCH   8  22
TORSDOF 6
