REMARK  Name = ZINC30516294
REMARK  4 active torsions:
REMARK  status: ('A' for Active; 'I' for Inactive)
REMARK    1  A    between atoms: C_4  and  N_7
REMARK    2  A    between atoms: C_8  and  C_23
REMARK    3  A    between atoms: C_11  and  C_13
REMARK    4  A    between atoms: C_13  and  N_15
REMARK                            x       y       z     vdW  Elec       q    Type
REMARK                         _______ _______ _______ _____ _____    ______ ____
ROOT
ATOM      1  N   UNL     1       1.436  -0.332  -0.013  0.00  0.00    -0.212 N 
ATOM      2  C   UNL     1       0.002  -0.004   0.002  0.00  0.00    +0.189 C 
ATOM      3  C   UNL     1      -0.019   1.537   0.011  0.00  0.00    +0.096 C 
ATOM      4  C   UNL     1       1.443   1.922  -0.001  0.00  0.00    +0.125 C 
ATOM      5  N   UNL     1       2.171   0.852  -0.014  0.00  0.00    -0.178 NA
ENDROOT
BRANCH   1   9
ATOM      6  C   UNL     1       3.039  -4.174  -0.048  0.00  0.00    +0.000 A 
ATOM      7  C   UNL     1       3.880  -3.076  -0.051  0.00  0.00    +0.002 A 
ATOM      8  C   UNL     1       3.352  -1.800  -0.040  0.00  0.00    +0.025 A 
ATOM      9  C   UNL     1       1.974  -1.621  -0.025  0.00  0.00    +0.052 A 
ATOM     10  C   UNL     1       1.132  -2.727  -0.018  0.00  0.00    +0.025 A 
ATOM     11  C   UNL     1       1.667  -3.999  -0.034  0.00  0.00    +0.002 A 
ENDBRANCH   1   9
BRANCH   2  12
ATOM     12  C   UNL     1      -0.656  -0.550   1.243  0.00  0.00    +0.233 C 
ATOM     13  O   UNL     1       0.023  -0.930   2.173  0.00  0.00    -0.274 OA
ATOM     14  N   UNL     1      -2.000  -0.616   1.319  0.00  0.00    -0.328 N 
ATOM     15  H   UNL     1      -2.481  -1.014   2.225  0.00  0.00    +0.145 HD
ATOM     16  H   UNL     1      -2.617  -0.271   0.476  0.00  0.00    +0.145 HD
ENDBRANCH   2  12
BRANCH   4  17
ATOM     17  C   UNL     1       1.956   3.292   0.002  0.00  0.00    +0.285 C 
ATOM     18  O   UNL     1       1.182   4.231   0.014  0.00  0.00    -0.267 OA
BRANCH  17  19
ATOM     19  N   UNL     1       3.285   3.514  -0.010  0.00  0.00    -0.154 NA
ATOM     20  C   UNL     1       3.774   4.820  -0.007  0.00  0.00    +0.171 A 
ATOM     21  C   UNL     1       5.151   5.043  -0.019  0.00  0.00    +0.219 A 
ATOM     22  C   UNL     1       5.621   6.349  -0.016  0.00  0.00    +0.056 A 
ATOM     23  C   UNL     1       4.697   7.385  -0.002  0.00  0.00    +0.021 A 
ATOM     24  C   UNL     1       3.349   7.088   0.010  0.00  0.00    +0.084 A 
ATOM     25  N   UNL     1       2.928   5.837   0.002  0.00  0.00    -0.345 N 
ATOM     26  O   UNL     1       6.020   3.997  -0.034  0.00  0.00    -0.284 OA
ATOM     27  H   UNL     1       1.844   5.651   0.002  0.00  0.00    +0.167 HD
ENDBRANCH  17  19
ENDBRANCH   4  17
TORSDOF 4
