REMARK  Name = ZINC16194608
REMARK  7 active torsions:
REMARK  status: ('A' for Active; 'I' for Inactive)
REMARK    1  A    between atoms: C_1  and  O_2
REMARK    2  A    between atoms: O_2  and  C_3
REMARK    3  A    between atoms: C_4  and  C_11
REMARK    4  A    between atoms: N_13  and  C_14
REMARK    5  A    between atoms: C_14  and  N_16
REMARK    6  A    between atoms: N_16  and  C_17
REMARK    7  A    between atoms: C_18  and  C_25
REMARK                            x       y       z     vdW  Elec       q    Type
REMARK                         _______ _______ _______ _____ _____    ______ ____
ROOT
ATOM      1  C   UNL     1      -3.600  -0.625  -3.426  0.00  0.00    +0.141 C 
ATOM      2  S   UNL     1      -4.369   0.133  -2.099  0.00  0.00    -0.018 S 
ENDROOT
BRANCH   1   5
ATOM      3  C   UNL     1      -1.575  -0.607  -2.264  0.00  0.00    +0.253 C 
ATOM      4  O   UNL     1      -2.122  -0.069  -1.321  0.00  0.00    -0.270 OA
ATOM      5  N   UNL     1      -2.285  -0.915  -3.368  0.00  0.00    -0.263 N 
ATOM      6  H   UNL     1      -1.849  -1.345  -4.121  0.00  0.00    +0.157 HD
BRANCH   3   8
ATOM      7  C   UNL     1       0.605  -0.606  -1.054  0.00  0.00    +0.150 A 
ATOM      8  C   UNL     1      -0.137  -0.924  -2.200  0.00  0.00    +0.081 A 
ATOM      9  C   UNL     1       0.495  -1.544  -3.282  0.00  0.00    +0.036 A 
ATOM     10  C   UNL     1       1.841  -1.838  -3.216  0.00  0.00    +0.043 A 
ATOM     11  C   UNL     1       2.571  -1.522  -2.081  0.00  0.00    +0.043 A 
ATOM     12  C   UNL     1       1.959  -0.904  -1.006  0.00  0.00    +0.085 A 
ATOM     13 CL   UNL     1       2.885  -0.507   0.407  0.00  0.00    -0.080 Cl
ATOM     14 CL   UNL     1       2.624  -2.608  -4.560  0.00  0.00    -0.083 Cl
BRANCH   7  16
ATOM     15  C   UNL     1      -0.017   1.425   0.010  0.00  0.00    +0.277 C 
ATOM     16  O   UNL     1       0.002  -0.004   0.002  0.00  0.00    -0.493 OA
ENDBRANCH   7  16
ENDBRANCH   3   8
ENDBRANCH   1   5
BRANCH   1  17
ATOM     17  N   UNL     1      -4.309  -0.933  -4.530  0.00  0.00    -0.291 N 
ATOM     18  H   UNL     1      -3.873  -1.363  -5.283  0.00  0.00    +0.154 HD
BRANCH  17  19
ATOM     19  C   UNL     1      -5.661  -0.635  -4.590  0.00  0.00    +0.084 A 
ATOM     20  C   UNL     1      -6.540  -0.880  -5.629  0.00  0.00    +0.068 A 
ATOM     21  C   UNL     1      -7.930  -0.465  -5.442  0.00  0.00    -0.023 A 
ATOM     22  C   UNL     1      -8.174   0.117  -4.254  0.00  0.00    -0.004 A 
ATOM     23  S   UNL     1      -6.609   0.099  -3.417  0.00  0.00    -0.077 S 
ATOM     24  C   UNL     1      -9.614   0.528  -4.116  0.00  0.00    +0.043 C 
ATOM     25  C   UNL     1     -10.165   0.512  -5.559  0.00  0.00    +0.010 C 
ATOM     26  C   UNL     1      -9.230  -0.507  -6.242  0.00  0.00    +0.037 C 
BRANCH  20  27
ATOM     27  C   UNL     1      -6.098  -1.528  -6.867  0.00  0.00    +0.244 C 
ATOM     28  O   UNL     1      -6.140  -2.741  -6.968  0.00  0.00    -0.270 OA
ATOM     29  N   UNL     1      -5.644  -0.783  -7.894  0.00  0.00    -0.325 N 
ATOM     30  H   UNL     1      -5.610   0.183  -7.813  0.00  0.00    +0.145 HD
ATOM     31  H   UNL     1      -5.351  -1.212  -8.713  0.00  0.00    +0.145 HD
ENDBRANCH  20  27
ENDBRANCH  17  19
ENDBRANCH   1  17
TORSDOF 6
