REMARK  Name = ZINC57456007
REMARK  8 active torsions:
REMARK  status: ('A' for Active; 'I' for Inactive)
REMARK    1  A    between atoms: C_1  and  C_2
REMARK    2  A    between atoms: C_2  and  C_3
REMARK    3  A    between atoms: C_3  and  C_5
REMARK    4  A    between atoms: C_3  and  N_12
REMARK    5  A    between atoms: N_12  and  C_13
REMARK    6  A    between atoms: C_13  and  C_14
REMARK    7  A    between atoms: N_16  and  C_17
REMARK    8  A    between atoms: C_18  and  C_22
REMARK                            x       y       z     vdW  Elec       q    Type
REMARK                         _______ _______ _______ _____ _____    ______ ____
ROOT
ATOM      1  C   UNL     1      -0.833   1.286   4.070  0.00  0.00    +0.231 C 
ATOM      2  O   UNL     1      -1.612   0.433   4.438  0.00  0.00    -0.274 OA
ATOM      3  N   UNL     1      -0.802   2.483   4.689  0.00  0.00    -0.278 N 
ATOM      4  H   UNL     1      -0.178   3.165   4.395  0.00  0.00    +0.155 HD
ENDROOT
BRANCH   3   5
ATOM      5  C   UNL     1      -1.661   2.739   5.747  0.00  0.00    +0.084 A 
ATOM      6  C   UNL     1      -1.773   3.903   6.492  0.00  0.00    +0.065 A 
ATOM      7  C   UNL     1      -2.760   3.902   7.548  0.00  0.00    +0.022 A 
ATOM      8  C   UNL     1      -3.465   2.764   7.691  0.00  0.00    +0.048 A 
ATOM      9  S   UNL     1      -2.809   1.713   6.414  0.00  0.00    -0.081 S 
BRANCH   6  10
ATOM     10  C   UNL     1      -0.934   5.074   6.223  0.00  0.00    +0.244 C 
ATOM     11  O   UNL     1      -0.112   5.041   5.326  0.00  0.00    -0.270 OA
ATOM     12  N   UNL     1      -1.072   6.188   6.969  0.00  0.00    -0.325 N 
ATOM     13  H   UNL     1      -1.727   6.215   7.684  0.00  0.00    +0.145 HD
ATOM     14  H   UNL     1      -0.516   6.963   6.791  0.00  0.00    +0.145 HD
ENDBRANCH   6  10
ENDBRANCH   3   5
BRANCH   1  15
ATOM     15  C   UNL     1       0.102   1.008   2.921  0.00  0.00    +0.178 C 
BRANCH  15  16
ATOM     16  N   UNL     1      -0.127  -0.355   2.422  0.00  0.00    -0.301 NA
ATOM     17  H   UNL     1      -1.071  -0.462   2.082  0.00  0.00    +0.123 HD
BRANCH  16  18
ATOM     18  C   UNL     1       0.850  -0.707   1.384  0.00  0.00    +0.084 C 
BRANCH  18  19
ATOM     19  C   UNL     1       1.038  -2.202   1.356  0.00  0.00    -0.030 A 
ATOM     20  C   UNL     1      -0.053  -3.038   1.505  0.00  0.00    +0.006 A 
ATOM     21  C   UNL     1       0.118  -4.409   1.479  0.00  0.00    +0.015 A 
ATOM     22  C   UNL     1       1.382  -4.945   1.304  0.00  0.00    +0.018 A 
ATOM     23  C   UNL     1       2.473  -4.108   1.155  0.00  0.00    +0.015 A 
ATOM     24  C   UNL     1       2.300  -2.736   1.176  0.00  0.00    +0.006 A 
ATOM     25 BR   UNL     1       1.617  -6.821   1.269  0.00  0.00    -0.050 Br
ENDBRANCH  18  19
BRANCH  18  27
ATOM     26  C   UNL     1       1.415  -0.477  -1.039  0.00  0.00    +0.006 C 
ATOM     27  C   UNL     1       0.341  -0.231   0.022  0.00  0.00    +0.020 C 
ENDBRANCH  18  27
ENDBRANCH  16  18
ENDBRANCH  15  16
ENDBRANCH   1  15
TORSDOF 7
