REMARK  Name = ZINC13064919
REMARK  15 active torsions:
REMARK  status: ('A' for Active; 'I' for Inactive)
REMARK    1  A    between atoms: C_1  and  C_2
REMARK    2  A    between atoms: C_2  and  C_3
REMARK    3  A    between atoms: C_3  and  C_5
REMARK    4  A    between atoms: C_3  and  N_71
REMARK    5  A    between atoms: N_9  and  C_10
REMARK    6  A    between atoms: C_10  and  C_11
REMARK    7  A    between atoms: C_10  and  C_12
REMARK    8  A    between atoms: C_10  and  C_13
REMARK    9  A    between atoms: C_14  and  C_15
REMARK   10  A    between atoms: C_14  and  N_71
REMARK   11  A    between atoms: C_18  and  C_21
REMARK   12  A    between atoms: C_22  and  C_23
REMARK   13  A    between atoms: C_22  and  N_71
REMARK   14  A    between atoms: C_26  and  C_36
REMARK   15  A    between atoms: C_28  and  C_35
REMARK                            x       y       z     vdW  Elec       q    Type
REMARK                         _______ _______ _______ _____ _____    ______ ____
ROOT
ATOM      1  N   UNL     1       5.577   5.391  -1.899  0.00  0.00    +0.392 N 
ATOM      2  H   UNL     1       5.715   4.423  -2.211  0.00  0.00    -0.080 HD
ENDROOT
BRANCH   1   3
ATOM      3  C   UNL     1       4.286   5.885  -2.424  0.00  0.00    +0.003 C 
BRANCH   3   4
ATOM      4  C   UNL     1       4.008   5.198  -3.736  0.00  0.00    +0.139 A 
ATOM      5  N   UNL     1       4.892   4.836  -4.633  0.00  0.00    -0.115 NA
ATOM      6  N   UNL     1       4.262   4.280  -5.610  0.00  0.00    -0.023 NA
ATOM      7  N   UNL     1       2.999   4.285  -5.363  0.00  0.00    -0.043 NA
ATOM      8  N   UNL     1       2.801   4.843  -4.217  0.00  0.00    -0.226 N 
BRANCH   8   9
ATOM      9  C   UNL     1       1.508   5.050  -3.561  0.00  0.00    +0.059 C 
ATOM     10  C   UNL     1       1.399   6.504  -3.096  0.00  0.00    +0.036 C 
ATOM     11  C   UNL     1       0.381   4.745  -4.549  0.00  0.00    +0.036 C 
ATOM     12  C   UNL     1       1.393   4.118  -2.353  0.00  0.00    +0.036 C 
ENDBRANCH   8   9
ENDBRANCH   3   4
BRANCH   3  14
ATOM     13  C   UNL     1       4.493   8.103  -1.292  0.00  0.00    +0.002 C 
ATOM     14  C   UNL     1       4.343   7.398  -2.642  0.00  0.00    -0.011 C 
ENDBRANCH   3  14
ENDBRANCH   1   3
BRANCH   1  15
ATOM     15  C   UNL     1       6.684   6.224  -2.415  0.00  0.00    -0.042 C 
BRANCH  15  16
ATOM     16  C   UNL     1       6.927   5.865  -3.858  0.00  0.00    -0.064 A 
ATOM     17  C   UNL     1       7.625   4.715  -4.176  0.00  0.00    +0.002 A 
ATOM     18  C   UNL     1       7.844   4.384  -5.501  0.00  0.00    +0.003 A 
ATOM     19  C   UNL     1       7.374   5.208  -6.506  0.00  0.00    -0.050 A 
ATOM     20  C   UNL     1       6.680   6.361  -6.188  0.00  0.00    +0.003 A 
ATOM     21  C   UNL     1       6.457   6.690  -4.864  0.00  0.00    +0.002 A 
ATOM     22  C   UNL     1       7.617   4.850  -7.949  0.00  0.00    +0.044 C 
ENDBRANCH  15  16
ENDBRANCH   1  15
BRANCH   1  23
ATOM     23  C   UNL     1       5.567   5.423  -0.421  0.00  0.00    -0.036 C 
BRANCH  23  24
ATOM     24  C   UNL     1       4.788   4.235   0.081  0.00  0.00    +0.001 A 
ATOM     25  C   UNL     1       5.430   3.071   0.352  0.00  0.00    +0.017 A 
ATOM     26  C   UNL     1       4.644   1.936   0.839  0.00  0.00    +0.002 A 
ATOM     27  C   UNL     1       5.250   0.710   1.135  0.00  0.00    -0.041 A 
ATOM     28  C   UNL     1       4.489  -0.330   1.587  0.00  0.00    +0.007 A 
ATOM     29  C   UNL     1       3.118  -0.182   1.754  0.00  0.00    -0.048 A 
ATOM     30  C   UNL     1       2.500   1.016   1.469  0.00  0.00    +0.029 A 
ATOM     31  C   UNL     1       3.255   2.090   1.008  0.00  0.00    +0.050 A 
ATOM     32  N   UNL     1       2.663   3.299   0.714  0.00  0.00    -0.322 N 
ATOM     33  H   UNL     1       1.706   3.404   0.832  0.00  0.00    +0.169 HD
ATOM     34  C   UNL     1       3.393   4.337   0.268  0.00  0.00    +0.251 A 
ATOM     35  O   UNL     1       2.835   5.391   0.018  0.00  0.00    -0.268 OA
ATOM     36  C   UNL     1       2.299  -1.344   2.253  0.00  0.00    +0.044 C 
ATOM     37  C   UNL     1       6.737   0.539   0.957  0.00  0.00    +0.044 C 
ENDBRANCH  23  24
ENDBRANCH   1  23
TORSDOF 8
