REMARK  Name = ZINC08635510
REMARK  14 active torsions:
REMARK  status: ('A' for Active; 'I' for Inactive)
REMARK    1  A    between atoms: C_1  and  C_2
REMARK    2  A    between atoms: C_2  and  C_3
REMARK    3  A    between atoms: C_2  and  C_4
REMARK    4  A    between atoms: C_2  and  C_5
REMARK    5  A    between atoms: C_8  and  C_11
REMARK    6  A    between atoms: N_13  and  C_14
REMARK    7  A    between atoms: C_14  and  C_15
REMARK    8  A    between atoms: C_23  and  C_25
REMARK    9  A    between atoms: C_27  and  C_31
REMARK   10  A    between atoms: N_29  and  C_30
REMARK   11  A    between atoms: C_34  and  O_39
REMARK   12  A    between atoms: C_35  and  O_37
REMARK   13  A    between atoms: O_37  and  C_38
REMARK   14  A    between atoms: O_39  and  C_40
REMARK                            x       y       z     vdW  Elec       q    Type
REMARK                         _______ _______ _______ _____ _____    ______ ____
ROOT
ATOM      1  C   UNL     1       4.192  -6.255  -1.044  0.00  0.00    -0.051 C 
ATOM      2  C   UNL     1       3.702  -6.056   0.393  0.00  0.00    -0.010 C 
ATOM      3  C   UNL     1       2.940  -7.312   0.834  0.00  0.00    -0.007 C 
ATOM      4  C   UNL     1       3.883  -8.517   0.735  0.00  0.00    -0.015 C 
ATOM      5  C   UNL     1       4.369  -8.647  -0.712  0.00  0.00    -0.078 C 
ATOM      6  C   UNL     1       2.306  -7.689  -1.547  0.00  0.00    -0.068 C 
ATOM      7  C   UNL     1       1.762  -7.532  -0.124  0.00  0.00    +0.024 C 
ATOM      8  N   UNL     1       3.781  -7.581  -1.551  0.00  0.00    +0.383 N 
ATOM      9  H   UNL     1       4.120  -7.689  -2.514  0.00  0.00    -0.081 HD
ENDROOT
BRANCH   7  10
ATOM     10  C   UNL     1       0.836  -6.345  -0.066  0.00  0.00    +0.041 A 
ATOM     11  C   UNL     1       0.847  -5.373   0.873  0.00  0.00    +0.053 A 
ATOM     12  C   UNL     1      -0.179  -4.460   0.561  0.00  0.00    +0.093 A 
ATOM     13  N   UNL     1      -0.774  -4.878  -0.537  0.00  0.00    -0.171 NA
ATOM     14  N   UNL     1      -0.149  -6.062  -0.947  0.00  0.00    -0.271 N 
ATOM     15  C   UNL     1      -0.501  -6.857  -2.126  0.00  0.00    +0.172 C 
BRANCH  12  16
ATOM     16  C   UNL     1      -0.526  -3.240   1.332  0.00  0.00    +0.006 A 
ATOM     17  C   UNL     1       0.254  -2.858   2.421  0.00  0.00    +0.014 A 
ATOM     18  C   UNL     1      -0.069  -1.724   3.138  0.00  0.00    +0.050 A 
ATOM     19  C   UNL     1      -1.169  -0.962   2.776  0.00  0.00    +0.162 A 
ATOM     20  C   UNL     1      -1.955  -1.341   1.691  0.00  0.00    +0.162 A 
ATOM     21  C   UNL     1      -1.632  -2.475   0.967  0.00  0.00    +0.059 A 
BRANCH  20  22
ATOM     22  O   UNL     1      -3.037  -0.596   1.340  0.00  0.00    -0.491 OA
ATOM     23  C   UNL     1      -3.798  -1.044   0.217  0.00  0.00    +0.277 C 
ENDBRANCH  20  22
BRANCH  19  24
ATOM     24  O   UNL     1      -1.484   0.155   3.484  0.00  0.00    -0.491 OA
ATOM     25  C   UNL     1      -0.638   0.483   4.588  0.00  0.00    +0.277 C 
ENDBRANCH  19  24
ENDBRANCH  12  16
ENDBRANCH   7  10
BRANCH   1  26
ATOM     26  C   UNL     1       3.593  -5.171  -1.942  0.00  0.00    +0.089 C 
BRANCH  26  29
ATOM     27  C   UNL     1       3.545  -4.601  -4.311  0.00  0.00    +0.244 C 
ATOM     28  O   UNL     1       2.860  -3.636  -4.035  0.00  0.00    -0.270 OA
ATOM     29  N   UNL     1       3.963  -5.432  -3.336  0.00  0.00    -0.313 N 
ATOM     30  H   UNL     1       4.510  -6.202  -3.556  0.00  0.00    +0.149 HD
BRANCH  27  34
ATOM     31  C   UNL     1       4.619  -5.358  -8.351  0.00  0.00    -0.042 A 
ATOM     32  C   UNL     1       3.839  -4.258  -8.040  0.00  0.00    +0.005 A 
ATOM     33  C   UNL     1       3.486  -4.007  -6.730  0.00  0.00    +0.013 A 
ATOM     34  C   UNL     1       3.918  -4.865  -5.717  0.00  0.00    +0.037 A 
ATOM     35  C   UNL     1       4.710  -5.969  -6.037  0.00  0.00    +0.013 A 
ATOM     36  C   UNL     1       5.050  -6.212  -7.352  0.00  0.00    +0.005 A 
BRANCH  31  38
ATOM     37  C   UNL     1       5.795  -4.440 -10.331  0.00  0.00    +0.015 C 
ATOM     38  C   UNL     1       4.999  -5.626  -9.784  0.00  0.00    -0.013 C 
ATOM     39  C   UNL     1       5.856  -6.892  -9.855  0.00  0.00    +0.015 C 
ATOM     40  C   UNL     1       3.733  -5.821 -10.620  0.00  0.00    +0.015 C 
ENDBRANCH  31  38
ENDBRANCH  27  34
ENDBRANCH  26  29
ENDBRANCH   1  26
TORSDOF 8
