REMARK  Name = ZINC15978689
REMARK  7 active torsions:
REMARK  status: ('A' for Active; 'I' for Inactive)
REMARK    1  A    between atoms: C_1  and  C_2
REMARK    2  A    between atoms: C_5  and  S_7
REMARK    3  A    between atoms: S_7  and  C_8
REMARK    4  A    between atoms: C_8  and  C_9
REMARK    5  A    between atoms: N_19  and  C_20
REMARK    6  A    between atoms: C_25  and  S_26
REMARK    7  A    between atoms: S_26  and  C_27
REMARK                            x       y       z     vdW  Elec       q    Type
REMARK                         _______ _______ _______ _____ _____    ______ ____
ROOT
ATOM      1  C   UNL     1       3.775 -12.367   1.233  0.00  0.00    +0.060 A 
ATOM      2  C   UNL     1       2.678 -13.168   1.098  0.00  0.00    +0.094 A 
ATOM      3  C   UNL     1       1.433 -12.573   0.825  0.00  0.00    +0.253 A 
ATOM      4  O   UNL     1       0.431 -13.259   0.699  0.00  0.00    -0.268 OA
ATOM      5  N   UNL     1       1.367 -11.230   0.706  0.00  0.00    -0.293 N 
ATOM      6  C   UNL     1       2.494 -10.483   0.851  0.00  0.00    +0.211 A 
ATOM      7  N   UNL     1       3.656 -11.046   1.112  0.00  0.00    -0.218 NA
ATOM      8  N   UNL     1       2.419  -9.117   0.728  0.00  0.00    -0.298 N 
ATOM      9  C   UNL     1       3.523  -8.337   1.007  0.00  0.00    +0.180 C 
ATOM     10  N   UNL     1       3.424  -7.039   0.992  0.00  0.00    -0.371 N 
ATOM     11  N   UNL     1       4.729  -8.932   1.301  0.00  0.00    -0.327 N 
ATOM     12  H   UNL     1       4.214  -6.490   1.120  0.00  0.00    +0.159 HD
ATOM     13  H   UNL     1       4.785  -9.896   1.392  0.00  0.00    +0.169 HD
ATOM     14  H   UNL     1       2.560  -6.620   0.853  0.00  0.00    +0.159 HD
ATOM     15  H   UNL     1       1.590  -8.700   0.446  0.00  0.00    +0.172 HD
ATOM     16  H   UNL     1       0.519 -10.799   0.518  0.00  0.00    +0.172 HD
ENDROOT
BRANCH  11  17
ATOM     17  C   UNL     1       5.875  -8.145   1.469  0.00  0.00    +0.056 A 
ATOM     18  C   UNL     1       6.489  -8.065   2.709  0.00  0.00    +0.027 A 
ATOM     19  C   UNL     1       7.620  -7.288   2.873  0.00  0.00    +0.002 A 
ATOM     20  C   UNL     1       8.144  -6.587   1.801  0.00  0.00    +0.001 A 
ATOM     21  C   UNL     1       7.539  -6.660   0.561  0.00  0.00    +0.017 A 
ATOM     22  C   UNL     1       6.407  -7.443   0.386  0.00  0.00    +0.036 A 
BRANCH  22  23
ATOM     23  S   UNL     1       5.638  -7.544  -1.196  0.00  0.00    -0.087 S 
BRANCH  23  24
ATOM     24  C   UNL     1       6.713  -6.632  -2.252  0.00  0.00    +0.013 A 
ATOM     25  C   UNL     1       7.692  -7.291  -2.987  0.00  0.00    +0.015 A 
ATOM     26  C   UNL     1       8.533  -6.573  -3.813  0.00  0.00    +0.001 A 
ATOM     27  C   UNL     1       8.403  -5.200  -3.911  0.00  0.00    +0.000 A 
ATOM     28  C   UNL     1       7.431  -4.540  -3.181  0.00  0.00    +0.001 A 
ATOM     29  C   UNL     1       6.582  -5.253  -2.357  0.00  0.00    +0.015 A 
ENDBRANCH  23  24
ENDBRANCH  22  23
ENDBRANCH  11  17
BRANCH   1  30
ATOM     30  C   UNL     1       5.121 -12.978   1.526  0.00  0.00    +0.132 C 
BRANCH  30  31
ATOM     31  S   UNL     1       6.141 -12.942   0.026  0.00  0.00    -0.091 S 
BRANCH  31  36
ATOM     32  C   UNL     1      11.469 -15.296   0.960  0.00  0.00    +0.075 C 
ATOM     33  C   UNL     1      10.069 -14.741   0.934  0.00  0.00    +0.100 A 
ATOM     34  N   UNL     1       9.169 -14.667   1.893  0.00  0.00    -0.146 NA
ATOM     35  N   UNL     1       8.026 -14.166   1.706  0.00  0.00    -0.135 NA
ATOM     36  C   UNL     1       7.660 -13.681   0.526  0.00  0.00    +0.159 A 
ATOM     37  S   UNL     1       9.156 -13.986  -0.409  0.00  0.00    -0.044 S 
ENDBRANCH  31  36
ENDBRANCH  30  31
ENDBRANCH   1  30
TORSDOF 6
