REMARK  Name = ZINC63348910
REMARK  4 active torsions:
REMARK  status: ('A' for Active; 'I' for Inactive)
REMARK    1  A    between atoms: C_2  and  C_3
REMARK    2  A    between atoms: C_3  and  N_4
REMARK    3  A    between atoms: C_5  and  C_10
REMARK    4  A    between atoms: C_12  and  N_21
REMARK                            x       y       z     vdW  Elec       q    Type
REMARK                         _______ _______ _______ _____ _____    ______ ____
ROOT
ATOM      1  C   UNL     1       2.398  -0.122   2.874  0.00  0.00    +0.142 C 
ATOM      2  C   UNL     1       1.434   0.566   3.868  0.00  0.00    +0.105 C 
ATOM      3  C   UNL     1       1.719   0.161   5.292  0.00  0.00    +0.003 A 
ATOM      4  C   UNL     1       0.846   0.250   6.380  0.00  0.00    +0.009 A 
ATOM      5  C   UNL     1       1.275  -0.153   7.631  0.00  0.00    +0.020 A 
ATOM      6  C   UNL     1       2.557  -0.638   7.796  0.00  0.00    +0.112 A 
ATOM      7  N   UNL     1       3.368  -0.724   6.758  0.00  0.00    -0.248 NA
ATOM      8  C   UNL     1       2.988  -0.356   5.549  0.00  0.00    +0.102 A 
ATOM      9  S   UNL     1       3.840  -0.398   3.984  0.00  0.00    -0.092 S 
ENDROOT
BRANCH   1  11
ATOM     10  N   UNL     1       1.367  -1.676   1.111  0.00  0.00    -0.301 N 
ATOM     11  C   UNL     1       1.833  -1.425   2.373  0.00  0.00    +0.150 A 
ATOM     12  N   UNL     1       1.697  -2.523   3.061  0.00  0.00    -0.132 NA
ATOM     13  N   UNL     1       1.181  -3.444   2.327  0.00  0.00    -0.122 NA
ATOM     14  C   UNL     1       0.954  -2.977   1.121  0.00  0.00    +0.203 A 
ATOM     15  S   UNL     1       0.251  -3.863  -0.230  0.00  0.00    -0.009 SA
BRANCH  10  16
ATOM     16  C   UNL     1       1.317  -0.740  -0.015  0.00  0.00    +0.152 C 
BRANCH  16  18
ATOM     17  C   UNL     1      -0.016   1.306   0.009  0.00  0.00    +0.005 C 
ATOM     18  C   UNL     1       0.002  -0.004   0.002  0.00  0.00    -0.013 C 
ENDBRANCH  16  18
ENDBRANCH  10  16
ENDBRANCH   1  11
BRANCH   2  19
ATOM     19  N   UNL     1       1.581   2.022   3.748  0.00  0.00    -0.322 NA
ATOM     20  H   UNL     1       0.963   2.502   4.385  0.00  0.00    +0.119 HD
ATOM     21  H   UNL     1       2.539   2.303   3.893  0.00  0.00    +0.119 HD
ENDBRANCH   2  19
TORSDOF 4
