REMARK  Name = ZINC35367072
REMARK  6 active torsions:
REMARK  status: ('A' for Active; 'I' for Inactive)
REMARK    1  A    between atoms: C_3  and  N_20
REMARK    2  A    between atoms: C_6  and  C_7
REMARK    3  A    between atoms: C_7  and  C_9
REMARK    4  A    between atoms: C_7  and  O_19
REMARK    5  A    between atoms: C_9  and  N_10
REMARK    6  A    between atoms: C_11  and  C_13
REMARK                            x       y       z     vdW  Elec       q    Type
REMARK                         _______ _______ _______ _____ _____    ______ ____
ROOT
ATOM      1  C   UNL     1      -1.294  -0.774   0.011  0.00  0.00    +0.162 C 
ENDROOT
BRANCH   1   7
ATOM      2  C   UNL     1      -0.017   1.379   0.010  0.00  0.00    +0.008 A 
ATOM      3  C   UNL     1       1.169   2.087   0.002  0.00  0.00    +0.023 A 
ATOM      4  C   UNL     1       2.381   1.409  -0.013  0.00  0.00    +0.025 A 
ATOM      5  C   UNL     1       2.396   0.020  -0.021  0.00  0.00    +0.023 A 
ATOM      6  C   UNL     1       1.207  -0.682  -0.013  0.00  0.00    +0.008 A 
ATOM      7  C   UNL     1       0.002  -0.004   0.002  0.00  0.00    -0.018 A 
BRANCH   4   8
ATOM      8  N   UNL     1       3.582   2.122  -0.021  0.00  0.00    -0.358 N 
ATOM      9  H   UNL     1       3.570   3.092  -0.016  0.00  0.00    +0.142 HD
ATOM     10  H   UNL     1       4.428   1.647  -0.032  0.00  0.00    +0.142 HD
ENDBRANCH   4   8
ENDBRANCH   1   7
BRANCH   1  11
ATOM     11  O   UNL     1      -1.147  -1.962  -0.770  0.00  0.00    -0.386 OA
ATOM     12  H   UNL     1      -0.458  -2.560  -0.450  0.00  0.00    +0.210 HD
ENDBRANCH   1  11
BRANCH   1  13
ATOM     13  C   UNL     1      -1.654  -1.150   1.449  0.00  0.00    +0.140 C 
BRANCH  13  14
ATOM     14  N   UNL     1      -2.913  -1.898   1.458  0.00  0.00    -0.308 N 
ATOM     15  C   UNL     1      -3.429  -2.336   2.623  0.00  0.00    +0.251 C 
ATOM     16  O   UNL     1      -2.849  -2.110   3.669  0.00  0.00    -0.270 OA
ATOM     17  H   UNL     1      -3.376  -2.078   0.625  0.00  0.00    +0.149 HD
BRANCH  15  18
ATOM     18  C   UNL     1      -4.689  -3.084   2.632  0.00  0.00    +0.075 A 
ATOM     19  C   UNL     1      -5.385  -3.612   3.709  0.00  0.00    +0.022 A 
ATOM     20  C   UNL     1      -6.551  -4.270   3.402  0.00  0.00    +0.024 A 
ATOM     21  C   UNL     1      -6.935  -4.359   2.103  0.00  0.00    +0.056 A 
ATOM     22  S   UNL     1      -5.730  -3.546   1.261  0.00  0.00    -0.077 S 
ATOM     23 BR   UNL     1      -8.477  -5.200   1.403  0.00  0.00    -0.043 Br
ENDBRANCH  15  18
ENDBRANCH  13  14
ENDBRANCH   1  13
TORSDOF 6
