REMARK  Name = ZINC40400254
REMARK  12 active torsions:
REMARK  status: ('A' for Active; 'I' for Inactive)
REMARK    1  A    between atoms: C_1  and  C_2
REMARK    2  A    between atoms: C_5  and  N_8
REMARK    3  A    between atoms: C_10  and  C_31
REMARK    4  A    between atoms: N_13  and  C_14
REMARK    5  A    between atoms: C_14  and  C_16
REMARK    6  A    between atoms: C_16  and  N_17
REMARK    7  A    between atoms: N_17  and  C_18
REMARK    8  A    between atoms: C_18  and  C_19
REMARK    9  A    between atoms: C_19  and  N_20
REMARK   10  A    between atoms: N_20  and  C_21
REMARK   11  A    between atoms: N_20  and  C_22
REMARK   12  A    between atoms: C_23  and  C_25
REMARK                            x       y       z     vdW  Elec       q    Type
REMARK                         _______ _______ _______ _____ _____    ______ ____
ROOT
ATOM      1  N   UNL     1       2.440  -1.786   1.645  0.00  0.00    -0.287 N 
ATOM      2  C   UNL     1       3.012  -2.179   0.452  0.00  0.00    +0.120 A 
ATOM      3  C   UNL     1       2.957  -3.521   0.385  0.00  0.00    +0.066 A 
ATOM      4  N   UNL     1       2.345  -3.981   1.545  0.00  0.00    -0.326 N 
ATOM      5  C   UNL     1       2.038  -2.902   2.310  0.00  0.00    +0.205 A 
ATOM      6  N   UNL     1       1.445  -2.932   3.503  0.00  0.00    -0.145 NA
ATOM      7  H   UNL     1       2.171  -4.909   1.769  0.00  0.00    +0.169 HD
ENDROOT
BRANCH   1  12
ATOM      8  C   UNL     1       1.877   3.559   3.466  0.00  0.00    +0.044 C 
ATOM      9  C   UNL     1       2.026   2.139   2.982  0.00  0.00    -0.050 A 
ATOM     10  C   UNL     1       2.618   1.886   1.758  0.00  0.00    +0.005 A 
ATOM     11  C   UNL     1       2.756   0.586   1.312  0.00  0.00    +0.026 A 
ATOM     12  C   UNL     1       2.301  -0.467   2.094  0.00  0.00    +0.049 A 
ATOM     13  C   UNL     1       1.708  -0.209   3.323  0.00  0.00    +0.026 A 
ATOM     14  C   UNL     1       1.577   1.092   3.766  0.00  0.00    +0.005 A 
ENDBRANCH   1  12
BRANCH   3  15
ATOM     15  C   UNL     1       3.459  -4.359  -0.726  0.00  0.00    -0.000 A 
ATOM     16  C   UNL     1       4.061  -3.764  -1.835  0.00  0.00    +0.010 A 
ATOM     17  C   UNL     1       4.527  -4.551  -2.869  0.00  0.00    +0.001 A 
ATOM     18  C   UNL     1       4.398  -5.927  -2.807  0.00  0.00    +0.000 A 
ATOM     19  C   UNL     1       3.802  -6.523  -1.710  0.00  0.00    +0.001 A 
ATOM     20  C   UNL     1       3.338  -5.747  -0.667  0.00  0.00    +0.010 A 
ENDBRANCH   3  15
BRANCH   6  21
ATOM     21  C   UNL     1       1.102  -4.094   4.046  0.00  0.00    +0.256 C 
ATOM     22  O   UNL     1       1.329  -5.132   3.454  0.00  0.00    -0.272 OA
BRANCH  21  23
ATOM     23  C   UNL     1       0.431  -4.128   5.395  0.00  0.00    +0.205 C 
BRANCH  23  24
ATOM     24  N   UNL     1       0.157  -5.517   5.770  0.00  0.00    -0.290 N 
ATOM     25  C   UNL     1      -1.082  -6.025   5.613  0.00  0.00    +0.247 C 
ATOM     26  O   UNL     1      -1.317  -7.169   5.949  0.00  0.00    -0.270 OA
BRANCH  25  27
ATOM     27  C   UNL     1      -2.155  -5.191   5.031  0.00  0.00    +0.037 A 
ATOM     28  C   UNL     1      -1.834  -4.101   4.220  0.00  0.00    +0.013 A 
ATOM     29  C   UNL     1      -2.840  -3.327   3.680  0.00  0.00    +0.001 A 
ATOM     30  C   UNL     1      -4.165  -3.629   3.940  0.00  0.00    +0.000 A 
ATOM     31  C   UNL     1      -4.490  -4.708   4.744  0.00  0.00    +0.001 A 
ATOM     32  C   UNL     1      -3.494  -5.494   5.285  0.00  0.00    +0.013 A 
ENDBRANCH  25  27
BRANCH  24  33
ATOM     33  C   UNL     1       1.228  -6.354   6.315  0.00  0.00    +0.090 C 
BRANCH  33  34
ATOM     34  C   UNL     1       1.182  -6.310   7.844  0.00  0.00    -0.060 C 
BRANCH  34  35
ATOM     35  N   UNL     1       2.195  -7.222   8.391  0.00  0.00    +0.377 N 
ATOM     36  C   UNL     1       2.248  -7.075   9.851  0.00  0.00    -0.097 C 
ATOM     37  C   UNL     1       1.842  -8.607   8.050  0.00  0.00    -0.097 C 
ATOM     38  H   UNL     1       3.097  -6.998   7.997  0.00  0.00    -0.083 HD
ENDBRANCH  34  35
ENDBRANCH  33  34
ENDBRANCH  24  33
ENDBRANCH  23  24
ENDBRANCH  21  23
ENDBRANCH   6  21
TORSDOF 9
