REMARK  Name = ZINC08738337
REMARK  10 active torsions:
REMARK  status: ('A' for Active; 'I' for Inactive)
REMARK    1  A    between atoms: C_1  and  C_2
REMARK    2  A    between atoms: C_2  and  O_3
REMARK    3  A    between atoms: O_3  and  C_4
REMARK    4  A    between atoms: C_7  and  C_10
REMARK    5  A    between atoms: N_12  and  C_13
REMARK    6  A    between atoms: C_13  and  C_15
REMARK    7  A    between atoms: C_13  and  C_19
REMARK    8  A    between atoms: C_15  and  C_16
REMARK    9  A    between atoms: C_16  and  S_17
REMARK   10  A    between atoms: S_17  and  C_18
REMARK                            x       y       z     vdW  Elec       q    Type
REMARK                         _______ _______ _______ _____ _____    ______ ____
ROOT
ATOM      1  C   UNL     1       3.459   5.690  -0.000  0.00  0.00    +0.236 C 
ATOM      2  O   UNL     1       3.585   6.293  -1.045  0.00  0.00    -0.274 OA
ATOM      3  N   UNL     1       3.424   6.363   1.166  0.00  0.00    -0.300 N 
ATOM      4  C   UNL     1       3.370   5.643   2.446  0.00  0.00    +0.107 C 
ATOM      5  C   UNL     1       2.182   6.156   3.256  0.00  0.00    +0.013 C 
ATOM      6  C   UNL     1       2.278   7.676   3.392  0.00  0.00    -0.022 C 
ATOM      7  C   UNL     1       2.239   8.323   2.007  0.00  0.00    +0.013 C 
ATOM      8  C   UNL     1       3.433   7.832   1.183  0.00  0.00    +0.107 C 
ATOM      9  C   UNL     1       1.133   8.186   4.226  0.00  0.00    +0.027 A 
ATOM     10  C   UNL     1       1.256   8.561   5.520  0.00  0.00    +0.059 A 
ATOM     11  N   UNL     1       0.059   8.958   5.950  0.00  0.00    -0.241 NA
ATOM     12  C   UNL     1      -0.806   8.844   4.976  0.00  0.00    +0.196 A 
ATOM     13  N   UNL     1      -0.170   8.363   3.882  0.00  0.00    -0.349 N 
ATOM     14  H   UNL     1      -0.580   8.174   2.990  0.00  0.00    +0.166 HD
ATOM     15  C   UNL     1       2.564   8.507   6.270  0.00  0.00    +0.038 C 
ATOM     16  C   UNL     1       3.529   7.615   5.475  0.00  0.00    -0.075 C 
ATOM     17  N   UNL     1       3.549   8.037   4.059  0.00  0.00    +0.387 N 
ATOM     18  H   UNL     1       3.679   9.055   4.012  0.00  0.00    -0.085 HD
ATOM     19  H   UNL     1       4.327   7.570   3.579  0.00  0.00    -0.085 HD
ENDROOT
BRANCH   1  20
ATOM     20  C   UNL     1       3.342   4.187  -0.007  0.00  0.00    +0.160 C 
BRANCH  20  23
ATOM     21  C   UNL     1       4.426   2.393  -1.250  0.00  0.00    +0.245 C 
ATOM     22  O   UNL     1       4.344   1.696  -0.257  0.00  0.00    -0.270 OA
ATOM     23  N   UNL     1       3.954   3.655  -1.227  0.00  0.00    -0.300 N 
ATOM     24  H   UNL     1       4.019   4.211  -2.019  0.00  0.00    +0.150 HD
BRANCH  21  28
ATOM     25  C   UNL     1       6.197   0.850  -4.787  0.00  0.00    +0.121 A 
ATOM     26  C   UNL     1       6.105   0.052  -3.653  0.00  0.00    +0.046 A 
ATOM     27  C   UNL     1       5.531   0.548  -2.504  0.00  0.00    +0.016 A 
ATOM     28  C   UNL     1       5.042   1.857  -2.479  0.00  0.00    +0.037 A 
ATOM     29  C   UNL     1       5.131   2.654  -3.623  0.00  0.00    +0.016 A 
ATOM     30  C   UNL     1       5.712   2.152  -4.766  0.00  0.00    +0.046 A 
BRANCH  25  31
ATOM     31  O   UNL     1       6.764   0.357  -5.918  0.00  0.00    -0.492 OA
BRANCH  31  33
ATOM     32  C   UNL     1       7.492   0.506  -8.217  0.00  0.00    +0.048 C 
ATOM     33  C   UNL     1       6.826   1.232  -7.046  0.00  0.00    +0.225 C 
ENDBRANCH  31  33
ENDBRANCH  25  31
ENDBRANCH  21  28
ENDBRANCH  20  23
BRANCH  20  34
ATOM     34  C   UNL     1       1.866   3.790   0.039  0.00  0.00    +0.042 C 
BRANCH  34  35
ATOM     35  C   UNL     1       1.750   2.271   0.184  0.00  0.00    +0.071 C 
BRANCH  35  36
ATOM     36  S   UNL     1      -0.001   1.801   0.238  0.00  0.00    -0.164 S 
ATOM     37  C   UNL     1       0.035  -0.005   0.409  0.00  0.00    +0.084 C 
ENDBRANCH  35  36
ENDBRANCH  34  35
ENDBRANCH  20  34
ENDBRANCH   1  20
TORSDOF 8
