REMARK  Name = ZINC58439451
REMARK  10 active torsions:
REMARK  status: ('A' for Active; 'I' for Inactive)
REMARK    1  A    between atoms: C_1  and  C_2
REMARK    2  A    between atoms: C_2  and  C_4
REMARK    3  A    between atoms: C_2  and  N_13
REMARK    4  A    between atoms: N_16  and  C_17
REMARK    5  A    between atoms: C_21  and  S_23
REMARK    6  A    between atoms: S_23  and  N_26
REMARK    7  A    between atoms: N_26  and  C_27
REMARK    8  A    between atoms: C_27  and  C_28
REMARK    9  A    between atoms: C_27  and  C_29
REMARK   10  A    between atoms: C_27  and  C_30
REMARK                            x       y       z     vdW  Elec       q    Type
REMARK                         _______ _______ _______ _____ _____    ______ ____
ROOT
ATOM      1  N   UNL     1      -1.858  -3.316   1.098  0.00  0.00    -0.290 N 
ATOM      2  C   UNL     1      -1.904  -2.804   2.344  0.00  0.00    +0.304 C 
ATOM      3  O   UNL     1      -2.509  -1.771   2.554  0.00  0.00    -0.252 OA
ATOM      4  N   UNL     1      -1.278  -3.437   3.356  0.00  0.00    -0.269 N 
ATOM      5  H   UNL     1      -1.375  -4.140   0.929  0.00  0.00    +0.151 HD
ATOM      6  H   UNL     1      -0.851  -4.294   3.201  0.00  0.00    +0.156 HD
ENDROOT
BRANCH   4   7
ATOM      7  C   UNL     1      -1.245  -2.858   4.629  0.00  0.00    +0.037 A 
ATOM      8  C   UNL     1      -2.336  -2.136   5.094  0.00  0.00    +0.023 A 
ATOM      9  C   UNL     1      -2.300  -1.566   6.351  0.00  0.00    +0.004 A 
ATOM     10  C   UNL     1      -1.179  -1.713   7.147  0.00  0.00    +0.028 A 
ATOM     11  C   UNL     1      -0.090  -2.430   6.687  0.00  0.00    +0.107 A 
ATOM     12  C   UNL     1      -0.122  -3.008   5.433  0.00  0.00    +0.051 A 
BRANCH  11  13
ATOM     13  S   UNL     1       1.337  -2.613   7.704  0.00  0.00    +0.059 S 
ATOM     14  O   UNL     1       2.460  -2.608   6.833  0.00  0.00    -0.153 OA
ATOM     15  O   UNL     1       1.196  -1.686   8.772  0.00  0.00    -0.153 OA
BRANCH  13  16
ATOM     16  N   UNL     1       1.268  -4.125   8.377  0.00  0.00    -0.185 NA
ATOM     17  H   UNL     1       1.931  -4.792   8.141  0.00  0.00    +0.149 HD
BRANCH  16  18
ATOM     18  C   UNL     1       0.204  -4.454   9.330  0.00  0.00    +0.032 C 
ATOM     19  C   UNL     1      -1.154  -4.104   8.719  0.00  0.00    +0.029 C 
ATOM     20  C   UNL     1       0.251  -5.950   9.649  0.00  0.00    +0.029 C 
ATOM     21  C   UNL     1       0.407  -3.652  10.617  0.00  0.00    +0.029 C 
ENDBRANCH  16  18
ENDBRANCH  13  16
ENDBRANCH  11  13
ENDBRANCH   4   7
BRANCH   1  23
ATOM     22  C   UNL     1      -1.619  -1.545  -0.572  0.00  0.00    +0.036 C 
ATOM     23  C   UNL     1      -2.538  -2.628  -0.003  0.00  0.00    +0.137 C 
BRANCH  23  24
ATOM     24  C   UNL     1      -2.875  -3.621  -1.085  0.00  0.00    +0.126 A 
ATOM     25  C   UNL     1      -4.015  -3.632  -1.788  0.00  0.00    +0.055 A 
ATOM     26  C   UNL     1      -3.910  -4.761  -2.721  0.00  0.00    +0.020 A 
ATOM     27  C   UNL     1      -4.744  -5.296  -3.701  0.00  0.00    +0.011 A 
ATOM     28  C   UNL     1      -4.335  -6.388  -4.416  0.00  0.00    +0.001 A 
ATOM     29  C   UNL     1      -3.097  -6.964  -4.172  0.00  0.00    +0.004 A 
ATOM     30  C   UNL     1      -2.259  -6.448  -3.207  0.00  0.00    +0.047 A 
ATOM     31  C   UNL     1      -2.655  -5.340  -2.469  0.00  0.00    +0.135 A 
ATOM     32  O   UNL     1      -2.072  -4.622  -1.488  0.00  0.00    -0.458 OA
ENDBRANCH  23  24
ENDBRANCH   1  23
TORSDOF 6
