REMARK  Name = ZINC02225091
REMARK  4 active torsions:
REMARK  status: ('A' for Active; 'I' for Inactive)
REMARK    1  A    between atoms: C_5  and  C_7
REMARK    2  A    between atoms: N_9  and  C_10
REMARK    3  A    between atoms: C_10  and  N_12
REMARK    4  A    between atoms: N_12  and  C_13
REMARK                            x       y       z     vdW  Elec       q    Type
REMARK                         _______ _______ _______ _____ _____    ______ ____
ROOT
ATOM      1  N   UNL     1      -0.011   0.966   0.007  0.00  0.00    -0.297 N 
ATOM      2  H   UNL     1       0.037   0.043   0.303  0.00  0.00    +0.154 HD
ENDROOT
BRANCH   1   3
ATOM      3  C   UNL     1       1.150   1.747  -0.043  0.00  0.00    +0.035 A 
ATOM      4  C   UNL     1       1.411   2.531  -1.161  0.00  0.00    +0.025 A 
ATOM      5  C   UNL     1       2.551   3.308  -1.215  0.00  0.00    +0.029 A 
ATOM      6  C   UNL     1       3.445   3.298  -0.155  0.00  0.00    +0.067 A 
ATOM      7  C   UNL     1       3.189   2.506   0.967  0.00  0.00    +0.069 A 
ATOM      8  C   UNL     1       2.041   1.732   1.020  0.00  0.00    +0.051 A 
ATOM      9  N   UNL     1       4.250   2.703   1.849  0.00  0.00    -0.306 N 
ATOM     10  H   UNL     1       4.350   2.284   2.717  0.00  0.00    +0.170 HD
ATOM     11  C   UNL     1       5.111   3.574   1.290  0.00  0.00    +0.325 A 
ATOM     12  O   UNL     1       6.146   3.960   1.800  0.00  0.00    -0.247 OA
ATOM     13  N   UNL     1       4.655   3.951   0.081  0.00  0.00    -0.306 N 
ATOM     14  H   UNL     1       5.092   4.571  -0.523  0.00  0.00    +0.170 HD
ENDBRANCH   1   3
BRANCH   1  15
ATOM     15  C   UNL     1      -1.195   1.494  -0.361  0.00  0.00    +0.141 C 
ATOM     16  S   UNL     1      -1.265   3.086  -0.986  0.00  0.00    -0.018 S 
BRANCH  15  19
ATOM     17  C   UNL     1      -3.508   1.297  -0.605  0.00  0.00    +0.251 C 
ATOM     18  O   UNL     1      -3.558   2.427  -1.048  0.00  0.00    -0.270 OA
ATOM     19  N   UNL     1      -2.324   0.769  -0.237  0.00  0.00    -0.264 N 
ATOM     20  H   UNL     1      -2.285  -0.134   0.117  0.00  0.00    +0.157 HD
BRANCH  17  25
ATOM     21  C   UNL     1      -5.852  -1.534   0.163  0.00  0.00    +0.001 A 
ATOM     22  C   UNL     1      -7.066  -0.989  -0.215  0.00  0.00    +0.001 A 
ATOM     23  C   UNL     1      -7.127   0.297  -0.720  0.00  0.00    +0.015 A 
ATOM     24  C   UNL     1      -5.975   1.046  -0.850  0.00  0.00    +0.025 A 
ATOM     25  C   UNL     1      -4.746   0.502  -0.469  0.00  0.00    +0.050 A 
ATOM     26  C   UNL     1      -4.692  -0.799   0.035  0.00  0.00    +0.014 A 
ATOM     27  I   UNL     1      -6.069   2.994  -1.616  0.00  0.00    -0.043 I 
ENDBRANCH  17  25
ENDBRANCH  15  19
ENDBRANCH   1  15
TORSDOF 4
