REMARK  Name = ZINC21451828
REMARK  9 active torsions:
REMARK  status: ('A' for Active; 'I' for Inactive)
REMARK    1  A    between atoms: C_1  and  C_2
REMARK    2  A    between atoms: C_2  and  C_4
REMARK    3  A    between atoms: C_2  and  O_20
REMARK    4  A    between atoms: N_6  and  C_7
REMARK    5  A    between atoms: C_10  and  N_17
REMARK    6  A    between atoms: C_12  and  C_13
REMARK    7  A    between atoms: O_20  and  C_21
REMARK    8  A    between atoms: C_21  and  C_23
REMARK    9  A    between atoms: C_23  and  C_24
REMARK                            x       y       z     vdW  Elec       q    Type
REMARK                         _______ _______ _______ _____ _____    ______ ____
ROOT
ATOM      1  C   UNL     1       2.550  -0.185  -1.166  0.00  0.00    +0.062 C 
ATOM      2  C   UNL     1       2.448   0.708   0.072  0.00  0.00    +0.259 C 
ENDROOT
BRANCH   2   3
ATOM      3  C   UNL     1       1.203   1.551  -0.018  0.00  0.00    +0.258 C 
ATOM      4  O   UNL     1       1.292   2.757  -0.113  0.00  0.00    -0.271 OA
ATOM      5  N   UNL     1      -0.011   0.966   0.007  0.00  0.00    -0.282 N 
ATOM      6  H   UNL     1      -0.092  -0.131   0.024  0.00  0.00    +0.155 HD
BRANCH   5   7
ATOM      7  C   UNL     1      -1.168   1.753   0.013  0.00  0.00    +0.045 A 
ATOM      8  C   UNL     1      -1.197   2.952  -0.688  0.00  0.00    +0.026 A 
ATOM      9  C   UNL     1      -2.340   3.727  -0.681  0.00  0.00    +0.034 A 
ATOM     10  C   UNL     1      -3.455   3.310   0.023  0.00  0.00    +0.127 A 
ATOM     11  C   UNL     1      -3.430   2.116   0.721  0.00  0.00    +0.047 A 
ATOM     12  C   UNL     1      -2.291   1.335   0.714  0.00  0.00    +0.078 A 
BRANCH  12  13
ATOM     13  C   UNL     1      -2.266   0.032   1.470  0.00  0.00    +0.419 C 
ATOM     14  F   UNL     1      -3.503  -0.171   2.091  0.00  0.00    -0.166 F 
ATOM     15  F   UNL     1      -2.012  -1.019   0.582  0.00  0.00    -0.166 F 
ATOM     16  F   UNL     1      -1.259   0.075   2.441  0.00  0.00    -0.166 F 
ENDBRANCH  12  13
BRANCH  10  17
ATOM     17  N   UNL     1      -4.679   4.142   0.028  0.00  0.00    +0.056 N 
ATOM     18  O   UNL     1      -4.703   5.194  -0.587  0.00  0.00    -0.126 OA
ATOM     19  O   UNL     1      -5.662   3.776   0.647  0.00  0.00    -0.126 OA
ENDBRANCH  10  17
ENDBRANCH   5   7
ENDBRANCH   2   3
BRANCH   2  20
ATOM     20  O   UNL     1       3.613   1.571   0.144  0.00  0.00    -0.452 OA
BRANCH  20  21
ATOM     21  C   UNL     1       4.676   1.106   0.818  0.00  0.00    +0.312 C 
ATOM     22  O   UNL     1       4.635   0.013   1.332  0.00  0.00    -0.250 OA
BRANCH  21  23
ATOM     23  C   UNL     1       5.922   1.946   0.935  0.00  0.00    +0.159 C 
BRANCH  23  24
ATOM     24  C   UNL     1       6.959   1.199   1.734  0.00  0.00    +0.009 A 
ATOM     25  C   UNL     1       7.198   1.313   3.051  0.00  0.00    +0.200 A 
ATOM     26  O   UNL     1       8.195   0.486   3.408  0.00  0.00    -0.463 OA
ATOM     27  C   UNL     1       8.659  -0.197   2.341  0.00  0.00    +0.136 A 
ATOM     28  C   UNL     1       7.911   0.211   1.232  0.00  0.00    +0.032 A 
ATOM     29  C   UNL     1       8.196  -0.369  -0.074  0.00  0.00    -0.007 A 
ATOM     30  C   UNL     1       7.481  -0.001  -1.218  0.00  0.00    +0.009 A 
ATOM     31  C   UNL     1       7.785  -0.573  -2.418  0.00  0.00    +0.001 A 
ATOM     32  C   UNL     1       8.800  -1.520  -2.521  0.00  0.00    +0.001 A 
ATOM     33  C   UNL     1       9.516  -1.901  -1.427  0.00  0.00    +0.008 A 
ATOM     34  C   UNL     1       9.229  -1.333  -0.175  0.00  0.00    -0.017 A 
ATOM     35  C   UNL     1       9.948  -1.703   0.978  0.00  0.00    +0.012 A 
ATOM     36  C   UNL     1       9.669  -1.153   2.185  0.00  0.00    +0.047 A 
ENDBRANCH  23  24
ENDBRANCH  21  23
ENDBRANCH  20  21
ENDBRANCH   2  20
TORSDOF 8
