REMARK  Name = ZINC22347573
REMARK  12 active torsions:
REMARK  status: ('A' for Active; 'I' for Inactive)
REMARK    1  A    between atoms: C_1  and  C_2
REMARK    2  A    between atoms: C_5  and  S_8
REMARK    3  A    between atoms: S_8  and  N_11
REMARK    4  A    between atoms: N_11  and  C_12
REMARK    5  A    between atoms: N_11  and  C_30
REMARK    6  A    between atoms: C_12  and  C_13
REMARK    7  A    between atoms: N_15  and  C_16
REMARK    8  A    between atoms: C_16  and  C_18
REMARK    9  A    between atoms: C_16  and  C_19
REMARK   10  A    between atoms: C_22  and  N_25
REMARK   11  A    between atoms: C_34  and  C_37
REMARK   12  A    between atoms: C_35  and  C_36
REMARK                            x       y       z     vdW  Elec       q    Type
REMARK                         _______ _______ _______ _____ _____    ______ ____
ROOT
ATOM      1  N   UNL     1      -6.332   0.459   2.843  0.00  0.00    -0.194 N 
ENDROOT
BRANCH   1   2
ATOM      2  C   UNL     1      -6.065  -0.262   4.009  0.00  0.00    +0.055 A 
ATOM      3  C   UNL     1      -5.388  -1.474   3.939  0.00  0.00    +0.025 A 
ATOM      4  C   UNL     1      -5.125  -2.184   5.093  0.00  0.00    +0.002 A 
ATOM      5  C   UNL     1      -5.535  -1.691   6.319  0.00  0.00    +0.004 A 
ATOM      6  C   UNL     1      -6.208  -0.485   6.392  0.00  0.00    -0.046 A 
ATOM      7  C   UNL     1      -6.470   0.233   5.242  0.00  0.00    -0.025 A 
ATOM      8  C   UNL     1      -7.199   1.549   5.324  0.00  0.00    +0.046 C 
ATOM      9  C   UNL     1      -6.653   0.048   7.730  0.00  0.00    +0.044 C 
ENDBRANCH   1   2
BRANCH   1  10
ATOM     10  S   UNL     1      -7.785   0.275   2.071  0.00  0.00    +0.075 S 
ATOM     11  O   UNL     1      -8.736  -0.068   3.070  0.00  0.00    -0.150 OA
ATOM     12  O   UNL     1      -7.943   1.407   1.226  0.00  0.00    -0.150 OA
BRANCH  10  17
ATOM     13  C   UNL     1      -7.285  -4.523  -1.553  0.00  0.00    +0.044 C 
ATOM     14  C   UNL     1      -7.410  -3.325  -0.648  0.00  0.00    -0.050 A 
ATOM     15  C   UNL     1      -7.933  -3.470   0.623  0.00  0.00    +0.005 A 
ATOM     16  C   UNL     1      -8.048  -2.371   1.453  0.00  0.00    +0.029 A 
ATOM     17  C   UNL     1      -7.639  -1.126   1.012  0.00  0.00    +0.109 A 
ATOM     18  C   UNL     1      -7.121  -0.980  -0.261  0.00  0.00    +0.029 A 
ATOM     19  C   UNL     1      -7.002  -2.080  -1.089  0.00  0.00    +0.005 A 
ENDBRANCH  10  17
ENDBRANCH   1  10
BRANCH   1  20
ATOM     20  C   UNL     1      -5.327   1.378   2.304  0.00  0.00    +0.227 C 
BRANCH  20  21
ATOM     21  C   UNL     1      -4.364   0.614   1.432  0.00  0.00    +0.233 C 
ATOM     22  O   UNL     1      -4.553  -0.562   1.206  0.00  0.00    -0.274 OA
ATOM     23  N   UNL     1      -3.292   1.238   0.905  0.00  0.00    -0.307 N 
ATOM     24  H   UNL     1      -3.120   2.305   1.111  0.00  0.00    +0.149 HD
BRANCH  23  25
ATOM     25  C   UNL     1      -2.355   0.495   0.058  0.00  0.00    +0.100 C 
ATOM     26  C   UNL     1      -2.871   0.481  -1.382  0.00  0.00    +0.033 C 
BRANCH  25  27
ATOM     27  C   UNL     1      -1.004   1.160   0.101  0.00  0.00    -0.027 A 
ATOM     28  C   UNL     1       0.143   0.389   0.150  0.00  0.00    +0.007 A 
ATOM     29  C   UNL     1       1.384   0.995   0.183  0.00  0.00    +0.023 A 
ATOM     30  C   UNL     1       1.479   2.381   0.172  0.00  0.00    +0.030 A 
ATOM     31  C   UNL     1       0.324   3.152   0.129  0.00  0.00    +0.023 A 
ATOM     32  C   UNL     1      -0.913   2.540   0.096  0.00  0.00    +0.007 A 
BRANCH  30  33
ATOM     33  N   UNL     1       2.732   2.997   0.205  0.00  0.00    -0.330 N 
ATOM     34  C   UNL     1       3.452   2.673   1.463  0.00  0.00    +0.105 C 
ATOM     35  C   UNL     1       4.932   2.963   1.109  0.00  0.00    +0.020 C 
ATOM     36  C   UNL     1       5.037   2.484  -0.357  0.00  0.00    +0.020 C 
ATOM     37  C   UNL     1       3.593   2.504  -0.891  0.00  0.00    +0.105 C 
ENDBRANCH  30  33
ENDBRANCH  25  27
ENDBRANCH  23  25
ENDBRANCH  20  21
ENDBRANCH   1  20
TORSDOF 8
