REMARK  Name = ZINC61361004
REMARK  3 active torsions:
REMARK  status: ('A' for Active; 'I' for Inactive)
REMARK    1  A    between atoms: C_6  and  N_11
REMARK    2  A    between atoms: N_11  and  C_12
REMARK    3  A    between atoms: C_17  and  N_18
REMARK                            x       y       z     vdW  Elec       q    Type
REMARK                         _______ _______ _______ _____ _____    ______ ____
ROOT
ATOM      1  C   UNL     1      -3.102   0.750  -0.435  0.00  0.00    +0.050 A 
ATOM      2  C   UNL     1      -2.995   1.201   0.870  0.00  0.00    +0.048 A 
ATOM      3  C   UNL     1      -3.834   2.213   1.333  0.00  0.00    +0.039 A 
ATOM      4  C   UNL     1      -4.774   2.759   0.468  0.00  0.00    -0.016 A 
ATOM      5  C   UNL     1      -4.886   2.314  -0.831  0.00  0.00    +0.030 A 
ATOM      6  C   UNL     1      -4.047   1.311  -1.294  0.00  0.00    +0.046 A 
ATOM      7  C   UNL     1      -5.515   3.814   1.258  0.00  0.00    +0.133 C 
ATOM      8  C   UNL     1      -4.871   3.771   2.627  0.00  0.00    +0.222 C 
ATOM      9  O   UNL     1      -5.163   4.459   3.582  0.00  0.00    -0.275 OA
ATOM     10  N   UNL     1      -3.917   2.826   2.586  0.00  0.00    -0.285 N 
ATOM     11  H   UNL     1      -3.350   2.597   3.339  0.00  0.00    +0.155 HD
ENDROOT
BRANCH   6  12
ATOM     12  N   UNL     1      -4.152   0.859  -2.618  0.00  0.00    -0.357 N 
ATOM     13  H   UNL     1      -3.567   0.154  -2.937  0.00  0.00    +0.142 HD
ATOM     14  H   UNL     1      -4.810   1.250  -3.213  0.00  0.00    +0.142 HD
ENDBRANCH   6  12
BRANCH   1  15
ATOM     15  N   UNL     1      -2.257  -0.267  -0.894  0.00  0.00    -0.336 N 
ATOM     16  H   UNL     1      -2.328  -0.581  -1.809  0.00  0.00    +0.147 HD
BRANCH  15  22
ATOM     17  C   UNL     1      -0.017   1.391   0.010  0.00  0.00    +0.013 A 
ATOM     18  C   UNL     1       1.145   2.084   0.002  0.00  0.00    +0.046 A 
ATOM     19  S   UNL     1       2.356   0.771  -0.016  0.00  0.00    -0.101 S 
ATOM     20  C   UNL     1       1.227  -0.595  -0.012  0.00  0.00    -0.005 A 
ATOM     21  C   UNL     1       0.002  -0.004   0.002  0.00  0.00    -0.017 A 
ATOM     22  C   UNL     1      -1.264  -0.856   0.007  0.00  0.00    +0.101 C 
ATOM     23  C   UNL     1      -0.910  -2.267  -0.467  0.00  0.00    +0.027 C 
ATOM     24  C   UNL     1       0.255  -2.821   0.358  0.00  0.00    +0.007 C 
ATOM     25  C   UNL     1       1.533  -2.058  -0.020  0.00  0.00    +0.043 C 
ENDBRANCH  15  22
ENDBRANCH   1  15
TORSDOF 3
