REMARK  Name = ZINC28822828
REMARK  7 active torsions:
REMARK  status: ('A' for Active; 'I' for Inactive)
REMARK    1  A    between atoms: C_1  and  C_2
REMARK    2  A    between atoms: C_2  and  C_4
REMARK    3  A    between atoms: C_2  and  N_19
REMARK    4  A    between atoms: C_4  and  N_5
REMARK    5  A    between atoms: C_6  and  C_8
REMARK    6  A    between atoms: C_20  and  C_22
REMARK    7  A    between atoms: C_25  and  N_28
REMARK                            x       y       z     vdW  Elec       q    Type
REMARK                         _______ _______ _______ _____ _____    ______ ____
ROOT
ATOM      1  C   UNL     1      -0.156   1.919   0.991  0.00  0.00    +0.029 C 
ATOM      2  C   UNL     1      -0.233   0.637   0.159  0.00  0.00    +0.087 C 
ENDROOT
BRANCH   2   3
ATOM      3  N   UNL     1      -1.607   0.130   0.169  0.00  0.00    -0.307 N 
ATOM      4  C   UNL     1      -2.029  -0.655   1.181  0.00  0.00    +0.244 C 
ATOM      5  O   UNL     1      -1.268  -0.942   2.085  0.00  0.00    -0.270 OA
ATOM      6  H   UNL     1      -2.214   0.359  -0.552  0.00  0.00    +0.149 HD
BRANCH   4   7
ATOM      7  C   UNL     1      -3.414  -1.166   1.191  0.00  0.00    +0.037 A 
ATOM      8  C   UNL     1      -4.288  -0.842   0.150  0.00  0.00    +0.015 A 
ATOM      9  C   UNL     1      -5.579  -1.320   0.163  0.00  0.00    +0.027 A 
ATOM     10  C   UNL     1      -6.014  -2.125   1.211  0.00  0.00    +0.049 A 
ATOM     11  C   UNL     1      -5.147  -2.450   2.249  0.00  0.00    +0.027 A 
ATOM     12  C   UNL     1      -3.852  -1.980   2.239  0.00  0.00    +0.015 A 
BRANCH  10  13
ATOM     13  N   UNL     1      -7.324  -2.609   1.221  0.00  0.00    -0.284 N 
ATOM     14  C   UNL     1      -8.306  -1.879   1.815  0.00  0.00    +0.095 A 
ATOM     15  C   UNL     1      -9.582  -2.327   1.837  0.00  0.00    +0.018 A 
ATOM     16  C   UNL     1      -9.903  -3.556   1.242  0.00  0.00    +0.007 A 
ATOM     17  C   UNL     1      -8.917  -4.286   0.646  0.00  0.00    +0.071 A 
ATOM     18  C   UNL     1      -7.603  -3.790   0.637  0.00  0.00    +0.256 A 
ATOM     19  O   UNL     1      -6.712  -4.431   0.103  0.00  0.00    -0.267 OA
ENDBRANCH  10  13
ENDBRANCH   4   7
ENDBRANCH   2   3
BRANCH   2  20
ATOM     20  C   UNL     1       0.189   0.937  -1.281  0.00  0.00    +0.126 C 
BRANCH  20  21
ATOM     21  N   UNL     1       0.002  -0.260  -2.104  0.00  0.00    -0.310 N 
ATOM     22  C   UNL     1       0.310  -0.231  -3.416  0.00  0.00    +0.244 C 
ATOM     23  O   UNL     1       0.743   0.789  -3.916  0.00  0.00    -0.270 OA
ATOM     24  H   UNL     1      -0.344  -1.074  -1.705  0.00  0.00    +0.149 HD
BRANCH  22  25
ATOM     25  C   UNL     1       0.121  -1.437  -4.245  0.00  0.00    +0.039 A 
ATOM     26  C   UNL     1      -0.384  -2.610  -3.666  0.00  0.00    +0.014 A 
ATOM     27  C   UNL     1      -0.563  -3.729  -4.422  0.00  0.00    +0.012 A 
ATOM     28  C   UNL     1      -0.242  -3.712  -5.783  0.00  0.00    +0.018 A 
ATOM     29  C   UNL     1       0.267  -2.539  -6.376  0.00  0.00    +0.049 A 
ATOM     30  C   UNL     1       0.441  -1.402  -5.601  0.00  0.00    +0.039 A 
ATOM     31  N   UNL     1       0.487  -2.819  -7.707  0.00  0.00    -0.359 N 
ATOM     32  H   UNL     1       0.837  -2.191  -8.358  0.00  0.00    +0.165 HD
ATOM     33  C   UNL     1       0.139  -4.114  -7.973  0.00  0.00    +0.103 A 
ATOM     34  C   UNL     1      -0.309  -4.708  -6.853  0.00  0.00    +0.066 A 
ATOM     35 CL   UNL     1      -0.861  -6.347  -6.703  0.00  0.00    -0.081 Cl
ENDBRANCH  22  25
ENDBRANCH  20  21
ENDBRANCH   2  20
TORSDOF 6
