REMARK  Name = ZINC02895992
REMARK  3 active torsions:
REMARK  status: ('A' for Active; 'I' for Inactive)
REMARK    1  A    between atoms: C_11  and  C_18
REMARK    2  A    between atoms: CA_13  and  C_16
REMARK    3  A    between atoms: C_21  and  O_24
REMARK                            x       y       z     vdW  Elec       q    Type
REMARK                         _______ _______ _______ _____ _____    ______ ____
ROOT
ATOM      1  C   UNL     1       0.675  -2.698  -0.021  0.00  0.00    +0.001 A 
ATOM      2  C   UNL     1      -0.657  -2.307  -0.005  0.00  0.00    +0.002 A 
ATOM      3  C   UNL     1      -0.996  -0.972   0.006  0.00  0.00    +0.026 A 
ATOM      4  C   UNL     1       0.002  -0.004   0.002  0.00  0.00    +0.047 A 
ATOM      5  C   UNL     1       1.353  -0.405  -0.014  0.00  0.00    +0.003 A 
ATOM      6  C   UNL     1       1.672  -1.764  -0.025  0.00  0.00    +0.010 A 
ATOM      7  C   UNL     1       2.131   0.827  -0.015  0.00  0.00    -0.021 A 
ATOM      8  C   UNL     1       1.260   1.856   0.000  0.00  0.00    +0.010 A 
ATOM      9  N   UNL     1      -0.017   1.374   0.010  0.00  0.00    -0.359 N 
ATOM     10  H   UNL     1      -0.818   1.921   0.017  0.00  0.00    +0.166 HD
ATOM     11  C   UNL     1       1.696   3.303   0.007  0.00  0.00    +0.008 C 
ATOM     12  CA  UNL     1       3.933   2.452  -0.421  0.00  0.00    +0.049 C 
ATOM     13  C   UNL     1       3.629   0.998  -0.032  0.00  0.00    +0.033 C 
ATOM     14  N   UNL     1       3.120   3.366   0.407  0.00  0.00    +0.396 N 
ATOM     15  H1  UNL     1       3.205   3.095   1.394  0.00  0.00    -0.083 HD
ATOM     16  H2  UNL     1       3.462   4.327   0.285  0.00  0.00    -0.083 HD
ENDROOT
BRANCH  11  17
ATOM     17  C   UNL     1       0.867   4.079   0.997  0.00  0.00    -0.055 A 
ATOM     18  C   UNL     1       1.163   4.015   2.346  0.00  0.00    +0.006 A 
ATOM     19  C   UNL     1       0.408   4.730   3.255  0.00  0.00    +0.045 A 
ATOM     20  C   UNL     1      -0.657   5.503   2.815  0.00  0.00    +0.117 A 
ATOM     21  C   UNL     1      -0.956   5.561   1.462  0.00  0.00    +0.045 A 
ATOM     22  C   UNL     1      -0.194   4.849   0.556  0.00  0.00    +0.006 A 
BRANCH  20  23
ATOM     23  O   UNL     1      -1.405   6.203   3.708  0.00  0.00    -0.507 OA
ATOM     24  H   UNL     1      -2.162   5.713   4.057  0.00  0.00    +0.292 HD
ENDBRANCH  20  23
ENDBRANCH  11  17
BRANCH  12  25
ATOM     25  C   UNL     1       5.393   2.740  -0.182  0.00  0.00    +0.343 C 
ATOM     26  O   UNL     1       5.737   3.328   0.816  0.00  0.00    -0.248 OA
ATOM     27  OXT UNL     1       6.310   2.345  -1.079  0.00  0.00    -0.248 OA
ENDBRANCH  12  25
TORSDOF 3
