REMARK  Name = ZINC40361337
REMARK  7 active torsions:
REMARK  status: ('A' for Active; 'I' for Inactive)
REMARK    1  A    between atoms: C_1  and  C_2
REMARK    2  A    between atoms: C_2  and  C_3
REMARK    3  A    between atoms: C_3  and  C_4
REMARK    4  A    between atoms: C_4  and  C_6
REMARK    5  A    between atoms: C_4  and  N_9
REMARK    6  A    between atoms: C_6  and  N_8
REMARK    7  A    between atoms: N_12  and  C_13
REMARK                            x       y       z     vdW  Elec       q    Type
REMARK                         _______ _______ _______ _____ _____    ______ ____
ROOT
ATOM      1  N   UNL     1       1.541  -2.507   0.083  0.00  0.00    -0.291 N 
ATOM      2  C   UNL     1       1.317  -3.733  -0.430  0.00  0.00    +0.304 C 
ATOM      3  O   UNL     1       0.459  -4.447   0.052  0.00  0.00    -0.252 OA
ATOM      4  N   UNL     1       2.045  -4.168  -1.478  0.00  0.00    -0.269 N 
ATOM      5  H   UNL     1       2.226  -1.938  -0.302  0.00  0.00    +0.151 HD
ATOM      6  H   UNL     1       2.684  -3.576  -1.904  0.00  0.00    +0.156 HD
ENDROOT
BRANCH   4   7
ATOM      7  C   UNL     1       1.880  -5.472  -1.949  0.00  0.00    +0.042 A 
ATOM      8  C   UNL     1       0.638  -6.069  -1.923  0.00  0.00    +0.024 A 
ATOM      9  C   UNL     1       0.463  -7.368  -2.390  0.00  0.00    +0.002 A 
ATOM     10  C   UNL     1       1.510  -8.084  -2.885  0.00  0.00    +0.008 A 
ATOM     11  C   UNL     1       2.792  -7.512  -2.930  0.00  0.00    -0.016 A 
ATOM     12  C   UNL     1       2.982  -6.188  -2.462  0.00  0.00    +0.003 A 
ATOM     13  C   UNL     1       4.263  -5.617  -2.513  0.00  0.00    +0.010 A 
ATOM     14  C   UNL     1       5.304  -6.337  -3.014  0.00  0.00    +0.001 A 
ATOM     15  C   UNL     1       5.117  -7.637  -3.480  0.00  0.00    +0.001 A 
ATOM     16  C   UNL     1       3.892  -8.228  -3.435  0.00  0.00    +0.008 A 
ENDBRANCH   4   7
BRANCH   1  17
ATOM     17  C   UNL     1       0.749  -2.034   1.221  0.00  0.00    +0.126 C 
BRANCH  17  18
ATOM     18  C   UNL     1       1.370  -2.526   2.504  0.00  0.00    +0.067 C 
ATOM     19  S   UNL     1       2.814  -3.212   2.481  0.00  0.00    -0.039 S 
BRANCH  18  20
ATOM     20  N   UNL     1       0.708  -2.387   3.669  0.00  0.00    -0.354 N 
ATOM     21  H   UNL     1      -0.168  -1.971   3.683  0.00  0.00    +0.143 HD
ATOM     22  H   UNL     1       1.108  -2.703   4.495  0.00  0.00    +0.143 HD
ENDBRANCH  18  20
ENDBRANCH  17  18
BRANCH  17  23
ATOM     23  C   UNL     1       0.721  -0.504   1.222  0.00  0.00    +0.029 C 
BRANCH  23  25
ATOM     24  C   UNL     1      -0.049   1.522  -0.020  0.00  0.00    +0.004 C 
ATOM     25  C   UNL     1      -0.021  -0.007  -0.021  0.00  0.00    -0.001 C 
ENDBRANCH  23  25
ENDBRANCH  17  23
ENDBRANCH   1  17
TORSDOF 6
