REMARK  Name = ZINC35033727
REMARK  11 active torsions:
REMARK  status: ('A' for Active; 'I' for Inactive)
REMARK    1  A    between atoms: C_1  and  C_2
REMARK    2  A    between atoms: C_2  and  C_3
REMARK    3  A    between atoms: C_3  and  C_5
REMARK    4  A    between atoms: C_3  and  N_20
REMARK    5  A    between atoms: N_15  and  C_16
REMARK    6  A    between atoms: C_16  and  C_17
REMARK    7  A    between atoms: C_17  and  O_18
REMARK    8  A    between atoms: O_18  and  C_19
REMARK    9  A    between atoms: C_24  and  C_27
REMARK   10  A    between atoms: C_28  and  C_30
REMARK   11  A    between atoms: C_34  and  N_36
REMARK                            x       y       z     vdW  Elec       q    Type
REMARK                         _______ _______ _______ _____ _____    ______ ____
ROOT
ATOM      1  N   UNL     1       1.750  -0.125  -2.145  0.00  0.00    +0.388 N 
ATOM      2  C   UNL     1       2.283   1.242  -2.096  0.00  0.00    -0.059 C 
ATOM      3  C   UNL     1       3.606   1.246  -1.324  0.00  0.00    +0.090 C 
ATOM      4  N   UNL     1       4.510   0.263  -1.942  0.00  0.00    -0.298 N 
ATOM      5  C   UNL     1       3.998  -1.096  -2.180  0.00  0.00    +0.057 C 
ATOM      6  C   UNL     1       2.657  -0.989  -2.912  0.00  0.00    -0.055 C 
ATOM      7  C   UNL     1       4.996  -1.878  -3.037  0.00  0.00    +0.026 C 
ATOM      8  C   UNL     1       5.770   0.598  -2.282  0.00  0.00    +0.247 C 
ATOM      9  O   UNL     1       6.465  -0.190  -2.893  0.00  0.00    -0.270 OA
ATOM     10  H   UNL     1       1.661  -0.483  -1.206  0.00  0.00    -0.081 HD
ENDROOT
BRANCH   8  11
ATOM     11  C   UNL     1       6.307   1.925  -1.912  0.00  0.00    +0.039 A 
ATOM     12  C   UNL     1       5.806   2.597  -0.796  0.00  0.00    +0.014 A 
ATOM     13  C   UNL     1       6.311   3.834  -0.456  0.00  0.00    +0.023 A 
ATOM     14  C   UNL     1       7.314   4.410  -1.218  0.00  0.00    +0.071 A 
ATOM     15  C   UNL     1       7.815   3.748  -2.327  0.00  0.00    +0.145 A 
ATOM     16  C   UNL     1       7.322   2.507  -2.674  0.00  0.00    +0.047 A 
ATOM     17 CL   UNL     1       7.945   5.967  -0.784  0.00  0.00    -0.081 Cl
BRANCH  15  18
ATOM     18  N   UNL     1       8.886   4.369  -3.137  0.00  0.00    +0.058 N 
ATOM     19  O   UNL     1       9.324   3.792  -4.105  0.00  0.00    -0.126 OA
ATOM     20  O   UNL     1       9.323   5.454  -2.831  0.00  0.00    -0.126 OA
ENDBRANCH  15  18
ENDBRANCH   8  11
BRANCH   1  21
ATOM     21  C   UNL     1       0.429  -0.111  -2.789  0.00  0.00    -0.001 C 
BRANCH  21  22
ATOM     22  C   UNL     1      -0.098  -1.520  -2.886  0.00  0.00    +0.099 A 
ATOM     23  N   UNL     1       0.192  -2.352  -1.933  0.00  0.00    -0.235 NA
ATOM     24  C   UNL     1      -0.247  -3.636  -1.952  0.00  0.00    +0.078 A 
ATOM     25  C   UNL     1       0.064  -4.532  -0.927  0.00  0.00    +0.028 A 
ATOM     26  C   UNL     1      -0.404  -5.825  -0.987  0.00  0.00    +0.002 A 
ATOM     27  C   UNL     1      -1.181  -6.252  -2.056  0.00  0.00    +0.001 A 
ATOM     28  C   UNL     1      -1.501  -5.387  -3.079  0.00  0.00    +0.015 A 
ATOM     29  C   UNL     1      -1.038  -4.073  -3.037  0.00  0.00    +0.065 A 
ATOM     30  C   UNL     1      -1.347  -3.105  -4.100  0.00  0.00    +0.262 A 
ATOM     31  O   UNL     1      -2.024  -3.417  -5.062  0.00  0.00    -0.267 OA
ATOM     32  N   UNL     1      -0.856  -1.851  -3.963  0.00  0.00    -0.295 N 
BRANCH  32  33
ATOM     33  C   UNL     1      -1.138  -0.845  -4.989  0.00  0.00    +0.154 C 
BRANCH  33  34
ATOM     34  C   UNL     1      -0.069  -0.916  -6.081  0.00  0.00    +0.181 C 
BRANCH  34  35
ATOM     35  O   UNL     1      -0.155  -2.174  -6.752  0.00  0.00    -0.381 OA
ATOM     36  C   UNL     1       0.805  -2.344  -7.796  0.00  0.00    +0.194 C 
ENDBRANCH  34  35
ENDBRANCH  33  34
ENDBRANCH  32  33
ENDBRANCH  21  22
BRANCH  21  38
ATOM     37  C   UNL     1      -0.617   0.172  -0.538  0.00  0.00    +0.002 C 
ATOM     38  C   UNL     1      -0.535   0.738  -1.957  0.00  0.00    -0.011 C 
ENDBRANCH  21  38
ENDBRANCH   1  21
TORSDOF 8
