REMARK  Name = ZINC09664061
REMARK  5 active torsions:
REMARK  status: ('A' for Active; 'I' for Inactive)
REMARK    1  A    between atoms: C_3  and  S_6
REMARK    2  A    between atoms: S_6  and  N_9
REMARK    3  A    between atoms: C_14  and  C_16
REMARK    4  A    between atoms: N_18  and  C_19
REMARK    5  A    between atoms: C_20  and  C_27
REMARK                            x       y       z     vdW  Elec       q    Type
REMARK                         _______ _______ _______ _____ _____    ______ ____
ROOT
ATOM      1  C   UNL     1      -4.862   0.694  -0.123  0.00  0.00    +0.236 C 
ATOM      2  O   UNL     1      -4.290   1.270   0.779  0.00  0.00    -0.274 OA
ATOM      3  N   UNL     1      -4.183   0.335  -1.230  0.00  0.00    -0.278 N 
ATOM      4  H   UNL     1      -4.639  -0.126  -1.951  0.00  0.00    +0.155 HD
ENDROOT
BRANCH   3   5
ATOM      5  C   UNL     1      -2.831   0.624  -1.339  0.00  0.00    +0.084 A 
ATOM      6  C   UNL     1      -1.972   0.340  -2.386  0.00  0.00    +0.068 A 
ATOM      7  C   UNL     1      -0.577   0.757  -2.250  0.00  0.00    -0.023 A 
ATOM      8  C   UNL     1      -0.278   1.383  -1.098  0.00  0.00    -0.004 A 
ATOM      9  S   UNL     1      -1.807   1.424  -0.196  0.00  0.00    -0.077 S 
ATOM     10  C   UNL     1       1.173   1.779  -1.031  0.00  0.00    +0.043 C 
ATOM     11  C   UNL     1       1.858   0.931  -2.125  0.00  0.00    +0.010 C 
ATOM     12  C   UNL     1       0.692   0.674  -3.100  0.00  0.00    +0.037 C 
BRANCH   6  13
ATOM     13  C   UNL     1      -2.443  -0.355  -3.588  0.00  0.00    +0.244 C 
ATOM     14  O   UNL     1      -2.404  -1.571  -3.643  0.00  0.00    -0.270 OA
ATOM     15  N   UNL     1      -2.919   0.351  -4.632  0.00  0.00    -0.325 N 
ATOM     16  H   UNL     1      -2.950   1.320  -4.588  0.00  0.00    +0.145 HD
ATOM     17  H   UNL     1      -3.231  -0.108  -5.427  0.00  0.00    +0.145 HD
ENDBRANCH   6  13
ENDBRANCH   3   5
BRANCH   1  23
ATOM     18  N   UNL     1      -7.083   1.621   0.230  0.00  0.00    -0.164 NA
ATOM     19  C   UNL     1      -8.519   1.530   0.526  0.00  0.00    +0.110 C 
ATOM     20  C   UNL     1      -8.723   0.569   1.701  0.00  0.00    +0.017 C 
ATOM     21  C   UNL     1      -8.063  -0.773   1.377  0.00  0.00    +0.003 C 
ATOM     22  C   UNL     1      -6.560  -0.569   1.176  0.00  0.00    +0.030 C 
ATOM     23  C   UNL     1      -6.331   0.380  -0.004  0.00  0.00    +0.166 C 
BRANCH  18  24
ATOM     24  S   UNL     1      -6.325   3.091   0.165  0.00  0.00    +0.068 S 
ATOM     25  O   UNL     1      -5.164   2.915  -0.636  0.00  0.00    -0.152 OA
ATOM     26  O   UNL     1      -7.326   4.051  -0.145  0.00  0.00    -0.152 OA
BRANCH  24  29
ATOM     27  C   UNL     1      -4.312   3.656   3.644  0.00  0.00    +0.010 A 
ATOM     28  C   UNL     1      -4.527   3.292   2.328  0.00  0.00    +0.036 A 
ATOM     29  C   UNL     1      -5.761   3.460   1.793  0.00  0.00    +0.143 A 
ATOM     30  S   UNL     1      -6.666   4.158   3.165  0.00  0.00    -0.077 S 
ATOM     31  C   UNL     1      -5.341   4.170   4.360  0.00  0.00    +0.047 A 
ENDBRANCH  24  29
ENDBRANCH  18  24
ENDBRANCH   1  23
TORSDOF 5
