REMARK  Name = ZINC63526619
REMARK  11 active torsions:
REMARK  status: ('A' for Active; 'I' for Inactive)
REMARK    1  A    between atoms: C_1  and  C_2
REMARK    2  A    between atoms: C_3  and  C_32
REMARK    3  A    between atoms: C_4  and  S_10
REMARK    4  A    between atoms: C_6  and  C_9
REMARK    5  A    between atoms: S_10  and  N_13
REMARK    6  A    between atoms: N_13  and  C_14
REMARK    7  A    between atoms: C_14  and  C_15
REMARK    8  A    between atoms: C_15  and  C_16
REMARK    9  A    between atoms: C_19  and  O_27
REMARK   10  A    between atoms: C_24  and  C_26
REMARK   11  A    between atoms: O_27  and  C_28
REMARK                            x       y       z     vdW  Elec       q    Type
REMARK                         _______ _______ _______ _____ _____    ______ ____
ROOT
ATOM      1  C   UNL     1       0.293  -5.421  -1.435  0.00  0.00    +0.110 C 
ENDROOT
BRANCH   1   2
ATOM      2  N   UNL     1       0.842  -4.442  -2.376  0.00  0.00    -0.188 NA
ATOM      3  H   UNL     1       1.681  -4.622  -2.829  0.00  0.00    +0.148 HD
BRANCH   2   4
ATOM      4  S   UNL     1       0.031  -3.028  -2.668  0.00  0.00    +0.077 S 
ATOM      5  O   UNL     1      -1.320  -3.382  -2.933  0.00  0.00    -0.152 OA
ATOM      6  O   UNL     1       0.820  -2.290  -3.591  0.00  0.00    -0.152 OA
BRANCH   4  10
ATOM      7  C   UNL     1      -0.018   1.503   0.010  0.00  0.00    +0.047 C 
ATOM      8  C   UNL     1       0.002  -0.004   0.002  0.00  0.00    -0.010 A 
ATOM      9  C   UNL     1       0.006  -0.716  -1.204  0.00  0.00    +0.101 A 
ATOM     10  C   UNL     1       0.025  -2.111  -1.163  0.00  0.00    +0.212 A 
ATOM     11  N   UNL     1       0.039  -2.748  -0.011  0.00  0.00    -0.230 NA
ATOM     12  C   UNL     1       0.035  -2.105   1.141  0.00  0.00    +0.059 A 
ATOM     13  C   UNL     1       0.023  -0.721   1.187  0.00  0.00    +0.066 A 
ATOM     14 CL   UNL     1       0.027   0.107   2.713  0.00  0.00    -0.081 Cl
ATOM     15  C   UNL     1       0.051  -2.889   2.428  0.00  0.00    +0.067 C 
BRANCH   9  16
ATOM     16  C   UNL     1      -0.009  -0.024  -2.458  0.00  0.00    +0.103 C 
ATOM     17  N   UNL     1      -0.022   0.525  -3.452  0.00  0.00    -0.191 NA
ENDBRANCH   9  16
ENDBRANCH   4  10
ENDBRANCH   2   4
ENDBRANCH   1   2
BRANCH   1  18
ATOM     18  C   UNL     1       1.006  -6.762  -1.620  0.00  0.00    +0.050 C 
BRANCH  18  19
ATOM     19  C   UNL     1       0.442  -7.769  -0.652  0.00  0.00    -0.037 C 
ATOM     20  C   UNL     1      -0.545  -7.565   0.251  0.00  0.00    +0.003 A 
ATOM     21  C   UNL     1      -1.356  -6.391   0.590  0.00  0.00    +0.056 A 
ATOM     22  C   UNL     1      -2.292  -6.486   1.564  0.00  0.00    +0.131 A 
ATOM     23  C   UNL     1      -2.521  -7.679   2.271  0.00  0.00    +0.048 A 
ATOM     24  C   UNL     1      -1.826  -8.811   2.031  0.00  0.00    +0.029 A 
ATOM     25  C   UNL     1      -0.787  -8.822   0.997  0.00  0.00    +0.043 A 
ATOM     26  N   UNL     1       0.018  -9.764   0.572  0.00  0.00    -0.378 N 
ATOM     27  C   UNL     1       0.858  -9.215  -0.497  0.00  0.00    +0.103 C 
ATOM     28  C   UNL     1       2.333  -9.299  -0.100  0.00  0.00    +0.035 C 
ATOM     29  H   UNL     1       0.049 -10.674   0.907  0.00  0.00    +0.160 HD
BRANCH  22  30
ATOM     30  O   UNL     1      -3.036  -5.390   1.868  0.00  0.00    -0.406 OA
BRANCH  30  31
ATOM     31  C   UNL     1      -4.012  -5.535   2.902  0.00  0.00    +0.575 C 
ATOM     32  F   UNL     1      -3.378  -5.901   4.094  0.00  0.00    -0.133 F 
ATOM     33  F   UNL     1      -4.682  -4.320   3.084  0.00  0.00    -0.133 F 
ATOM     34  F   UNL     1      -4.932  -6.524   2.539  0.00  0.00    -0.133 F 
ENDBRANCH  30  31
ENDBRANCH  22  30
ENDBRANCH  18  19
ENDBRANCH   1  18
TORSDOF 8
