REMARK  Name = ZINC36799965
REMARK  7 active torsions:
REMARK  status: ('A' for Active; 'I' for Inactive)
REMARK    1  A    between atoms: C_1  and  C_2
REMARK    2  A    between atoms: C_5  and  N_8
REMARK    3  A    between atoms: C_21  and  S_22
REMARK    4  A    between atoms: S_22  and  C_23
REMARK    5  A    between atoms: C_23  and  C_24
REMARK    6  A    between atoms: C_24  and  C_26
REMARK    7  A    between atoms: C_27  and  C_36
REMARK                            x       y       z     vdW  Elec       q    Type
REMARK                         _______ _______ _______ _____ _____    ______ ____
ROOT
ATOM      1  N   UNL     1      -0.040  -4.137   0.008  0.00  0.00    -0.245 N 
ATOM      2  C   UNL     1      -0.123  -4.792  -1.168  0.00  0.00    +0.268 A 
ATOM      3  O   UNL     1      -0.235  -4.176  -2.211  0.00  0.00    -0.267 OA
ATOM      4  C   UNL     1      -0.075  -6.265  -1.170  0.00  0.00    +0.064 A 
ATOM      5  C   UNL     1      -0.156  -6.991  -2.358  0.00  0.00    +0.015 A 
ATOM      6  C   UNL     1      -0.107  -8.368  -2.319  0.00  0.00    +0.001 A 
ATOM      7  C   UNL     1       0.022  -9.031  -1.109  0.00  0.00    +0.002 A 
ATOM      8  C   UNL     1       0.104  -8.324   0.074  0.00  0.00    +0.027 A 
ATOM      9  C   UNL     1       0.056  -6.939   0.055  0.00  0.00    +0.064 A 
ATOM     10  N   UNL     1       0.136  -6.199   1.228  0.00  0.00    -0.255 N 
ATOM     11  C   UNL     1       0.094  -4.830   1.202  0.00  0.00    +0.245 A 
ATOM     12  N   UNL     1       0.197  -4.422   2.444  0.00  0.00    -0.109 NA
ATOM     13  N   UNL     1       0.303  -5.430   3.233  0.00  0.00    -0.120 NA
ATOM     14  C   UNL     1       0.265  -6.546   2.546  0.00  0.00    +0.198 A 
ENDROOT
BRANCH   1  19
ATOM     15  C   UNL     1      -0.218   1.534   0.071  0.00  0.00    +0.044 C 
ATOM     16  C   UNL     1      -0.171   0.028   0.055  0.00  0.00    -0.050 A 
ATOM     17  C   UNL     1      -1.344  -0.701   0.126  0.00  0.00    +0.005 A 
ATOM     18  C   UNL     1      -1.304  -2.081   0.111  0.00  0.00    +0.026 A 
ATOM     19  C   UNL     1      -0.084  -2.738   0.024  0.00  0.00    +0.053 A 
ATOM     20  C   UNL     1       1.093  -2.004  -0.048  0.00  0.00    +0.026 A 
ATOM     21  C   UNL     1       1.046  -0.624  -0.037  0.00  0.00    +0.005 A 
ENDBRANCH   1  19
BRANCH  14  22
ATOM     22  S   UNL     1       0.376  -8.181   3.194  0.00  0.00    -0.078 S 
BRANCH  22  23
ATOM     23  C   UNL     1       0.528  -7.934   4.985  0.00  0.00    +0.157 C 
BRANCH  23  24
ATOM     24  C   UNL     1       0.633  -9.273   5.669  0.00  0.00    +0.176 C 
ATOM     25  O   UNL     1       0.701 -10.289   5.008  0.00  0.00    -0.291 OA
BRANCH  24  26
ATOM     26  C   UNL     1       0.652  -9.345   7.084  0.00  0.00    +0.046 A 
ATOM     27  C   UNL     1       1.755  -9.228   7.904  0.00  0.00    +0.024 A 
ATOM     28  N   UNL     1       1.377  -9.351   9.191  0.00  0.00    -0.358 N 
ATOM     29  H   UNL     1       1.979  -9.304   9.950  0.00  0.00    +0.166 HD
ATOM     30  C   UNL     1       0.014  -9.555   9.282  0.00  0.00    +0.047 A 
ATOM     31  C   UNL     1      -0.504  -9.556   7.977  0.00  0.00    +0.010 A 
ATOM     32  C   UNL     1      -1.867  -9.736   7.767  0.00  0.00    +0.011 A 
ATOM     33  C   UNL     1      -2.707  -9.912   8.846  0.00  0.00    +0.001 A 
ATOM     34  C   UNL     1      -2.198  -9.908  10.136  0.00  0.00    +0.002 A 
ATOM     35  C   UNL     1      -0.848  -9.738  10.358  0.00  0.00    +0.026 A 
ATOM     36  C   UNL     1       3.167  -8.997   7.433  0.00  0.00    +0.064 C 
ENDBRANCH  24  26
ENDBRANCH  23  24
ENDBRANCH  22  23
ENDBRANCH  14  22
TORSDOF 5
