REMARK  Name = ZINC12713849
REMARK  16 active torsions:
REMARK  status: ('A' for Active; 'I' for Inactive)
REMARK    1  A    between atoms: C_1  and  C_2
REMARK    2  A    between atoms: C_2  and  O_3
REMARK    3  A    between atoms: O_3  and  C_4
REMARK    4  A    between atoms: C_7  and  C_10
REMARK    5  A    between atoms: C_10  and  C_12
REMARK    6  A    between atoms: C_10  and  N_19
REMARK    7  A    between atoms: N_14  and  C_15
REMARK    8  A    between atoms: C_15  and  C_16
REMARK    9  A    between atoms: C_15  and  C_17
REMARK   10  A    between atoms: C_15  and  C_18
REMARK   11  A    between atoms: N_19  and  C_20
REMARK   12  A    between atoms: C_20  and  C_21
REMARK   13  A    between atoms: C_24  and  O_27
REMARK   14  A    between atoms: O_27  and  C_28
REMARK   15  A    between atoms: C_29  and  C_31
REMARK   16  A    between atoms: C_31  and  N_32
REMARK                            x       y       z     vdW  Elec       q    Type
REMARK                         _______ _______ _______ _____ _____    ______ ____
ROOT
ATOM      1  N   UNL     1      -6.188   3.562  -3.316  0.00  0.00    -0.280 N 
ATOM      2  C   UNL     1      -6.371   4.337  -4.404  0.00  0.00    +0.238 C 
ATOM      3  O   UNL     1      -6.491   3.828  -5.498  0.00  0.00    -0.274 OA
ENDROOT
BRANCH   1   4
ATOM      4  C   UNL     1      -6.141   4.169  -1.984  0.00  0.00    +0.193 C 
BRANCH   4   8
ATOM      5  C   UNL     1      -2.198   5.630  -1.222  0.00  0.00    +0.121 A 
ATOM      6  C   UNL     1      -3.264   6.514  -1.295  0.00  0.00    +0.046 A 
ATOM      7  C   UNL     1      -4.538   6.040  -1.542  0.00  0.00    +0.009 A 
ATOM      8  C   UNL     1      -4.750   4.684  -1.716  0.00  0.00    -0.018 A 
ATOM      9  C   UNL     1      -3.690   3.800  -1.638  0.00  0.00    +0.009 A 
ATOM     10  C   UNL     1      -2.414   4.271  -1.398  0.00  0.00    +0.046 A 
BRANCH   5  11
ATOM     11  O   UNL     1      -0.944   6.094  -0.980  0.00  0.00    -0.492 OA
BRANCH  11  13
ATOM     12  C   UNL     1       1.434   5.832  -0.639  0.00  0.00    +0.048 C 
ATOM     13  C   UNL     1       0.106   5.127  -0.918  0.00  0.00    +0.225 C 
ENDBRANCH  11  13
ENDBRANCH   5  11
ENDBRANCH   4   8
BRANCH   4  14
ATOM     14  C   UNL     1      -6.503   3.136  -0.948  0.00  0.00    +0.238 C 
ATOM     15  O   UNL     1      -5.851   2.118  -0.854  0.00  0.00    -0.273 OA
ATOM     16  N   UNL     1      -7.551   3.344  -0.126  0.00  0.00    -0.309 N 
ATOM     17  H   UNL     1      -8.072   4.159  -0.201  0.00  0.00    +0.149 HD
BRANCH  16  18
ATOM     18  C   UNL     1      -7.902   2.340   0.881  0.00  0.00    +0.026 C 
ATOM     19  C   UNL     1      -6.721   2.136   1.832  0.00  0.00    +0.031 C 
ATOM     20  C   UNL     1      -9.120   2.818   1.675  0.00  0.00    +0.031 C 
ATOM     21  C   UNL     1      -8.233   1.016   0.188  0.00  0.00    +0.031 C 
ENDBRANCH  16  18
ENDBRANCH   4  14
ENDBRANCH   1   4
BRANCH   1  22
ATOM     22  C   UNL     1      -6.037   2.113  -3.466  0.00  0.00    +0.144 C 
BRANCH  22  23
ATOM     23  C   UNL     1      -4.572   1.765  -3.531  0.00  0.00    -0.030 A 
ATOM     24  C   UNL     1      -3.720   2.511  -4.324  0.00  0.00    +0.009 A 
ATOM     25  C   UNL     1      -2.375   2.198  -4.380  0.00  0.00    +0.046 A 
ATOM     26  C   UNL     1      -1.883   1.127  -3.649  0.00  0.00    +0.120 A 
ATOM     27  C   UNL     1      -2.741   0.376  -2.859  0.00  0.00    +0.046 A 
ATOM     28  C   UNL     1      -4.083   0.697  -2.802  0.00  0.00    +0.009 A 
BRANCH  26  29
ATOM     29  O   UNL     1      -0.561   0.813  -3.707  0.00  0.00    -0.495 OA
ATOM     30  C   UNL     1       0.263   1.630  -4.541  0.00  0.00    +0.277 C 
ENDBRANCH  26  29
ENDBRANCH  22  23
ENDBRANCH   1  22
BRANCH   2  31
ATOM     31  C   UNL     1      -6.427   5.836  -4.260  0.00  0.00    +0.241 C 
BRANCH  31  32
ATOM     32  N   UNL     1      -6.604   6.447  -5.580  0.00  0.00    -0.235 N 
ATOM     33  C   UNL     1      -5.610   6.843  -6.443  0.00  0.00    +0.090 A 
ATOM     34  C   UNL     1      -4.220   6.811  -6.396  0.00  0.00    +0.029 A 
ATOM     35  C   UNL     1      -3.494   7.299  -7.446  0.00  0.00    +0.002 A 
ATOM     36  C   UNL     1      -4.131   7.819  -8.565  0.00  0.00    +0.002 A 
ATOM     37  C   UNL     1      -5.493   7.857  -8.638  0.00  0.00    +0.032 A 
ATOM     38  C   UNL     1      -6.261   7.367  -7.573  0.00  0.00    +0.113 A 
ATOM     39  N   UNL     1      -7.589   7.273  -7.360  0.00  0.00    -0.129 NA
ATOM     40  N   UNL     1      -7.821   6.743  -6.212  0.00  0.00    -0.064 NA
ENDBRANCH  31  32
ENDBRANCH   2  31
TORSDOF 11
