REMARK  Name = ZINC10288171
REMARK  7 active torsions:
REMARK  status: ('A' for Active; 'I' for Inactive)
REMARK    1  A    between atoms: C_4  and  C_7
REMARK    2  A    between atoms: C_7  and  N_8
REMARK    3  A    between atoms: C_9  and  C_30
REMARK    4  A    between atoms: C_12  and  S_13
REMARK    5  A    between atoms: S_13  and  C_14
REMARK    6  A    between atoms: C_14  and  C_15
REMARK    7  A    between atoms: C_30  and  N_64
REMARK                            x       y       z     vdW  Elec       q    Type
REMARK                         _______ _______ _______ _____ _____    ______ ____
ROOT
ATOM      1  N   UNL     1       2.582   6.883  -0.564  0.00  0.00    -0.303 N 
ATOM      2  C   UNL     1       3.157   7.306  -1.730  0.00  0.00    +0.118 A 
ATOM      3  N   UNL     1       2.520   6.728  -2.709  0.00  0.00    -0.135 NA
ATOM      4  N   UNL     1       1.592   5.969  -2.244  0.00  0.00    -0.123 NA
ATOM      5  C   UNL     1       1.588   6.023  -0.932  0.00  0.00    +0.192 A 
ENDROOT
BRANCH   1   6
ATOM      6  C   UNL     1       2.958   7.269   0.799  0.00  0.00    +0.160 C 
BRANCH   6  10
ATOM      7  C   UNL     1       5.925   4.574   2.276  0.00  0.00    +0.000 A 
ATOM      8  C   UNL     1       6.305   5.717   1.599  0.00  0.00    +0.000 A 
ATOM      9  C   UNL     1       5.346   6.589   1.121  0.00  0.00    +0.005 A 
ATOM     10  C   UNL     1       4.005   6.318   1.320  0.00  0.00    -0.028 A 
ATOM     11  C   UNL     1       3.624   5.178   2.002  0.00  0.00    +0.005 A 
ATOM     12  C   UNL     1       4.584   4.303   2.476  0.00  0.00    +0.000 A 
ENDBRANCH   6  10
ENDBRANCH   1   6
BRANCH   5  13
ATOM     13  S   UNL     1       0.499   5.156   0.149  0.00  0.00    -0.081 S 
BRANCH  13  14
ATOM     14  C   UNL     1      -0.501   4.261  -1.065  0.00  0.00    +0.113 C 
BRANCH  14  15
ATOM     15  C   UNL     1      -1.532   3.426  -0.349  0.00  0.00    -0.019 A 
ATOM     16  C   UNL     1      -2.743   4.003  -0.091  0.00  0.00    +0.097 A 
ATOM     17  C   UNL     1      -3.776   3.242   0.485  0.00  0.00    +0.338 A 
ATOM     18  O   UNL     1      -4.812   3.780   0.827  0.00  0.00    -0.245 OA
ATOM     19  O   UNL     1      -3.621   1.920   0.657  0.00  0.00    -0.422 OA
ATOM     20  C   UNL     1      -2.438   1.320   0.401  0.00  0.00    +0.140 A 
ATOM     21  C   UNL     1      -1.315   2.087   0.040  0.00  0.00    +0.029 A 
ATOM     22  C   UNL     1      -0.017   1.417   0.010  0.00  0.00    -0.007 A 
ATOM     23  C   UNL     1       1.210   2.082   0.002  0.00  0.00    +0.009 A 
ATOM     24  C   UNL     1       2.375   1.388  -0.164  0.00  0.00    +0.001 A 
ATOM     25  C   UNL     1       2.369   0.008  -0.329  0.00  0.00    +0.001 A 
ATOM     26  C   UNL     1       1.199  -0.687  -0.264  0.00  0.00    +0.008 A 
ATOM     27  C   UNL     1       0.002  -0.004   0.002  0.00  0.00    -0.017 A 
ATOM     28  C   UNL     1      -1.171  -0.718   0.314  0.00  0.00    +0.012 A 
ATOM     29  C   UNL     1      -2.336  -0.066   0.545  0.00  0.00    +0.047 A 
ENDBRANCH  14  15
ENDBRANCH  13  14
ENDBRANCH   5  13
BRANCH   2  30
ATOM     30  C   UNL     1       4.309   8.269  -1.861  0.00  0.00    -0.001 C 
BRANCH  30  36
ATOM     31  C   UNL     1       3.027   9.835  -3.188  0.00  0.00    -0.078 C 
ATOM     32  C   UNL     1       2.385  11.225  -3.180  0.00  0.00    -0.019 C 
ATOM     33  C   UNL     1       3.481  12.287  -3.064  0.00  0.00    -0.004 C 
ATOM     34  C   UNL     1       4.294  12.034  -1.792  0.00  0.00    -0.019 C 
ATOM     35  C   UNL     1       4.881  10.621  -1.840  0.00  0.00    -0.078 C 
ATOM     36  N   UNL     1       3.774   9.645  -1.927  0.00  0.00    +0.384 N 
ATOM     37  H   UNL     1       3.136   9.793  -1.136  0.00  0.00    -0.081 HD
ENDBRANCH  30  36
ENDBRANCH   2  30
TORSDOF 7
