REMARK  Name = ZINC60344809
REMARK  9 active torsions:
REMARK  status: ('A' for Active; 'I' for Inactive)
REMARK    1  A    between atoms: C_1  and  C_2
REMARK    2  A    between atoms: C_2  and  C_3
REMARK    3  A    between atoms: C_2  and  C_4
REMARK    4  A    between atoms: N_6  and  C_7
REMARK    5  A    between atoms: C_14  and  C_16
REMARK    6  A    between atoms: C_16  and  C_18
REMARK    7  A    between atoms: C_16  and  N_29
REMARK    8  A    between atoms: C_18  and  C_19
REMARK    9  A    between atoms: C_30  and  C_32
REMARK                            x       y       z     vdW  Elec       q    Type
REMARK                         _______ _______ _______ _____ _____    ______ ____
ROOT
ATOM      1  C   UNL     1      -7.491  -2.572  -3.049  0.00  0.00    +0.163 C 
ENDROOT
BRANCH   1   8
ATOM      2  C   UNL     1      -3.630  -0.713  -0.978  0.00  0.00    +0.090 C 
ATOM      3  C   UNL     1      -4.511   0.215  -0.138  0.00  0.00    +0.025 C 
ATOM      4  C   UNL     1      -5.939  -0.331  -0.100  0.00  0.00    +0.021 C 
ATOM      5  C   UNL     1      -6.503  -0.376  -1.524  0.00  0.00    +0.108 C 
ATOM      6  N   UNL     1      -5.585  -1.147  -2.372  0.00  0.00    -0.298 N 
ATOM      7  C   UNL     1      -4.168  -0.763  -2.412  0.00  0.00    +0.130 C 
ATOM      8  C   UNL     1      -6.034  -2.189  -3.100  0.00  0.00    +0.236 C 
ATOM      9  O   UNL     1      -5.266  -2.818  -3.797  0.00  0.00    -0.274 OA
BRANCH   2  12
ATOM     10  C   UNL     1      -1.412  -0.526   0.013  0.00  0.00    +0.216 C 
ATOM     11  O   UNL     1      -1.790  -1.233   0.922  0.00  0.00    -0.276 OA
ATOM     12  N   UNL     1      -2.256  -0.206  -0.988  0.00  0.00    -0.311 N 
ATOM     13  H   UNL     1      -1.953   0.360  -1.716  0.00  0.00    +0.149 HD
BRANCH  10  15
ATOM     14  C   UNL     1      -0.019   1.526   0.010  0.00  0.00    +0.017 C 
ATOM     15  C   UNL     1       0.002  -0.004   0.002  0.00  0.00    +0.069 C 
ATOM     16  C   UNL     1       0.742  -0.511   1.242  0.00  0.00    +0.017 C 
ENDBRANCH  10  15
ENDBRANCH   2  12
ENDBRANCH   1   8
BRANCH   1  17
ATOM     17  N   UNL     1      -7.649  -3.954  -3.507  0.00  0.00    -0.304 N 
ATOM     18  C   UNL     1      -7.264  -4.300  -4.752  0.00  0.00    +0.211 C 
ATOM     19  O   UNL     1      -6.788  -3.467  -5.493  0.00  0.00    -0.276 OA
ATOM     20  C   UNL     1      -7.427  -5.723  -5.222  0.00  0.00    +0.109 C 
ATOM     21  H   UNL     1      -8.029  -4.621  -2.914  0.00  0.00    +0.149 HD
ENDBRANCH   1  17
BRANCH   1  22
ATOM     22  C   UNL     1      -8.295  -1.639  -3.957  0.00  0.00    +0.069 C 
BRANCH  22  23
ATOM     23  C   UNL     1      -9.765  -1.942  -3.812  0.00  0.00    -0.020 A 
ATOM     24  C   UNL     1     -10.493  -2.756  -4.592  0.00  0.00    +0.087 A 
ATOM     25  N   UNL     1     -11.790  -2.783  -4.156  0.00  0.00    -0.360 N 
ATOM     26  H   UNL     1     -12.503  -3.301  -4.561  0.00  0.00    +0.165 HD
ATOM     27  C   UNL     1     -11.931  -1.966  -3.057  0.00  0.00    +0.047 A 
ATOM     28  C   UNL     1     -10.668  -1.408  -2.789  0.00  0.00    +0.003 A 
ATOM     29  C   UNL     1     -10.506  -0.533  -1.714  0.00  0.00    +0.010 A 
ATOM     30  C   UNL     1     -11.578  -0.225  -0.923  0.00  0.00    +0.001 A 
ATOM     31  C   UNL     1     -12.825  -0.776  -1.181  0.00  0.00    +0.002 A 
ATOM     32  C   UNL     1     -13.009  -1.635  -2.243  0.00  0.00    +0.026 A 
ENDBRANCH  22  23
ENDBRANCH   1  22
TORSDOF 6
