REMARK  Name = ZINC01125931
REMARK  4 active torsions:
REMARK  status: ('A' for Active; 'I' for Inactive)
REMARK    1  A    between atoms: C_4  and  C_7
REMARK    2  A    between atoms: C_9  and  C_20
REMARK    3  A    between atoms: C_13  and  N_19
REMARK    4  A    between atoms: C_14  and  C_16
REMARK                            x       y       z     vdW  Elec       q    Type
REMARK                         _______ _______ _______ _____ _____    ______ ____
ROOT
ATOM      1  C   UNL     1       4.060   1.553  -0.815  0.00  0.00    -0.004 A 
ATOM      2  C   UNL     1       5.186   1.072  -0.168  0.00  0.00    +0.037 A 
ATOM      3  C   UNL     1       6.345   1.846  -0.112  0.00  0.00    +0.073 A 
ATOM      4  N   UNL     1       6.376   3.050  -0.669  0.00  0.00    -0.239 NA
ATOM      5  C   UNL     1       5.330   3.550  -1.290  0.00  0.00    +0.112 A 
ATOM      6  C   UNL     1       4.108   2.851  -1.410  0.00  0.00    +0.037 A 
ATOM      7  C   UNL     1       3.061   3.556  -2.128  0.00  0.00    +0.054 A 
ATOM      8  C   UNL     1       3.337   4.814  -2.620  0.00  0.00    +0.097 A 
ATOM      9  S   UNL     1       5.027   5.087  -2.127  0.00  0.00    -0.062 S 
ENDROOT
BRANCH   3  10
ATOM     10  C   UNL     1       7.548   1.322   0.579  0.00  0.00    +0.001 A 
ATOM     11  C   UNL     1       7.521   0.061   1.172  0.00  0.00    +0.013 A 
ATOM     12  C   UNL     1       8.644  -0.424   1.809  0.00  0.00    +0.039 A 
ATOM     13  C   UNL     1       9.795   0.345   1.870  0.00  0.00    +0.123 A 
ATOM     14  C   UNL     1       9.825   1.602   1.286  0.00  0.00    +0.039 A 
ATOM     15  C   UNL     1       8.709   2.093   0.642  0.00  0.00    +0.013 A 
ATOM     16  F   UNL     1      10.891  -0.132   2.500  0.00  0.00    -0.205 F 
ENDBRANCH   3  10
BRANCH   1  20
ATOM     17  C   UNL     1       0.517  -0.787  -1.014  0.00  0.00    +0.000 A 
ATOM     18  C   UNL     1       1.121  -0.350  -2.180  0.00  0.00    +0.001 A 
ATOM     19  C   UNL     1       2.271   0.410  -2.122  0.00  0.00    +0.008 A 
ATOM     20  C   UNL     1       2.825   0.738  -0.885  0.00  0.00    -0.017 A 
ATOM     21  C   UNL     1       2.212   0.295   0.287  0.00  0.00    +0.008 A 
ATOM     22  C   UNL     1       1.062  -0.465   0.216  0.00  0.00    +0.001 A 
ENDBRANCH   1  20
BRANCH   8  23
ATOM     23  C   UNL     1       2.482   5.681  -3.344  0.00  0.00    +0.250 C 
ATOM     24  O   UNL     1       1.342   5.338  -3.601  0.00  0.00    -0.270 OA
ATOM     25  N   UNL     1       2.930   6.886  -3.748  0.00  0.00    -0.325 N 
ATOM     26  H   UNL     1       3.838   7.160  -3.543  0.00  0.00    +0.145 HD
ATOM     27  H   UNL     1       2.344   7.480  -4.244  0.00  0.00    +0.145 HD
ENDBRANCH   8  23
BRANCH   7  28
ATOM     28  N   UNL     1       1.812   2.977  -2.314  0.00  0.00    -0.356 N 
ATOM     29  H   UNL     1       1.470   2.342  -1.665  0.00  0.00    +0.142 HD
ATOM     30  H   UNL     1       1.283   3.207  -3.093  0.00  0.00    +0.142 HD
ENDBRANCH   7  28
TORSDOF 4
