REMARK  Name = ZINC32954367
REMARK  9 active torsions:
REMARK  status: ('A' for Active; 'I' for Inactive)
REMARK    1  A    between atoms: N_9  and  C_27
REMARK    2  A    between atoms: C_10  and  S_12
REMARK    3  A    between atoms: S_12  and  C_13
REMARK    4  A    between atoms: C_13  and  C_14
REMARK    5  A    between atoms: N_16  and  C_17
REMARK    6  A    between atoms: C_20  and  O_23
REMARK    7  A    between atoms: O_23  and  C_24
REMARK    8  A    between atoms: C_27  and  C_28
REMARK    9  A    between atoms: C_28  and  C_29
REMARK                            x       y       z     vdW  Elec       q    Type
REMARK                         _______ _______ _______ _____ _____    ______ ____
ROOT
ATOM      1  C   UNL     1       2.381   1.422   0.036  0.00  0.00    +0.001 A 
ATOM      2  C   UNL     1       1.161   2.087   0.051  0.00  0.00    +0.002 A 
ATOM      3  C   UNL     1      -0.017   1.394   0.050  0.00  0.00    +0.028 A 
ATOM      4  C   UNL     1       0.002  -0.004   0.033  0.00  0.00    +0.079 A 
ATOM      5  C   UNL     1       1.245  -0.676   0.018  0.00  0.00    +0.065 A 
ATOM      6  C   UNL     1       2.432   0.056   0.019  0.00  0.00    +0.015 A 
ATOM      7  C   UNL     1       1.239  -2.145   0.001  0.00  0.00    +0.262 A 
ATOM      8  O   UNL     1       2.277  -2.781  -0.013  0.00  0.00    -0.267 OA
ATOM      9  N   UNL     1       0.036  -2.765   0.001  0.00  0.00    -0.287 N 
ATOM     10  C   UNL     1      -1.118  -2.036   0.016  0.00  0.00    +0.173 A 
ATOM     11  N   UNL     1      -1.136  -0.726   0.031  0.00  0.00    -0.223 NA
ENDROOT
BRANCH  10  12
ATOM     12  S   UNL     1      -2.656  -2.897   0.016  0.00  0.00    -0.078 S 
BRANCH  12  13
ATOM     13  C   UNL     1      -3.801  -1.495   0.039  0.00  0.00    +0.173 C 
BRANCH  13  14
ATOM     14  C   UNL     1      -5.219  -2.005   0.042  0.00  0.00    +0.227 C 
ATOM     15  O   UNL     1      -5.434  -3.199   0.030  0.00  0.00    -0.275 OA
ATOM     16  N   UNL     1      -6.248  -1.135   0.058  0.00  0.00    -0.285 N 
ATOM     17  H   UNL     1      -6.054  -0.056   0.145  0.00  0.00    +0.155 HD
BRANCH  16  18
ATOM     18  C   UNL     1      -7.564  -1.605  -0.037  0.00  0.00    +0.034 A 
ATOM     19  C   UNL     1      -8.520  -0.861  -0.716  0.00  0.00    +0.027 A 
ATOM     20  C   UNL     1      -9.816  -1.327  -0.813  0.00  0.00    +0.047 A 
ATOM     21  C   UNL     1     -10.166  -2.534  -0.224  0.00  0.00    +0.127 A 
ATOM     22  C   UNL     1      -9.213  -3.275   0.459  0.00  0.00    +0.047 A 
ATOM     23  C   UNL     1      -7.915  -2.812   0.552  0.00  0.00    +0.027 A 
BRANCH  21  24
ATOM     24  O   UNL     1     -11.444  -2.989  -0.315  0.00  0.00    -0.434 OA
BRANCH  24  25
ATOM     25  C   UNL     1     -12.373  -2.175  -1.033  0.00  0.00    +0.541 C 
ATOM     26  F   UNL     1     -12.465  -0.921  -0.420  0.00  0.00    -0.166 F 
ATOM     27  F   UNL     1     -11.935  -2.018  -2.352  0.00  0.00    -0.166 F 
ENDBRANCH  24  25
ENDBRANCH  21  24
ENDBRANCH  16  18
ENDBRANCH  13  14
ENDBRANCH  12  13
ENDBRANCH  10  12
BRANCH   9  28
ATOM     28  C   UNL     1      -0.028  -4.229  -0.015  0.00  0.00    +0.132 C 
BRANCH  28  29
ATOM     29  C   UNL     1      -0.042  -4.754   1.421  0.00  0.00    +0.057 C 
BRANCH  29  30
ATOM     30  C   UNL     1      -0.108  -6.260   1.405  0.00  0.00    -0.046 A 
ATOM     31  C   UNL     1      -1.334  -6.898   1.411  0.00  0.00    +0.005 A 
ATOM     32  C   UNL     1      -1.396  -8.278   1.390  0.00  0.00    +0.020 A 
ATOM     33  C   UNL     1      -0.229  -9.022   1.375  0.00  0.00    +0.041 A 
ATOM     34  C   UNL     1       0.998  -8.383   1.375  0.00  0.00    +0.020 A 
ATOM     35  C   UNL     1       1.058  -7.002   1.390  0.00  0.00    +0.005 A 
ATOM     36 CL   UNL     1      -0.305 -10.756   1.355  0.00  0.00    -0.084 Cl
ENDBRANCH  29  30
ENDBRANCH  28  29
ENDBRANCH   9  28
TORSDOF 9
