REMARK  Name = ZINC40840349
REMARK  14 active torsions:
REMARK  status: ('A' for Active; 'I' for Inactive)
REMARK    1  A    between atoms: C_1  and  C_2
REMARK    2  A    between atoms: C_2  and  O_3
REMARK    3  A    between atoms: O_3  and  C_4
REMARK    4  A    between atoms: C_7  and  C_13
REMARK    5  A    between atoms: C_9  and  O_10
REMARK    6  A    between atoms: O_10  and  C_11
REMARK    7  A    between atoms: C_11  and  C_12
REMARK    8  A    between atoms: C_13  and  C_14
REMARK    9  A    between atoms: C_14  and  N_15
REMARK   10  A    between atoms: C_16  and  C_18
REMARK   11  A    between atoms: C_18  and  C_19
REMARK   12  A    between atoms: C_19  and  N_20
REMARK   13  A    between atoms: C_33  and  C_40
REMARK   14  A    between atoms: C_36  and  C_39
REMARK                            x       y       z     vdW  Elec       q    Type
REMARK                         _______ _______ _______ _____ _____    ______ ____
ROOT
ATOM      1  C   UNL     1      -2.155 -10.701  -4.461  0.00  0.00    +0.135 C 
ENDROOT
BRANCH   1   2
ATOM      2  N   UNL     1      -1.993 -12.150  -4.603  0.00  0.00    -0.303 N 
ATOM      3  C   UNL     1      -1.301 -12.677  -5.679  0.00  0.00    +0.070 A 
ATOM      4  C   UNL     1      -0.751 -11.832  -6.638  0.00  0.00    +0.028 A 
ATOM      5  C   UNL     1      -0.063 -12.364  -7.707  0.00  0.00    +0.002 A 
ATOM      6  C   UNL     1       0.087 -13.738  -7.834  0.00  0.00    +0.002 A 
ATOM      7  C   UNL     1      -0.444 -14.585  -6.904  0.00  0.00    +0.030 A 
ATOM      8  C   UNL     1      -1.149 -14.068  -5.807  0.00  0.00    +0.090 A 
ATOM      9  N   UNL     1      -1.673 -14.905  -4.888  0.00  0.00    -0.225 NA
ATOM     10  C   UNL     1      -2.334 -14.445  -3.857  0.00  0.00    +0.188 A 
ATOM     11  C   UNL     1      -2.512 -12.991  -3.682  0.00  0.00    +0.292 A 
ATOM     12  O   UNL     1      -3.121 -12.556  -2.723  0.00  0.00    -0.264 OA
ATOM     13  N   UNL     1      -2.863 -15.323  -2.928  0.00  0.00    -0.310 N 
ATOM     14  C   UNL     1      -2.833 -16.773  -3.165  0.00  0.00    +0.110 C 
ATOM     15  C   UNL     1      -2.177 -17.456  -1.961  0.00  0.00    +0.004 C 
ATOM     16  C   UNL     1      -2.911 -17.044  -0.683  0.00  0.00    +0.009 C 
ATOM     17  C   UNL     1      -2.803 -15.528  -0.497  0.00  0.00    +0.004 C 
ATOM     18  C   UNL     1      -3.460 -14.824  -1.681  0.00  0.00    +0.110 C 
ATOM     19  C   UNL     1      -3.509 -15.121   0.798  0.00  0.00    +0.009 C 
ATOM     20  C   UNL     1      -0.710 -17.030  -1.868  0.00  0.00    +0.009 C 
ENDBRANCH   1   2
BRANCH   1  21
ATOM     21  C   UNL     1      -0.982 -10.133  -3.660  0.00  0.00    +0.117 C 
BRANCH  21  23
ATOM     22  N   UNL     1      -0.229  -7.923  -2.841  0.00  0.00    -0.315 N 
ATOM     23  C   UNL     1      -1.149  -8.642  -3.514  0.00  0.00    +0.215 C 
ATOM     24  O   UNL     1      -2.112  -8.089  -4.003  0.00  0.00    -0.276 OA
ATOM     25  H   UNL     1       0.540  -8.366  -2.450  0.00  0.00    +0.149 HD
BRANCH  22  26
ATOM     26  C   UNL     1      -0.392  -6.474  -2.699  0.00  0.00    +0.109 C 
BRANCH  26  27
ATOM     27  C   UNL     1       0.781  -5.906  -1.898  0.00  0.00    +0.054 C 
BRANCH  27  31
ATOM     28  C   UNL     1       0.304  -1.677  -1.478  0.00  0.00    +0.162 A 
ATOM     29  C   UNL     1      -0.231  -2.534  -0.531  0.00  0.00    +0.050 A 
ATOM     30  C   UNL     1      -0.075  -3.901  -0.669  0.00  0.00    +0.007 A 
ATOM     31  C   UNL     1       0.614  -4.415  -1.752  0.00  0.00    -0.042 A 
ATOM     32  C   UNL     1       1.150  -3.565  -2.701  0.00  0.00    +0.053 A 
ATOM     33  C   UNL     1       0.992  -2.194  -2.571  0.00  0.00    +0.162 A 
BRANCH  28  34
ATOM     34  O   UNL     1       0.151  -0.332  -1.344  0.00  0.00    -0.489 OA
BRANCH  34  36
ATOM     35  C   UNL     1      -0.636   1.656  -0.217  0.00  0.00    +0.048 C 
ATOM     36  C   UNL     1      -0.567   0.128  -0.197  0.00  0.00    +0.226 C 
ENDBRANCH  34  36
ENDBRANCH  28  34
BRANCH  33  37
ATOM     37  O   UNL     1       1.514  -1.357  -3.507  0.00  0.00    -0.489 OA
BRANCH  37  38
ATOM     38  C   UNL     1       2.208  -1.958  -4.602  0.00  0.00    +0.226 C 
ATOM     39  C   UNL     1       2.719  -0.867  -5.544  0.00  0.00    +0.048 C 
ENDBRANCH  37  38
ENDBRANCH  33  37
ENDBRANCH  27  31
ENDBRANCH  26  27
ENDBRANCH  22  26
ENDBRANCH  21  23
ENDBRANCH   1  21
TORSDOF 10
