REMARK  Name = ZINC14997362
REMARK  10 active torsions:
REMARK  status: ('A' for Active; 'I' for Inactive)
REMARK    1  A    between atoms: C_1  and  C_2
REMARK    2  A    between atoms: C_5  and  C_9
REMARK    3  A    between atoms: C_6  and  C_8
REMARK    4  A    between atoms: C_9  and  N_71
REMARK    5  A    between atoms: C_11  and  N_31
REMARK    6  A    between atoms: C_14  and  C_16
REMARK    7  A    between atoms: N_21  and  C_24
REMARK    8  A    between atoms: C_33  and  C_36
REMARK    9  A    between atoms: C_36  and  O_38
REMARK   10  A    between atoms: O_38  and  C_39
REMARK                            x       y       z     vdW  Elec       q    Type
REMARK                         _______ _______ _______ _____ _____    ______ ____
ROOT
ATOM      1  C   UNL     1      -4.384   0.224   0.670  0.00  0.00    -0.050 C 
ATOM      2  C   UNL     1      -4.391  -1.276   1.018  0.00  0.00    +0.091 C 
ATOM      3  C   UNL     1      -3.129  -1.854   0.337  0.00  0.00    +0.019 C 
ATOM      4  C   UNL     1      -2.230  -0.605   0.156  0.00  0.00    +0.022 C 
ATOM      5  N   UNL     1      -3.206   0.439  -0.178  0.00  0.00    +0.391 N 
ATOM      6  H   UNL     1      -3.471   0.362  -1.167  0.00  0.00    -0.080 HD
ENDROOT
BRANCH   4   7
ATOM      7  C   UNL     1      -1.251  -0.813  -0.971  0.00  0.00    +0.202 C 
ATOM      8  O   UNL     1      -1.450  -0.297  -2.050  0.00  0.00    -0.277 OA
ATOM      9  N   UNL     1      -0.155  -1.574  -0.780  0.00  0.00    -0.300 N 
ATOM     10  C   UNL     1       0.055  -2.289   0.488  0.00  0.00    +0.126 C 
ATOM     11  C   UNL     1       0.358  -3.761   0.167  0.00  0.00    +0.124 C 
ATOM     12  N   UNL     1       1.481  -3.830  -0.778  0.00  0.00    -0.327 N 
ATOM     13  C   UNL     1       1.139  -3.196  -2.059  0.00  0.00    +0.124 C 
ATOM     14  C   UNL     1       0.865  -1.706  -1.831  0.00  0.00    +0.126 C 
BRANCH  12  15
ATOM     15  C   UNL     1       1.896  -5.151  -0.968  0.00  0.00    +0.030 A 
ATOM     16  C   UNL     1       1.935  -5.691  -2.247  0.00  0.00    +0.026 A 
ATOM     17  C   UNL     1       2.350  -6.996  -2.432  0.00  0.00    +0.040 A 
ATOM     18  C   UNL     1       2.718  -7.768  -1.343  0.00  0.00    +0.124 A 
ATOM     19  C   UNL     1       2.676  -7.233  -0.067  0.00  0.00    +0.040 A 
ATOM     20  C   UNL     1       2.265  -5.928   0.123  0.00  0.00    +0.026 A 
ATOM     21  F   UNL     1       3.119  -9.044  -1.527  0.00  0.00    -0.205 F 
ENDBRANCH  12  15
ENDBRANCH   4   7
BRANCH   2  22
ATOM     22  N   UNL     1      -5.596  -1.916   0.486  0.00  0.00    -0.250 N 
ATOM     23  C   UNL     1      -6.242  -1.593  -0.651  0.00  0.00    +0.145 A 
ATOM     24  C   UNL     1      -7.306  -2.445  -0.759  0.00  0.00    +0.189 A 
ATOM     25  N   UNL     1      -7.303  -3.265   0.306  0.00  0.00    -0.123 NA
ATOM     26  N   UNL     1      -6.303  -2.979   1.066  0.00  0.00    -0.065 NA
BRANCH  24  27
ATOM     27  C   UNL     1      -8.291  -2.459  -1.855  0.00  0.00    +0.361 C 
ATOM     28  O   UNL     1      -8.193  -1.666  -2.770  0.00  0.00    -0.243 OA
BRANCH  27  29
ATOM     29  O   UNL     1      -9.302  -3.350  -1.841  0.00  0.00    -0.463 OA
ATOM     30  C   UNL     1     -10.235  -3.306  -2.952  0.00  0.00    +0.280 C 
ENDBRANCH  27  29
ENDBRANCH  24  27
ENDBRANCH   2  22
BRANCH   5  31
ATOM     31  C   UNL     1      -2.630   1.795   0.071  0.00  0.00    -0.042 C 
BRANCH  31  36
ATOM     32  C   UNL     1      -0.758   2.083   5.530  0.00  0.00    +0.044 C 
ATOM     33  C   UNL     1      -1.247   2.005   4.107  0.00  0.00    -0.050 A 
ATOM     34  C   UNL     1      -2.555   2.336   3.806  0.00  0.00    +0.003 A 
ATOM     35  C   UNL     1      -3.004   2.265   2.501  0.00  0.00    +0.002 A 
ATOM     36  C   UNL     1      -2.143   1.867   1.495  0.00  0.00    -0.061 A 
ATOM     37  C   UNL     1      -0.836   1.532   1.796  0.00  0.00    -0.049 A 
ATOM     38  C   UNL     1      -0.388   1.603   3.102  0.00  0.00    +0.007 A 
ATOM     39  C   UNL     1       0.101   1.093   0.700  0.00  0.00    +0.044 C 
ENDBRANCH  31  36
ENDBRANCH   5  31
TORSDOF 7
