REMARK  Name = ZINC15912668
REMARK  10 active torsions:
REMARK  status: ('A' for Active; 'I' for Inactive)
REMARK    1  A    between atoms: C_1  and  C_2
REMARK    2  A    between atoms: C_2  and  C_25
REMARK    3  A    between atoms: N_3  and  N_4
REMARK    4  A    between atoms: C_5  and  C_14
REMARK    5  A    between atoms: N_9  and  C_10
REMARK    6  A    between atoms: C_10  and  C_11
REMARK    7  A    between atoms: C_11  and  O_12
REMARK    8  A    between atoms: O_12  and  C_13
REMARK    9  A    between atoms: C_28  and  O_31
REMARK   10  A    between atoms: O_31  and  C_32
REMARK                            x       y       z     vdW  Elec       q    Type
REMARK                         _______ _______ _______ _____ _____    ______ ____
ROOT
ATOM      1  N   UNL     1      -1.333   3.488   0.149  0.00  0.00    -0.207 N 
ATOM      2  C   UNL     1      -1.422   2.153  -0.142  0.00  0.00    +0.082 A 
ATOM      3  C   UNL     1      -2.628   1.550  -0.148  0.00  0.00    +0.077 A 
ATOM      4  S   UNL     1      -3.726   2.896   0.265  0.00  0.00    -0.056 S 
ATOM      5  C   UNL     1      -2.497   4.182   0.420  0.00  0.00    +0.190 A 
ATOM      6  N   UNL     1      -2.655   5.447   0.716  0.00  0.00    -0.257 NA
ENDROOT
BRANCH   2   7
ATOM      7  C   UNL     1      -0.201   1.375  -0.442  0.00  0.00    +0.003 A 
ATOM      8  C   UNL     1       0.879   1.987  -1.079  0.00  0.00    +0.014 A 
ATOM      9  C   UNL     1       2.018   1.261  -1.365  0.00  0.00    +0.048 A 
ATOM     10  C   UNL     1       2.092  -0.078  -1.019  0.00  0.00    +0.142 A 
ATOM     11  C   UNL     1       1.015  -0.697  -0.382  0.00  0.00    +0.076 A 
ATOM     12  C   UNL     1      -0.128   0.025  -0.093  0.00  0.00    +0.037 A 
ATOM     13  N   UNL     1       1.108  -2.054  -0.040  0.00  0.00    -0.280 N 
ATOM     14  C   UNL     1       2.322  -2.647  -0.040  0.00  0.00    +0.255 C 
ATOM     15  O   UNL     1       2.423  -3.827   0.223  0.00  0.00    -0.272 OA
ATOM     16  C   UNL     1       3.550  -1.837  -0.368  0.00  0.00    +0.325 C 
ATOM     17  O   UNL     1       3.210  -0.802  -1.294  0.00  0.00    -0.481 OA
ATOM     18  H   UNL     1       0.313  -2.559   0.192  0.00  0.00    +0.155 HD
ENDBRANCH   2   7
BRANCH   1  21
ATOM     19  C   UNL     1      -0.928   5.583  -1.599  0.00  0.00    +0.068 C 
ATOM     20  C   UNL     1       0.110   5.174  -0.587  0.00  0.00    +0.066 C 
ATOM     21  N   UNL     1      -0.092   4.137   0.168  0.00  0.00    -0.169 NA
BRANCH  20  22
ATOM     22  C   UNL     1       1.355   5.952  -0.452  0.00  0.00    -0.002 A 
ATOM     23  C   UNL     1       2.317   5.578   0.491  0.00  0.00    +0.013 A 
ATOM     24  C   UNL     1       3.482   6.305   0.609  0.00  0.00    +0.046 A 
ATOM     25  C   UNL     1       3.695   7.414  -0.199  0.00  0.00    +0.127 A 
ATOM     26  C   UNL     1       2.740   7.793  -1.133  0.00  0.00    +0.046 A 
ATOM     27  C   UNL     1       1.575   7.069  -1.263  0.00  0.00    +0.013 A 
BRANCH  25  28
ATOM     28  O   UNL     1       4.843   8.131  -0.075  0.00  0.00    -0.434 OA
BRANCH  28  29
ATOM     29  C   UNL     1       5.783   7.687   0.905  0.00  0.00    +0.541 C 
ATOM     30  F   UNL     1       5.185   7.712   2.170  0.00  0.00    -0.166 F 
ATOM     31  F   UNL     1       6.186   6.381   0.606  0.00  0.00    -0.166 F 
ENDBRANCH  28  29
ENDBRANCH  25  28
ENDBRANCH  20  22
ENDBRANCH   1  21
BRANCH   6  32
ATOM     32  C   UNL     1      -3.997   5.976   0.974  0.00  0.00    +0.172 C 
BRANCH  32  33
ATOM     33  C   UNL     1      -4.056   6.547   2.392  0.00  0.00    +0.182 C 
BRANCH  33  34
ATOM     34  O   UNL     1      -3.181   7.672   2.490  0.00  0.00    -0.381 OA
ATOM     35  C   UNL     1      -3.162   8.283   3.782  0.00  0.00    +0.194 C 
ENDBRANCH  33  34
ENDBRANCH  32  33
ENDBRANCH   6  32
TORSDOF 8
