REMARK  Name = ZINC04347343
REMARK  9 active torsions:
REMARK  status: ('A' for Active; 'I' for Inactive)
REMARK    1  A    between atoms: C_1  and  C_2
REMARK    2  A    between atoms: C_2  and  C_4
REMARK    3  A    between atoms: C_2  and  O_25
REMARK    4  A    between atoms: N_6  and  N_7
REMARK    5  A    between atoms: C_8  and  C_9
REMARK    6  A    between atoms: C_12  and  O_15
REMARK    7  A    between atoms: O_15  and  C_16
REMARK    8  A    between atoms: C_16  and  C_18
REMARK    9  A    between atoms: O_25  and  C_26
REMARK                            x       y       z     vdW  Elec       q    Type
REMARK                         _______ _______ _______ _____ _____    ______ ____
ROOT
ATOM      1  N   UNL     1       1.202  -4.847  -0.190  0.00  0.00    -0.188 NA
ATOM      2  C   UNL     1       0.102  -4.176  -0.039  0.00  0.00    +0.138 C 
ENDROOT
BRANCH   2   3
ATOM      3  C   UNL     1       0.124  -2.703  -0.094  0.00  0.00    -0.005 A 
ATOM      4  C   UNL     1      -1.059  -1.977   0.068  0.00  0.00    +0.013 A 
ATOM      5  C   UNL     1      -1.034  -0.600   0.016  0.00  0.00    +0.047 A 
ATOM      6  C   UNL     1       0.166   0.067  -0.197  0.00  0.00    +0.132 A 
ATOM      7  C   UNL     1       1.344  -0.650  -0.364  0.00  0.00    +0.047 A 
ATOM      8  C   UNL     1       1.329  -2.027  -0.308  0.00  0.00    +0.013 A 
BRANCH   6   9
ATOM      9  O   UNL     1       0.186   1.424  -0.248  0.00  0.00    -0.422 OA
BRANCH   9  10
ATOM     10  C   UNL     1      -0.087   2.083   0.895  0.00  0.00    +0.346 C 
ATOM     11  O   UNL     1      -0.238   1.466   1.931  0.00  0.00    -0.244 OA
BRANCH  10  12
ATOM     12  C   UNL     1      -0.202   3.555   0.889  0.00  0.00    +0.073 A 
ATOM     13  C   UNL     1      -0.022   4.268  -0.298  0.00  0.00    +0.016 A 
ATOM     14  C   UNL     1      -0.137   5.642  -0.298  0.00  0.00    +0.001 A 
ATOM     15  C   UNL     1      -0.417   6.317   0.878  0.00  0.00    +0.001 A 
ATOM     16  C   UNL     1      -0.591   5.619   2.059  0.00  0.00    +0.016 A 
ATOM     17  C   UNL     1      -0.485   4.242   2.073  0.00  0.00    +0.032 A 
ATOM     18 BR   UNL     1      -0.721   3.289   3.689  0.00  0.00    -0.049 Br
ENDBRANCH  10  12
ENDBRANCH   9  10
ENDBRANCH   6   9
ENDBRANCH   2   3
BRANCH   1  21
ATOM     19  C   UNL     1       2.324  -6.945  -0.293  0.00  0.00    +0.273 C 
ATOM     20  O   UNL     1       3.370  -6.360  -0.480  0.00  0.00    -0.270 OA
ATOM     21  N   UNL     1       1.181  -6.247  -0.137  0.00  0.00    -0.204 N 
ATOM     22  H   UNL     1       0.344  -6.714   0.012  0.00  0.00    +0.177 HD
BRANCH  19  24
ATOM     23  C   UNL     1       1.487  -8.992  -1.414  0.00  0.00    +0.062 C 
ATOM     24  C   UNL     1       2.301  -8.450  -0.237  0.00  0.00    +0.257 C 
BRANCH  24  25
ATOM     25  O   UNL     1       3.638  -8.950  -0.312  0.00  0.00    -0.480 OA
BRANCH  25  26
ATOM     26  C   UNL     1       3.860 -10.194   0.187  0.00  0.00    +0.123 A 
ATOM     27  C   UNL     1       2.833 -10.886   0.812  0.00  0.00    +0.046 A 
ATOM     28  C   UNL     1       3.059 -12.153   1.315  0.00  0.00    +0.005 A 
ATOM     29  C   UNL     1       4.312 -12.727   1.205  0.00  0.00    +0.020 A 
ATOM     30  C   UNL     1       5.340 -12.038   0.587  0.00  0.00    +0.044 A 
ATOM     31  C   UNL     1       5.116 -10.772   0.078  0.00  0.00    +0.065 A 
ATOM     32 CL   UNL     1       6.912 -12.762   0.451  0.00  0.00    -0.083 Cl
ENDBRANCH  25  26
ENDBRANCH  24  25
ENDBRANCH  19  24
ENDBRANCH   1  21
TORSDOF 8
