REMARK  Name = ZINC62832767
REMARK  4 active torsions:
REMARK  status: ('A' for Active; 'I' for Inactive)
REMARK    1  A    between atoms: C_3  and  C_8
REMARK    2  A    between atoms: C_8  and  N_9
REMARK    3  A    between atoms: C_10  and  C_12
REMARK    4  A    between atoms: C_19  and  N_22
REMARK                            x       y       z     vdW  Elec       q    Type
REMARK                         _______ _______ _______ _____ _____    ______ ____
ROOT
ATOM      1  C   UNL     1       5.680   3.347   2.977  0.00  0.00    +0.062 A 
ATOM      2  C   UNL     1       5.043   2.947   4.115  0.00  0.00    +0.096 A 
ATOM      3  N   UNL     1       5.743   3.355   5.199  0.00  0.00    -0.360 N 
ATOM      4  H   UNL     1       5.486   3.188   6.120  0.00  0.00    +0.165 HD
ATOM      5  C   UNL     1       6.876   4.044   4.810  0.00  0.00    +0.047 A 
ATOM      6  C   UNL     1       6.893   4.066   3.406  0.00  0.00    +0.014 A 
ATOM      7  C   UNL     1       7.934   4.694   2.729  0.00  0.00    +0.033 A 
ATOM      8  C   UNL     1       8.954   5.295   3.448  0.00  0.00    +0.025 A 
ATOM      9  C   UNL     1       8.937   5.269   4.840  0.00  0.00    +0.025 A 
ATOM     10  C   UNL     1       7.906   4.656   5.517  0.00  0.00    +0.028 A 
ENDROOT
BRANCH   1  12
ATOM     11  N   UNL     1       4.105   2.426   1.356  0.00  0.00    -0.307 N 
ATOM     12  C   UNL     1       5.245   3.104   1.595  0.00  0.00    +0.246 C 
ATOM     13  O   UNL     1       5.915   3.514   0.665  0.00  0.00    -0.270 OA
ATOM     14  H   UNL     1       3.571   2.099   2.097  0.00  0.00    +0.149 HD
BRANCH  11  15
ATOM     15  C   UNL     1       3.672   2.183  -0.022  0.00  0.00    +0.139 C 
BRANCH  15  18
ATOM     16  C   UNL     1      -0.017   1.378   0.010  0.00  0.00    +0.001 A 
ATOM     17  C   UNL     1       1.171   2.086   0.002  0.00  0.00    +0.005 A 
ATOM     18  C   UNL     1       2.378   1.411  -0.013  0.00  0.00    -0.029 A 
ATOM     19  C   UNL     1       2.397   0.029  -0.022  0.00  0.00    +0.020 A 
ATOM     20  C   UNL     1       1.210  -0.679  -0.014  0.00  0.00    +0.018 A 
ATOM     21  C   UNL     1       0.002  -0.004   0.002  0.00  0.00    +0.015 A 
ATOM     22 BR   UNL     1       1.236  -2.570  -0.025  0.00  0.00    -0.050 Br
ENDBRANCH  15  18
ENDBRANCH  11  15
ENDBRANCH   1  12
BRANCH   8  23
ATOM     23  N   UNL     1      10.004   5.928   2.774  0.00  0.00    -0.358 N 
ATOM     24  H   UNL     1      10.017   5.946   1.804  0.00  0.00    +0.142 HD
ATOM     25  H   UNL     1      10.719   6.348   3.276  0.00  0.00    +0.142 HD
ENDBRANCH   8  23
TORSDOF 4
