REMARK  Name = ZINC57802249
REMARK  10 active torsions:
REMARK  status: ('A' for Active; 'I' for Inactive)
REMARK    1  A    between atoms: C_1  and  C_2
REMARK    2  A    between atoms: C_7  and  C_8
REMARK    3  A    between atoms: N_9  and  C_21
REMARK    4  A    between atoms: C_10  and  C_12
REMARK    5  A    between atoms: C_15  and  O_19
REMARK    6  A    between atoms: C_16  and  N_18
REMARK    7  A    between atoms: O_19  and  C_20
REMARK    8  A    between atoms: C_21  and  C_23
REMARK    9  A    between atoms: C_21  and  C_24
REMARK   10  A    between atoms: C_24  and  N_25
REMARK                            x       y       z     vdW  Elec       q    Type
REMARK                         _______ _______ _______ _____ _____    ______ ____
ROOT
ATOM      1  C   UNL     1       1.210   1.317   0.045  0.00  0.00    +0.044 C 
ATOM      2  C   UNL     1       0.752  -0.118   0.077  0.00  0.00    -0.045 A 
ATOM      3  C   UNL     1       0.726  -0.852  -1.087  0.00  0.00    +0.033 A 
ATOM      4  C   UNL     1       0.301  -2.184  -1.059  0.00  0.00    +0.090 A 
ATOM      5  C   UNL     1      -0.096  -2.757   0.163  0.00  0.00    +0.070 A 
ATOM      6  C   UNL     1      -0.063  -2.001   1.325  0.00  0.00    +0.031 A 
ATOM      7  C   UNL     1       0.364  -0.690   1.280  0.00  0.00    -0.045 A 
ATOM      8  C   UNL     1       0.405   0.128   2.545  0.00  0.00    +0.044 C 
ATOM      9  N   UNL     1      -0.457  -4.060  -0.122  0.00  0.00    -0.323 N 
ATOM     10  C   UNL     1      -0.278  -4.245  -1.466  0.00  0.00    +0.142 A 
ATOM     11  N   UNL     1       0.168  -3.139  -2.011  0.00  0.00    -0.228 NA
ENDROOT
BRANCH  10  12
ATOM     12  C   UNL     1      -0.545  -5.503  -2.195  0.00  0.00    +0.019 A 
ATOM     13  C   UNL     1      -0.342  -6.733  -1.565  0.00  0.00    +0.015 A 
ATOM     14  C   UNL     1      -0.591  -7.906  -2.245  0.00  0.00    +0.048 A 
ATOM     15  C   UNL     1      -1.044  -7.870  -3.555  0.00  0.00    +0.141 A 
ATOM     16  C   UNL     1      -1.250  -6.646  -4.191  0.00  0.00    +0.067 A 
ATOM     17  C   UNL     1      -1.007  -5.465  -3.511  0.00  0.00    +0.038 A 
BRANCH  16  18
ATOM     18  N   UNL     1      -1.707  -6.612  -5.513  0.00  0.00    -0.355 N 
ATOM     19  H   UNL     1      -1.880  -7.440  -5.988  0.00  0.00    +0.142 HD
ATOM     20  H   UNL     1      -1.849  -5.760  -5.955  0.00  0.00    +0.142 HD
ENDBRANCH  16  18
BRANCH  15  21
ATOM     21  O   UNL     1      -1.289  -9.030  -4.221  0.00  0.00    -0.493 OA
ATOM     22  C   UNL     1      -1.057 -10.247  -3.509  0.00  0.00    +0.277 C 
ENDBRANCH  15  21
ENDBRANCH  10  12
BRANCH   9  23
ATOM     23  C   UNL     1      -0.941  -5.057   0.836  0.00  0.00    +0.069 C 
ATOM     24  C   UNL     1      -0.844  -4.491   2.254  0.00  0.00    +0.029 C 
BRANCH  23  25
ATOM     25  C   UNL     1      -2.399  -5.401   0.522  0.00  0.00    -0.061 C 
BRANCH  25  26
ATOM     26  N   UNL     1      -2.839  -6.504   1.387  0.00  0.00    +0.379 N 
ATOM     27  H   UNL     1      -2.260  -7.313   1.221  0.00  0.00    -0.090 HD
ATOM     28  H   UNL     1      -2.759  -6.226   2.354  0.00  0.00    -0.090 HD
ATOM     29  H   UNL     1      -3.800  -6.730   1.180  0.00  0.00    -0.090 HD
ENDBRANCH  25  26
ENDBRANCH  23  25
ENDBRANCH   9  23
TORSDOF 6
