REMARK  Name = ZINC05276696
REMARK  7 active torsions:
REMARK  status: ('A' for Active; 'I' for Inactive)
REMARK    1  A    between atoms: C_1  and  C_2
REMARK    2  A    between atoms: C_9  and  O_16
REMARK    3  A    between atoms: C_12  and  C_14
REMARK    4  A    between atoms: C_19  and  O_29
REMARK    5  A    between atoms: C_20  and  C_27
REMARK    6  A    between atoms: C_23  and  O_26
REMARK    7  A    between atoms: C_27  and  O_28
REMARK                            x       y       z     vdW  Elec       q    Type
REMARK                         _______ _______ _______ _____ _____    ______ ____
ROOT
ATOM      1  C   UNL     1       2.130   4.163  -0.903  0.00  0.00    +0.015 C 
ATOM      2  C   UNL     1       0.820   3.684  -0.250  0.00  0.00    +0.010 C 
ATOM      3  C   UNL     1      -0.360   4.274  -0.971  0.00  0.00    +0.010 C 
ATOM      4  C   UNL     1      -0.669   5.699  -0.485  0.00  0.00    +0.005 C 
ATOM      5  C   UNL     1       0.486   6.319   0.282  0.00  0.00    +0.006 C 
ATOM      6  C   UNL     1       0.840   5.504   1.517  0.00  0.00    +0.025 C 
ATOM      7  C   UNL     1       0.773   4.025   1.252  0.00  0.00    +0.075 C 
ATOM      8  C   UNL     1       1.931   3.176   1.804  0.00  0.00    +0.036 C 
ATOM      9  C   UNL     1       1.761   1.835   1.041  0.00  0.00    +0.018 C 
ATOM     10  C   UNL     1       0.931   2.149  -0.230  0.00  0.00    +0.111 C 
ATOM     11  C   UNL     1       2.152   5.968   2.128  0.00  0.00    +0.009 C 
ATOM     12  C   UNL     1       2.256   7.499   2.084  0.00  0.00    +0.036 C 
ATOM     13  C   UNL     1       0.866   8.103   1.996  0.00  0.00    +0.076 C 
ATOM     14  C   UNL     1       0.218   7.775   0.652  0.00  0.00    +0.026 C 
ATOM     15  C   UNL     1      -1.258   8.137   0.725  0.00  0.00    +0.015 C 
ATOM     16  C   UNL     1      -1.396   9.637   1.010  0.00  0.00    +0.032 C 
ATOM     17  C   UNL     1      -0.619  10.068   2.247  0.00  0.00    +0.117 C 
ATOM     18  C   UNL     1       0.845   9.616   2.204  0.00  0.00    +0.066 C 
ENDROOT
BRANCH  10  19
ATOM     19  C   UNL     1      -0.394   1.456  -0.187  0.00  0.00    +0.360 C 
ATOM     20  O   UNL     1      -0.865   1.118   0.873  0.00  0.00    -0.246 OA
ATOM     21  O   UNL     1      -1.062   1.214  -1.326  0.00  0.00    -0.246 OA
ENDBRANCH  10  19
BRANCH   7  22
ATOM     22  O   UNL     1      -0.456   3.531   1.831  0.00  0.00    -0.388 OA
ATOM     23  H   UNL     1      -0.547   3.714   2.776  0.00  0.00    +0.210 HD
ENDBRANCH   7  22
BRANCH  17  24
ATOM     24  O   UNL     1      -0.660  11.496   2.351  0.00  0.00    -0.392 OA
ATOM     25  H   UNL     1      -1.554  11.863   2.384  0.00  0.00    +0.210 HD
ENDBRANCH  17  24
BRANCH  13  26
ATOM     26  O   UNL     1       0.065   7.555   3.058  0.00  0.00    -0.388 OA
ATOM     27  H   UNL     1       0.416   7.725   3.943  0.00  0.00    +0.210 HD
ENDBRANCH  13  26
BRANCH  14  28
ATOM     28  C   UNL     1       0.871   8.618  -0.456  0.00  0.00    +0.165 C 
BRANCH  28  29
ATOM     29  O   UNL     1       0.271   8.300  -1.713  0.00  0.00    -0.394 OA
ATOM     30  H   UNL     1       0.634   8.796  -2.459  0.00  0.00    +0.209 HD
ENDBRANCH  28  29
ENDBRANCH  14  28
TORSDOF 6
