REMARK  Name = ZINC61628376
REMARK  5 active torsions:
REMARK  status: ('A' for Active; 'I' for Inactive)
REMARK    1  A    between atoms: C_3  and  C_14
REMARK    2  A    between atoms: C_5  and  C_6
REMARK    3  A    between atoms: C_6  and  N_7
REMARK    4  A    between atoms: C_15  and  C_16
REMARK    5  A    between atoms: C_16  and  N_17
REMARK                            x       y       z     vdW  Elec       q    Type
REMARK                         _______ _______ _______ _____ _____    ______ ____
ROOT
ATOM      1  C   UNL     1      -0.016   1.354   0.009  0.00  0.00    +0.014 A 
ATOM      2  C   UNL     1       1.176   2.042   0.002  0.00  0.00    +0.025 A 
ATOM      3  C   UNL     1       2.348   1.328  -0.013  0.00  0.00    +0.062 A 
ATOM      4  S   UNL     1       1.752  -0.355  -0.017  0.00  0.00    -0.083 S 
ATOM      5  C   UNL     1       0.002  -0.004   0.002  0.00  0.00    +0.011 A 
ENDROOT
BRANCH   3   6
ATOM      6  C   UNL     1       3.697   1.808  -0.024  0.00  0.00    -0.058 C 
ATOM      7  C   UNL     1       4.803   2.201  -0.033  0.00  0.00    -0.081 C 
BRANCH   7   8
ATOM      8  C   UNL     1       6.190   2.695  -0.044  0.00  0.00    +0.168 C 
BRANCH   8   9
ATOM      9  N   UNL     1       7.115   1.554  -0.059  0.00  0.00    -0.320 NA
ATOM     10  H   UNL     1       8.075   1.867  -0.067  0.00  0.00    +0.119 HD
ATOM     11  H   UNL     1       6.942   0.938   0.721  0.00  0.00    +0.119 HD
ENDBRANCH   8   9
ENDBRANCH   7   8
ENDBRANCH   3   6
BRANCH   5  12
ATOM     12  C   UNL     1      -1.157  -0.967   0.008  0.00  0.00    +0.163 C 
BRANCH  12  13
ATOM     13  N   UNL     1      -1.546  -1.272  -1.371  0.00  0.00    -0.348 N 
ATOM     14  C   UNL     1      -2.474  -0.496  -1.985  0.00  0.00    +0.090 A 
ATOM     15  C   UNL     1      -2.854  -0.751  -3.256  0.00  0.00    +0.068 A 
ATOM     16  C   UNL     1      -2.272  -1.840  -3.947  0.00  0.00    +0.182 A 
ATOM     17  O   UNL     1      -2.596  -2.094  -5.098  0.00  0.00    -0.288 OA
ATOM     18  C   UNL     1      -1.306  -2.629  -3.278  0.00  0.00    +0.068 A 
ATOM     19  C   UNL     1      -0.966  -2.319  -2.007  0.00  0.00    +0.090 A 
ENDBRANCH  12  13
ENDBRANCH   5  12
TORSDOF 5
