REMARK  Name = ZINC08740057
REMARK  11 active torsions:
REMARK  status: ('A' for Active; 'I' for Inactive)
REMARK    1  A    between atoms: C_1  and  C_2
REMARK    2  A    between atoms: C_3  and  C_31
REMARK    3  A    between atoms: C_9  and  C_30
REMARK    4  A    between atoms: C_22  and  C_29
REMARK    5  A    between atoms: C_25  and  O_28
REMARK    6  A    between atoms: C_31  and  C_32
REMARK    7  A    between atoms: C_32  and  C_33
REMARK    8  A    between atoms: C_33  and  C_35
REMARK    9  A    between atoms: C_33  and  C_36
REMARK   10  A    between atoms: C_36  and  N_37
REMARK   11  A    between atoms: C_38  and  C_40
REMARK                            x       y       z     vdW  Elec       q    Type
REMARK                         _______ _______ _______ _____ _____    ______ ____
ROOT
ATOM      1  C   UNL     1       1.283  -1.103   5.270  0.00  0.00    +0.043 C 
ATOM      2  C   UNL     1       2.350  -0.287   4.587  0.00  0.00    -0.028 C 
ATOM      3  C   UNL     1       3.673  -0.354   4.807  0.00  0.00    +0.098 C 
ATOM      4  O   UNL     1       4.372   0.558   4.019  0.00  0.00    -0.493 OA
ATOM      5  C   UNL     1       3.599   0.558   2.879  0.00  0.00    +0.181 C 
ATOM      6  C   UNL     1       2.179   0.781   3.545  0.00  0.00    +0.065 C 
ATOM      7  C   UNL     1       1.312   0.543   2.294  0.00  0.00    -0.019 C 
ATOM      8  C   UNL     1      -0.109   1.062   2.494  0.00  0.00    +0.008 C 
ATOM      9  C   UNL     1      -0.689   1.618   1.192  0.00  0.00    +0.005 C 
ATOM     10  C   UNL     1       0.061   1.101  -0.030  0.00  0.00    +0.003 C 
ATOM     11  C   UNL     1       1.501   1.641   0.003  0.00  0.00    +0.000 C 
ATOM     12  C   UNL     1       2.066   1.562   1.377  0.00  0.00    +0.003 C 
ATOM     13  C   UNL     1       3.546   1.149   1.526  0.00  0.00    +0.049 C 
ATOM     14  C   UNL     1       2.289   0.880  -1.067  0.00  0.00    +0.031 C 
ATOM     15  C   UNL     1       1.632   1.196  -2.389  0.00  0.00    -0.027 C 
ATOM     16  C   UNL     1       0.371   1.493  -2.490  0.00  0.00    -0.065 C 
ATOM     17  C   UNL     1      -0.590   1.533  -1.333  0.00  0.00    -0.008 C 
ATOM     18  C   UNL     1      -1.247   2.900  -1.267  0.00  0.00    +0.014 C 
ATOM     19  C   UNL     1      -1.868   3.260  -2.618  0.00  0.00    +0.032 C 
ATOM     20  C   UNL     1      -0.841   3.220  -3.744  0.00  0.00    +0.119 C 
ATOM     21  C   UNL     1      -0.203   1.829  -3.857  0.00  0.00    +0.062 C 
ATOM     22  C   UNL     1      -1.685   0.499  -1.619  0.00  0.00    +0.016 C 
ATOM     23  C   UNL     1       1.353  -0.916   1.839  0.00  0.00    +0.012 C 
ENDROOT
BRANCH  20  24
ATOM     24  O   UNL     1      -1.484   3.539  -4.981  0.00  0.00    -0.391 OA
ATOM     25  H   UNL     1      -0.888   3.555  -5.742  0.00  0.00    +0.210 HD
ENDBRANCH  20  24
BRANCH   3  26
ATOM     26  C   UNL     1       4.321  -1.299   5.782  0.00  0.00    +0.074 C 
BRANCH  26  27
ATOM     27  C   UNL     1       4.776  -2.560   5.045  0.00  0.00    +0.012 C 
BRANCH  27  28
ATOM     28  C   UNL     1       5.436  -3.520   6.037  0.00  0.00    +0.003 C 
ATOM     29  C   UNL     1       4.396  -3.998   7.052  0.00  0.00    +0.009 C 
BRANCH  28  30
ATOM     30  C   UNL     1       6.002  -4.724   5.281  0.00  0.00    +0.107 C 
BRANCH  30  31
ATOM     31  N   UNL     1       6.736  -5.585   6.213  0.00  0.00    -0.315 N 
ATOM     32  C   UNL     1       7.325  -6.712   5.767  0.00  0.00    +0.210 C 
ATOM     33  O   UNL     1       7.247  -7.015   4.596  0.00  0.00    -0.276 OA
ATOM     34  C   UNL     1       8.080  -7.597   6.726  0.00  0.00    +0.109 C 
ATOM     35  H   UNL     1       6.798  -5.342   7.150  0.00  0.00    +0.149 HD
ENDBRANCH  30  31
ENDBRANCH  28  30
ENDBRANCH  27  28
ENDBRANCH  26  27
ENDBRANCH   3  26
TORSDOF 6
