REMARK  Name = ZINC39725845
REMARK  10 active torsions:
REMARK  status: ('A' for Active; 'I' for Inactive)
REMARK    1  A    between atoms: C_1  and  C_2
REMARK    2  A    between atoms: C_2  and  O_3
REMARK    3  A    between atoms: O_3  and  C_4
REMARK    4  A    between atoms: C_9  and  N_10
REMARK    5  A    between atoms: C_11  and  C_13
REMARK    6  A    between atoms: C_13  and  S_14
REMARK    7  A    between atoms: S_14  and  C_15
REMARK    8  A    between atoms: N_29  and  C_30
REMARK    9  A    between atoms: C_34  and  C_37
REMARK   10  A    between atoms: C_35  and  C_36
REMARK                            x       y       z     vdW  Elec       q    Type
REMARK                         _______ _______ _______ _____ _____    ______ ____
ROOT
ATOM      1  C   UNL     1       5.068  -0.759  -7.694  0.00  0.00    +0.259 C 
ATOM      2  N   UNL     1       4.053  -0.017  -8.447  0.00  0.00    -0.248 NA
ATOM      3  C   UNL     1       3.950   1.263  -8.326  0.00  0.00    +0.101 C 
ATOM      4  C   UNL     1       3.072   2.302  -8.913  0.00  0.00    +0.028 A 
ATOM      5  C   UNL     1       2.027   2.284  -9.817  0.00  0.00    +0.012 A 
ATOM      6  C   UNL     1       1.395   3.468 -10.166  0.00  0.00    +0.001 A 
ATOM      7  C   UNL     1       1.810   4.667  -9.614  0.00  0.00    +0.002 A 
ATOM      8  C   UNL     1       2.853   4.703  -8.709  0.00  0.00    +0.028 A 
ATOM      9  C   UNL     1       3.503   3.519  -8.341  0.00  0.00    +0.074 A 
ATOM     10  N   UNL     1       4.533   3.282  -7.492  0.00  0.00    -0.240 NA
ATOM     11  C   UNL     1       4.857   2.020  -7.420  0.00  0.00    +0.152 C 
ATOM     12  C   UNL     1       5.886   1.287  -6.654  0.00  0.00    +0.274 C 
ATOM     13  O   UNL     1       6.638   1.883  -5.908  0.00  0.00    -0.268 OA
ATOM     14  N   UNL     1       5.980  -0.052  -6.792  0.00  0.00    -0.234 N 
ENDROOT
BRANCH  14  15
ATOM     15  C   UNL     1       6.946  -0.763  -6.074  0.00  0.00    +0.043 A 
ATOM     16  C   UNL     1       6.619  -1.349  -4.858  0.00  0.00    +0.024 A 
ATOM     17  C   UNL     1       7.576  -2.051  -4.152  0.00  0.00    +0.002 A 
ATOM     18  C   UNL     1       8.859  -2.171  -4.654  0.00  0.00    +0.004 A 
ATOM     19  C   UNL     1       9.188  -1.588  -5.864  0.00  0.00    -0.046 A 
ATOM     20  C   UNL     1       8.234  -0.889  -6.579  0.00  0.00    -0.026 A 
ATOM     21  C   UNL     1       8.592  -0.260  -7.900  0.00  0.00    +0.046 C 
ATOM     22  C   UNL     1      10.587  -1.721  -6.408  0.00  0.00    +0.044 C 
ENDBRANCH  14  15
BRANCH   1  23
ATOM     23  S   UNL     1       4.199  -2.011  -6.710  0.00  0.00    -0.106 S 
BRANCH  23  24
ATOM     24  C   UNL     1       3.317  -1.047  -5.453  0.00  0.00    +0.168 C 
BRANCH  24  26
ATOM     25  N   UNL     1       1.926  -1.487  -3.455  0.00  0.00    -0.282 N 
ATOM     26  C   UNL     1       2.645  -1.983  -4.482  0.00  0.00    +0.227 C 
ATOM     27  O   UNL     1       2.751  -3.183  -4.624  0.00  0.00    -0.275 OA
ATOM     28  H   UNL     1       1.771  -0.531  -3.388  0.00  0.00    +0.155 HD
BRANCH  25  34
ATOM     29  C   UNL     1       0.284  -1.974  -1.744  0.00  0.00    +0.142 A 
ATOM     30  C   UNL     1      -0.233  -2.835  -0.790  0.00  0.00    +0.047 A 
ATOM     31  C   UNL     1       0.363  -4.062  -0.570  0.00  0.00    +0.004 A 
ATOM     32  C   UNL     1       1.476  -4.435  -1.301  0.00  0.00    +0.002 A 
ATOM     33  C   UNL     1       1.998  -3.583  -2.255  0.00  0.00    +0.027 A 
ATOM     34  C   UNL     1       1.402  -2.351  -2.485  0.00  0.00    +0.076 A 
BRANCH  29  35
ATOM     35  O   UNL     1      -0.302  -0.766  -1.962  0.00  0.00    -0.490 OA
BRANCH  35  37
ATOM     36  C   UNL     1      -1.962   0.941  -1.549  0.00  0.00    +0.048 C 
ATOM     37  C   UNL     1      -1.444  -0.446  -1.165  0.00  0.00    +0.226 C 
ENDBRANCH  35  37
ENDBRANCH  29  35
ENDBRANCH  25  34
ENDBRANCH  24  26
ENDBRANCH  23  24
ENDBRANCH   1  23
TORSDOF 7
