REMARK  Name = ZINC03429412
REMARK  11 active torsions:
REMARK  status: ('A' for Active; 'I' for Inactive)
REMARK    1  A    between atoms: C_4  and  S_11
REMARK    2  A    between atoms: C_5  and  C_7
REMARK    3  A    between atoms: S_11  and  N_14
REMARK    4  A    between atoms: N_14  and  C_15
REMARK    5  A    between atoms: C_15  and  C_16
REMARK    6  A    between atoms: C_16  and  C_17
REMARK    7  A    between atoms: N_19  and  C_20
REMARK    8  A    between atoms: C_20  and  C_21
REMARK    9  A    between atoms: C_21  and  C_22
REMARK   10  A    between atoms: C_25  and  S_28
REMARK   11  A    between atoms: S_28  and  N_31
REMARK                            x       y       z     vdW  Elec       q    Type
REMARK                         _______ _______ _______ _____ _____    ______ ____
ROOT
ATOM      1  C   UNL     1       3.219  -4.241   3.774  0.00  0.00    +0.214 C 
ATOM      2  O   UNL     1       2.137  -4.487   3.285  0.00  0.00    -0.276 OA
ATOM      3  N   UNL     1       3.687  -4.995   4.789  0.00  0.00    -0.315 N 
ATOM      4  H   UNL     1       4.552  -4.798   5.180  0.00  0.00    +0.149 HD
ENDROOT
BRANCH   1   5
ATOM      5  C   UNL     1       4.040  -3.093   3.248  0.00  0.00    +0.112 C 
BRANCH   5   6
ATOM      6  C   UNL     1       3.286  -2.407   2.106  0.00  0.00    +0.115 C 
BRANCH   6   7
ATOM      7  N   UNL     1       4.085  -1.291   1.595  0.00  0.00    -0.189 NA
ATOM      8  H   UNL     1       4.820  -0.939   2.120  0.00  0.00    +0.148 HD
BRANCH   7   9
ATOM      9  S   UNL     1       3.732  -0.629   0.118  0.00  0.00    +0.059 S 
ATOM     10  O   UNL     1       3.637  -1.710  -0.799  0.00  0.00    -0.153 OA
ATOM     11  O   UNL     1       4.636   0.452  -0.069  0.00  0.00    -0.153 OA
BRANCH   9  15
ATOM     12  C   UNL     1      -0.407   1.180   0.418  0.00  0.00    +0.001 A 
ATOM     13  C   UNL     1      -0.181   0.107  -0.423  0.00  0.00    +0.002 A 
ATOM     14  C   UNL     1       1.083  -0.445  -0.515  0.00  0.00    +0.029 A 
ATOM     15  C   UNL     1       2.121   0.076   0.234  0.00  0.00    +0.117 A 
ATOM     16  C   UNL     1       1.895   1.149   1.075  0.00  0.00    +0.081 A 
ATOM     17  C   UNL     1       0.631   1.701   1.168  0.00  0.00    +0.014 A 
BRANCH  16  18
ATOM     18  C   UNL     1       3.027   1.717   1.893  0.00  0.00    +0.419 C 
ATOM     19  F   UNL     1       2.532   2.701   2.755  0.00  0.00    -0.166 F 
ATOM     20  F   UNL     1       3.619   0.695   2.643  0.00  0.00    -0.166 F 
ATOM     21  F   UNL     1       3.982   2.281   1.040  0.00  0.00    -0.166 F 
ENDBRANCH  16  18
ENDBRANCH   9  15
ENDBRANCH   7   9
ENDBRANCH   6   7
ENDBRANCH   5   6
ENDBRANCH   1   5
BRANCH   3  22
ATOM     22  C   UNL     1       2.888  -6.111   5.301  0.00  0.00    +0.109 C 
BRANCH  22  23
ATOM     23  C   UNL     1       3.642  -6.797   6.442  0.00  0.00    +0.054 C 
BRANCH  23  24
ATOM     24  C   UNL     1       2.821  -7.945   6.968  0.00  0.00    -0.046 A 
ATOM     25  C   UNL     1       1.917  -7.736   7.993  0.00  0.00    +0.005 A 
ATOM     26  C   UNL     1       1.163  -8.789   8.476  0.00  0.00    +0.029 A 
ATOM     27  C   UNL     1       1.313 -10.052   7.934  0.00  0.00    +0.105 A 
ATOM     28  C   UNL     1       2.217 -10.261   6.909  0.00  0.00    +0.029 A 
ATOM     29  C   UNL     1       2.967  -9.207   6.423  0.00  0.00    +0.005 A 
BRANCH  27  30
ATOM     30  S   UNL     1       0.354 -11.395   8.550  0.00  0.00    +0.056 S 
ATOM     31  O   UNL     1       1.074 -12.582   8.246  0.00  0.00    -0.153 OA
ATOM     32  O   UNL     1      -0.022 -11.051   9.877  0.00  0.00    -0.153 OA
BRANCH  30  33
ATOM     33  N   UNL     1      -1.043 -11.448   7.662  0.00  0.00    -0.204 NA
ATOM     34  H   UNL     1      -1.192 -10.801   6.954  0.00  0.00    +0.144 HD
ATOM     35  H   UNL     1      -1.711 -12.125   7.849  0.00  0.00    +0.144 HD
ENDBRANCH  30  33
ENDBRANCH  27  30
ENDBRANCH  23  24
ENDBRANCH  22  23
ENDBRANCH   3  22
TORSDOF 11
