REMARK  Name = ZINC65515450
REMARK  9 active torsions:
REMARK  status: ('A' for Active; 'I' for Inactive)
REMARK    1  A    between atoms: C_1  and  S_2
REMARK    2  A    between atoms: S_2  and  C_3
REMARK    3  A    between atoms: C_3  and  C_4
REMARK    4  A    between atoms: C_4  and  C_5
REMARK    5  A    between atoms: C_5  and  C_6
REMARK    6  A    between atoms: C_5  and  N_19
REMARK    7  A    between atoms: N_12  and  C_15
REMARK    8  A    between atoms: C_15  and  C_16
REMARK    9  A    between atoms: C_20  and  C_22
REMARK                            x       y       z     vdW  Elec       q    Type
REMARK                         _______ _______ _______ _____ _____    ______ ____
ROOT
ATOM      1  C   UNL     1       1.792  -3.199  -3.717  0.00  0.00    +0.236 C 
ATOM      2  O   UNL     1       2.827  -3.831  -3.690  0.00  0.00    -0.274 OA
ATOM      3  N   UNL     1       0.608  -3.843  -3.681  0.00  0.00    -0.302 N 
ATOM      4  C   UNL     1      -0.636  -3.048  -3.721  0.00  0.00    +0.106 C 
ATOM      5  C   UNL     1      -1.684  -3.705  -4.637  0.00  0.00    +0.000 C 
ATOM      6  C   UNL     1      -1.000  -4.259  -5.868  0.00  0.00    -0.077 C 
ATOM      7  N   UNL     1      -0.666  -5.664  -5.643  0.00  0.00    +0.386 N 
ATOM      8  C   UNL     1       0.587  -5.888  -5.032  0.00  0.00    -0.059 C 
ATOM      9  C   UNL     1       0.602  -5.290  -3.612  0.00  0.00    +0.089 C 
ATOM     10  H   UNL     1      -1.382  -6.072  -5.060  0.00  0.00    -0.081 HD
ENDROOT
BRANCH   1  11
ATOM     11  C   UNL     1       1.829  -1.694  -3.789  0.00  0.00    +0.160 C 
BRANCH  11  12
ATOM     12  N   UNL     1       3.222  -1.241  -3.816  0.00  0.00    -0.300 N 
ATOM     13  C   UNL     1       3.533  -0.052  -4.369  0.00  0.00    +0.245 C 
ATOM     14  O   UNL     1       2.658   0.645  -4.844  0.00  0.00    -0.270 OA
ATOM     15  H   UNL     1       3.921  -1.797  -3.437  0.00  0.00    +0.150 HD
BRANCH  13  16
ATOM     16  C   UNL     1       4.939   0.406  -4.396  0.00  0.00    +0.037 A 
ATOM     17  C   UNL     1       5.947  -0.394  -3.856  0.00  0.00    +0.013 A 
ATOM     18  C   UNL     1       7.257   0.038  -3.885  0.00  0.00    +0.001 A 
ATOM     19  C   UNL     1       7.572   1.262  -4.448  0.00  0.00    +0.000 A 
ATOM     20  C   UNL     1       6.577   2.060  -4.984  0.00  0.00    +0.001 A 
ATOM     21  C   UNL     1       5.264   1.637  -4.967  0.00  0.00    +0.013 A 
ENDBRANCH  13  16
ENDBRANCH  11  12
BRANCH  11  22
ATOM     22  C   UNL     1       1.126  -1.107  -2.564  0.00  0.00    +0.042 C 
BRANCH  22  23
ATOM     23  C   UNL     1       1.053   0.415  -2.699  0.00  0.00    +0.071 C 
BRANCH  23  25
ATOM     24  C   UNL     1       0.215   2.899  -1.557  0.00  0.00    +0.084 C 
ATOM     25  S   UNL     1       0.219   1.112  -1.246  0.00  0.00    -0.164 S 
ENDBRANCH  23  25
ENDBRANCH  22  23
ENDBRANCH  11  22
ENDBRANCH   1  11
BRANCH   7  26
ATOM     26  C   UNL     1      -0.681  -6.357  -6.938  0.00  0.00    +0.018 C 
BRANCH  26  27
ATOM     27  C   UNL     1      -2.088  -6.385  -7.477  0.00  0.00    +0.194 C 
ATOM     28  O   UNL     1      -3.006  -5.974  -6.798  0.00  0.00    -0.278 OA
ATOM     29  N   UNL     1      -2.327  -6.866  -8.713  0.00  0.00    -0.331 N 
ATOM     30  H   UNL     1      -1.593  -7.194  -9.256  0.00  0.00    +0.145 HD
ATOM     31  H   UNL     1      -3.233  -6.884  -9.060  0.00  0.00    +0.145 HD
ENDBRANCH  26  27
ENDBRANCH   7  26
TORSDOF 8
