REMARK  Name = ZINC50059072
REMARK  12 active torsions:
REMARK  status: ('A' for Active; 'I' for Inactive)
REMARK    1  A    between atoms: C_1  and  C_2
REMARK    2  A    between atoms: C_2  and  C_3
REMARK    3  A    between atoms: C_2  and  C_4
REMARK    4  A    between atoms: C_4  and  N_5
REMARK    5  A    between atoms: C_6  and  C_8
REMARK    6  A    between atoms: C_8  and  N_9
REMARK    7  A    between atoms: N_12  and  C_13
REMARK    8  A    between atoms: C_16  and  C_19
REMARK    9  A    between atoms: C_21  and  C_24
REMARK   10  A    between atoms: C_24  and  C_25
REMARK   11  A    between atoms: C_24  and  C_26
REMARK   12  A    between atoms: C_24  and  C_27
REMARK                            x       y       z     vdW  Elec       q    Type
REMARK                         _______ _______ _______ _____ _____    ______ ____
ROOT
ATOM      1  N   UNL     1      -4.106  -4.614  -0.819  0.00  0.00    -0.291 N 
ATOM      2  C   UNL     1      -4.341  -5.936  -0.932  0.00  0.00    +0.304 C 
ATOM      3  O   UNL     1      -3.573  -6.638  -1.561  0.00  0.00    -0.252 OA
ATOM      4  N   UNL     1      -5.427  -6.480  -0.348  0.00  0.00    -0.269 N 
ATOM      5  H   UNL     1      -4.719  -4.053  -0.317  0.00  0.00    +0.151 HD
ATOM      6  H   UNL     1      -6.003  -5.933   0.209  0.00  0.00    +0.156 HD
ENDROOT
BRANCH   4   7
ATOM      7  C   UNL     1      -5.723  -7.831  -0.545  0.00  0.00    +0.035 A 
ATOM      8  C   UNL     1      -4.693  -8.758  -0.656  0.00  0.00    +0.024 A 
ATOM      9  C   UNL     1      -4.983 -10.092  -0.850  0.00  0.00    +0.013 A 
ATOM     10  C   UNL     1      -6.310 -10.511  -0.936  0.00  0.00    +0.023 A 
ATOM     11  C   UNL     1      -7.341  -9.579  -0.824  0.00  0.00    +0.013 A 
ATOM     12  C   UNL     1      -7.047  -8.247  -0.625  0.00  0.00    +0.024 A 
BRANCH  10  13
ATOM     13  C   UNL     1      -6.624 -11.945  -1.145  0.00  0.00    +0.202 A 
ATOM     14  N   UNL     1      -7.858 -12.471  -1.250  0.00  0.00    -0.191 NA
ATOM     15  C   UNL     1      -7.780 -13.759  -1.430  0.00  0.00    +0.233 A 
ATOM     16  O   UNL     1      -6.487 -14.108  -1.447  0.00  0.00    -0.337 OA
ATOM     17  N   UNL     1      -5.746 -12.910  -1.266  0.00  0.00    -0.056 NA
BRANCH  15  18
ATOM     18  C   UNL     1      -8.948 -14.697  -1.590  0.00  0.00    +0.041 C 
ATOM     19  C   UNL     1      -9.769 -14.286  -2.813  0.00  0.00    +0.020 C 
ATOM     20  C   UNL     1      -8.432 -16.125  -1.779  0.00  0.00    +0.020 C 
ATOM     21  C   UNL     1      -9.828 -14.635  -0.340  0.00  0.00    +0.020 C 
ENDBRANCH  15  18
ENDBRANCH  10  13
ENDBRANCH   4   7
BRANCH   1  22
ATOM     22  C   UNL     1      -2.925  -4.022  -1.453  0.00  0.00    +0.201 C 
BRANCH  22  24
ATOM     23  N   UNL     1      -1.893  -1.784  -1.666  0.00  0.00    -0.314 N 
ATOM     24  C   UNL     1      -2.896  -2.541  -1.178  0.00  0.00    +0.230 C 
ATOM     25  O   UNL     1      -3.775  -2.030  -0.516  0.00  0.00    -0.274 OA
ATOM     26  H   UNL     1      -1.190  -2.193  -2.195  0.00  0.00    +0.149 HD
BRANCH  23  27
ATOM     27  C   UNL     1      -1.864  -0.344  -1.398  0.00  0.00    +0.107 C 
BRANCH  27  29
ATOM     28  C   UNL     1      -0.666   1.793  -1.887  0.00  0.00    +0.009 C 
ATOM     29  C   UNL     1      -0.631   0.273  -2.061  0.00  0.00    -0.000 C 
ATOM     30  C   UNL     1       0.633  -0.286  -1.406  0.00  0.00    +0.009 C 
ENDBRANCH  27  29
ENDBRANCH  23  27
ENDBRANCH  22  24
ENDBRANCH   1  22
TORSDOF 7
