REMARK  Name = ZINC30499586
REMARK  12 active torsions:
REMARK  status: ('A' for Active; 'I' for Inactive)
REMARK    1  A    between atoms: C_1  and  C_2
REMARK    2  A    between atoms: C_2  and  C_3
REMARK    3  A    between atoms: N_5  and  C_6
REMARK    4  A    between atoms: C_9  and  C_12
REMARK    5  A    between atoms: C_12  and  C_14
REMARK    6  A    between atoms: C_12  and  N_15
REMARK    7  A    between atoms: N_15  and  C_16
REMARK    8  A    between atoms: C_16  and  C_18
REMARK    9  A    between atoms: C_16  and  C_19
REMARK   10  A    between atoms: N_21  and  C_22
REMARK   11  A    between atoms: C_24  and  C_29
REMARK   12  A    between atoms: C_27  and  C_28
REMARK                            x       y       z     vdW  Elec       q    Type
REMARK                         _______ _______ _______ _____ _____    ______ ____
ROOT
ATOM      1  N   UNL     1      -4.805   0.060   0.337  0.00  0.00    +0.391 N 
ATOM      2  H   UNL     1      -4.586   0.951  -0.270  0.00  0.00    -0.084 HD
ATOM      3  H   UNL     1      -4.907   0.352   1.392  0.00  0.00    -0.084 HD
ENDROOT
BRANCH   1   4
ATOM      4  C   UNL     1      -6.057  -0.552  -0.126  0.00  0.00    -0.043 C 
ATOM      5  C   UNL     1      -6.173  -0.392  -1.643  0.00  0.00    -0.009 C 
BRANCH   4   9
ATOM      6  C   UNL     1      -9.369   1.375   1.767  0.00  0.00    +0.033 A 
ATOM      7  C   UNL     1      -9.376  -0.002   1.587  0.00  0.00    +0.023 A 
ATOM      8  C   UNL     1      -8.304  -0.621   0.974  0.00  0.00    +0.004 A 
ATOM      9  C   UNL     1      -7.225   0.128   0.541  0.00  0.00    -0.062 A 
ATOM     10  C   UNL     1      -7.213   1.498   0.725  0.00  0.00    +0.004 A 
ATOM     11  C   UNL     1      -8.284   2.124   1.332  0.00  0.00    +0.023 A 
BRANCH   6  14
ATOM     12  C   UNL     1     -11.113   1.385   3.386  0.00  0.00    +0.217 C 
ATOM     13  O   UNL     1     -10.821   0.248   3.690  0.00  0.00    -0.275 OA
ATOM     14  N   UNL     1     -10.453   2.006   2.388  0.00  0.00    -0.286 N 
ATOM     15  H   UNL     1     -10.766   3.009   2.062  0.00  0.00    +0.155 HD
BRANCH  12  17
ATOM     16  C   UNL     1     -12.794   1.183   5.198  0.00  0.00    +0.013 C 
ATOM     17  C   UNL     1     -12.214   2.104   4.123  0.00  0.00    +0.093 C 
ENDBRANCH  12  17
ENDBRANCH   6  14
ENDBRANCH   4   9
ENDBRANCH   1   4
BRANCH   1  18
ATOM     18  C   UNL     1      -3.683  -0.880   0.215  0.00  0.00    +0.014 C 
ATOM     19  C   UNL     1      -3.629  -1.773   1.457  0.00  0.00    -0.004 C 
BRANCH  18  20
ATOM     20  C   UNL     1      -2.393  -0.111   0.093  0.00  0.00    +0.203 C 
ATOM     21  O   UNL     1      -2.407   1.102   0.107  0.00  0.00    -0.277 OA
ATOM     22  N   UNL     1      -1.224  -0.770  -0.030  0.00  0.00    -0.287 N 
ATOM     23  H   UNL     1      -1.218  -1.866  -0.118  0.00  0.00    +0.155 HD
BRANCH  22  24
ATOM     24  C   UNL     1      -0.019  -0.059  -0.047  0.00  0.00    +0.036 A 
ATOM     25  C   UNL     1       0.041   1.196  -0.639  0.00  0.00    +0.027 A 
ATOM     26  C   UNL     1       1.232   1.894  -0.653  0.00  0.00    -0.049 A 
ATOM     27  C   UNL     1       2.365   1.345  -0.080  0.00  0.00    +0.004 A 
ATOM     28  C   UNL     1       2.308   0.097   0.511  0.00  0.00    +0.005 A 
ATOM     29  C   UNL     1       1.120  -0.607   0.528  0.00  0.00    -0.029 A 
ATOM     30  C   UNL     1       1.060  -1.969   1.171  0.00  0.00    +0.045 C 
ATOM     31  C   UNL     1       1.298   3.256  -1.296  0.00  0.00    +0.044 C 
ENDBRANCH  22  24
ENDBRANCH  18  20
ENDBRANCH   1  18
TORSDOF 7
