REMARK  Name = ZINC39575954
REMARK  7 active torsions:
REMARK  status: ('A' for Active; 'I' for Inactive)
REMARK    1  A    between atoms: C_4  and  C_7
REMARK    2  A    between atoms: C_9  and  C_13
REMARK    3  A    between atoms: C_17  and  S_21
REMARK    4  A    between atoms: N_19  and  N_20
REMARK    5  A    between atoms: S_21  and  C_22
REMARK    6  A    between atoms: C_22  and  C_23
REMARK    7  A    between atoms: C_27  and  C_29
REMARK                            x       y       z     vdW  Elec       q    Type
REMARK                         _______ _______ _______ _____ _____    ______ ____
ROOT
ATOM      1  C   UNL     1       5.782  -3.012   1.181  0.00  0.00    +0.185 C 
ATOM      2  N   UNL     1       5.516  -2.219   2.410  0.00  0.00    -0.234 NA
ATOM      3  N   UNL     1       6.468  -2.740   3.396  0.00  0.00    -0.228 NA
ATOM      4  C   UNL     1       7.583  -3.342   2.637  0.00  0.00    +0.214 C 
ATOM      5  N   UNL     1       7.260  -3.171   1.200  0.00  0.00    -0.197 NA
ATOM      6  H   UNL     1       5.668  -1.235   2.246  0.00  0.00    +0.143 HD
ATOM      7  H   UNL     1       6.799  -2.005   4.003  0.00  0.00    +0.143 HD
ENDROOT
BRANCH   1  10
ATOM      8  C   UNL     1       3.699  -0.689  -0.037  0.00  0.00    +0.091 C 
ATOM      9  C   UNL     1       3.832  -2.029  -0.051  0.00  0.00    +0.034 C 
ATOM     10  C   UNL     1       5.335  -2.245  -0.065  0.00  0.00    +0.187 C 
ATOM     11  N   UNL     1       5.871  -0.874  -0.056  0.00  0.00    -0.176 NA
ATOM     12  N   UNL     1       4.919  -0.090  -0.047  0.00  0.00    -0.154 NA
BRANCH   8  16
ATOM     13  C   UNL     1      -0.017   1.379   0.010  0.00  0.00    +0.000 A 
ATOM     14  C   UNL     1       1.169   2.092   0.002  0.00  0.00    +0.001 A 
ATOM     15  C   UNL     1       2.377   1.426  -0.013  0.00  0.00    +0.010 A 
ATOM     16  C   UNL     1       2.402   0.033  -0.021  0.00  0.00    +0.002 A 
ATOM     17  C   UNL     1       1.205  -0.680  -0.013  0.00  0.00    +0.010 A 
ATOM     18  C   UNL     1       0.002  -0.004   0.002  0.00  0.00    +0.001 A 
ENDBRANCH   8  16
ENDBRANCH   1  10
BRANCH   5  19
ATOM     19  N   UNL     1       7.668  -4.335   0.428  0.00  0.00    -0.264 NA
ATOM     20  H   UNL     1       8.671  -4.443   0.440  0.00  0.00    +0.137 HD
ATOM     21  H   UNL     1       7.210  -5.169   0.762  0.00  0.00    +0.137 HD
ENDBRANCH   5  19
BRANCH   4  22
ATOM     22  S   UNL     1       9.136  -2.491   3.034  0.00  0.00    -0.119 S 
BRANCH  22  23
ATOM     23  C   UNL     1       8.817  -0.764   2.583  0.00  0.00    +0.107 C 
BRANCH  23  24
ATOM     24  C   UNL     1      10.044   0.064   2.866  0.00  0.00    -0.037 A 
ATOM     25  C   UNL     1      10.209   0.654   4.106  0.00  0.00    +0.004 A 
ATOM     26  C   UNL     1      11.334   1.413   4.366  0.00  0.00    +0.001 A 
ATOM     27  C   UNL     1      12.296   1.582   3.387  0.00  0.00    +0.012 A 
ATOM     28  C   UNL     1      12.132   0.991   2.149  0.00  0.00    +0.055 A 
ATOM     29  C   UNL     1      11.008   0.228   1.890  0.00  0.00    +0.016 A 
BRANCH  28  30
ATOM     30  C   UNL     1      13.180   1.175   1.081  0.00  0.00    +0.417 C 
ATOM     31  F   UNL     1      14.214   1.976   1.577  0.00  0.00    -0.166 F 
ATOM     32  F   UNL     1      13.693  -0.073   0.712  0.00  0.00    -0.166 F 
ATOM     33  F   UNL     1      12.606   1.792  -0.035  0.00  0.00    -0.166 F 
ENDBRANCH  28  30
ENDBRANCH  23  24
ENDBRANCH  22  23
ENDBRANCH   4  22
TORSDOF 7
