REMARK  Name = ZINC40058115
REMARK  8 active torsions:
REMARK  status: ('A' for Active; 'I' for Inactive)
REMARK    1  A    between atoms: C_1  and  C_2
REMARK    2  A    between atoms: C_2  and  O_3
REMARK    3  A    between atoms: O_3  and  C_4
REMARK    4  A    between atoms: C_6  and  C_11
REMARK    5  A    between atoms: C_9  and  O_10
REMARK    6  A    between atoms: C_17  and  C_35
REMARK    7  A    between atoms: C_19  and  C_34
REMARK    8  A    between atoms: C_31  and  C_33
REMARK                            x       y       z     vdW  Elec       q    Type
REMARK                         _______ _______ _______ _____ _____    ______ ____
ROOT
ATOM      1  C   UNL     1       0.654  -4.954  -0.018  0.00  0.00    +0.151 C 
ATOM      2  C   UNL     1       0.913  -5.484   1.354  0.00  0.00    +0.072 A 
ATOM      3  C   UNL     1       1.232  -4.798   2.610  0.00  0.00    +0.199 A 
ATOM      4  O   UNL     1       1.166  -3.589   2.746  0.00  0.00    -0.287 OA
ATOM      5  C   UNL     1       1.644  -5.718   3.701  0.00  0.00    +0.067 A 
ATOM      6  C   UNL     1       2.168  -5.213   4.890  0.00  0.00    -0.036 A 
ATOM      7  C   UNL     1       2.547  -6.073   5.883  0.00  0.00    +0.007 A 
ATOM      8  C   UNL     1       2.412  -7.443   5.710  0.00  0.00    -0.047 A 
ATOM      9  C   UNL     1       1.895  -7.959   4.543  0.00  0.00    +0.050 A 
ATOM     10  C   UNL     1       1.498  -7.102   3.516  0.00  0.00    +0.140 A 
ATOM     11  O   UNL     1       0.983  -7.630   2.382  0.00  0.00    -0.450 OA
ATOM     12  C   UNL     1       0.811  -6.845   1.300  0.00  0.00    +0.199 A 
ATOM     13  C   UNL     1       0.495  -7.231  -0.085  0.00  0.00    +0.288 C 
ATOM     14  O   UNL     1       0.341  -8.373  -0.472  0.00  0.00    -0.266 OA
ATOM     15  N   UNL     1       0.401  -6.132  -0.864  0.00  0.00    -0.238 N 
ATOM     16  C   UNL     1       0.114  -6.115  -2.227  0.00  0.00    +0.129 A 
ATOM     17  C   UNL     1       0.157  -4.912  -2.924  0.00  0.00    +0.044 A 
ATOM     18  C   UNL     1      -0.130  -4.909  -4.278  0.00  0.00    +0.005 A 
ATOM     19  C   UNL     1      -0.451  -6.114  -4.890  0.00  0.00    +0.023 A 
ATOM     20  C   UNL     1      -0.474  -7.270  -4.136  0.00  0.00    +0.040 A 
ATOM     21  N   UNL     1      -0.190  -7.243  -2.847  0.00  0.00    -0.237 NA
ATOM     22  C   UNL     1      -0.822  -8.580  -4.794  0.00  0.00    +0.065 C 
ATOM     23  C   UNL     1       2.836  -8.378   6.813  0.00  0.00    +0.044 C 
ATOM     24  C   UNL     1       2.317  -3.725   5.080  0.00  0.00    +0.044 C 
ENDROOT
BRANCH   1  27
ATOM     25  C   UNL     1      -1.498  -1.849   0.006  0.00  0.00    +0.162 A 
ATOM     26  C   UNL     1      -0.389  -2.680  -0.003  0.00  0.00    +0.055 A 
ATOM     27  C   UNL     1      -0.553  -4.052  -0.008  0.00  0.00    -0.018 A 
ATOM     28  C   UNL     1      -1.823  -4.600  -0.005  0.00  0.00    +0.009 A 
ATOM     29  C   UNL     1      -2.934  -3.777   0.004  0.00  0.00    +0.049 A 
ATOM     30  C   UNL     1      -2.776  -2.400   0.016  0.00  0.00    +0.158 A 
BRANCH  30  31
ATOM     31  O   UNL     1      -3.868  -1.589   0.030  0.00  0.00    -0.503 OA
ATOM     32  H   UNL     1      -4.192  -1.350  -0.849  0.00  0.00    +0.292 HD
ENDBRANCH  30  31
BRANCH  25  33
ATOM     33  O   UNL     1      -1.339  -0.499   0.012  0.00  0.00    -0.489 OA
BRANCH  33  35
ATOM     34  C   UNL     1      -0.019   1.526   0.010  0.00  0.00    +0.048 C 
ATOM     35  C   UNL     1       0.002  -0.004   0.002  0.00  0.00    +0.226 C 
ENDBRANCH  33  35
ENDBRANCH  25  33
ENDBRANCH   1  27
TORSDOF 4
