REMARK  Name = ZINC36529402
REMARK  12 active torsions:
REMARK  status: ('A' for Active; 'I' for Inactive)
REMARK    1  A    between atoms: C_1  and  C_2
REMARK    2  A    between atoms: C_2  and  C_3
REMARK    3  A    between atoms: C_2  and  C_4
REMARK    4  A    between atoms: C_2  and  N_5
REMARK    5  A    between atoms: C_6  and  C_8
REMARK    6  A    between atoms: C_8  and  C_10
REMARK    7  A    between atoms: C_8  and  N_19
REMARK    8  A    between atoms: C_13  and  N_16
REMARK    9  A    between atoms: N_16  and  C_17
REMARK   10  A    between atoms: N_16  and  C_18
REMARK   11  A    between atoms: N_19  and  C_20
REMARK   12  A    between atoms: C_21  and  C_23
REMARK                            x       y       z     vdW  Elec       q    Type
REMARK                         _______ _______ _______ _____ _____    ______ ____
ROOT
ATOM      1  C   UNL     1       2.697  -0.848  -2.297  0.00  0.00    +0.192 C 
ENDROOT
BRANCH   1   2
ATOM      2  C   UNL     1       1.480  -0.461  -3.098  0.00  0.00    -0.018 A 
ATOM      3  C   UNL     1       0.885  -1.384  -3.938  0.00  0.00    +0.008 A 
ATOM      4  C   UNL     1      -0.230  -1.032  -4.673  0.00  0.00    +0.023 A 
ATOM      5  C   UNL     1      -0.753   0.250  -4.568  0.00  0.00    +0.029 A 
ATOM      6  C   UNL     1      -0.152   1.175  -3.724  0.00  0.00    +0.023 A 
ATOM      7  C   UNL     1       0.959   0.815  -2.987  0.00  0.00    +0.008 A 
BRANCH   5   8
ATOM      8  N   UNL     1      -1.880   0.610  -5.311  0.00  0.00    -0.336 N 
ATOM      9  C   UNL     1      -2.583  -0.398  -6.110  0.00  0.00    +0.129 C 
ATOM     10  C   UNL     1      -2.361   1.993  -5.290  0.00  0.00    +0.129 C 
ENDBRANCH   5   8
ENDBRANCH   1   2
BRANCH   1  12
ATOM     11  N   UNL     1       1.385  -1.871  -0.467  0.00  0.00    -0.309 N 
ATOM     12  C   UNL     1       2.321  -0.978  -0.844  0.00  0.00    +0.238 C 
ATOM     13  O   UNL     1       2.861  -0.278  -0.013  0.00  0.00    -0.273 OA
ATOM     14  H   UNL     1       0.953  -2.431  -1.131  0.00  0.00    +0.149 HD
BRANCH  11  16
ATOM     15  C   UNL     1       0.479  -0.659   1.455  0.00  0.00    +0.031 C 
ATOM     16  C   UNL     1       1.020  -1.998   0.946  0.00  0.00    +0.026 C 
ATOM     17  C   UNL     1       2.255  -2.391   1.759  0.00  0.00    +0.031 C 
ATOM     18  C   UNL     1      -0.056  -3.074   1.101  0.00  0.00    +0.031 C 
ENDBRANCH  11  16
ENDBRANCH   1  12
BRANCH   1  19
ATOM     19  N   UNL     1       3.727   0.182  -2.445  0.00  0.00    -0.283 N 
ATOM     20  C   UNL     1       3.491   1.534  -1.932  0.00  0.00    +0.133 C 
ATOM     21  C   UNL     1       4.893  -0.113  -3.054  0.00  0.00    +0.283 C 
ATOM     22  O   UNL     1       5.082  -1.230  -3.499  0.00  0.00    -0.267 OA
BRANCH  21  23
ATOM     23  C   UNL     1       5.935   0.912  -3.179  0.00  0.00    +0.189 A 
ATOM     24  C   UNL     1       7.196   0.719  -3.667  0.00  0.00    +0.054 A 
ATOM     25  C   UNL     1       7.846   1.961  -3.606  0.00  0.00    +0.042 A 
ATOM     26  C   UNL     1       6.965   2.847  -3.090  0.00  0.00    +0.196 A 
ATOM     27  O   UNL     1       5.813   2.212  -2.839  0.00  0.00    -0.458 OA
ENDBRANCH  21  23
ENDBRANCH   1  19
TORSDOF 6
