REMARK  Name = ZINC37552581
REMARK  6 active torsions:
REMARK  status: ('A' for Active; 'I' for Inactive)
REMARK    1  A    between atoms: C_3  and  C_17
REMARK    2  A    between atoms: C_5  and  N_7
REMARK    3  A    between atoms: N_7  and  S_8
REMARK    4  A    between atoms: S_8  and  C_11
REMARK    5  A    between atoms: C_18  and  C_19
REMARK    6  A    between atoms: C_19  and  O_20
REMARK                            x       y       z     vdW  Elec       q    Type
REMARK                         _______ _______ _______ _____ _____    ______ ____
ROOT
ATOM      1  C   UNL     1      -0.017   1.380   0.010  0.00  0.00    +0.006 A 
ATOM      2  C   UNL     1       1.191   2.061   0.002  0.00  0.00    +0.037 A 
ATOM      3  C   UNL     1       2.380   1.335  -0.013  0.00  0.00    +0.116 A 
ATOM      4  N   UNL     1       2.362   0.006  -0.021  0.00  0.00    -0.220 NA
ATOM      5  C   UNL     1       1.225  -0.670  -0.013  0.00  0.00    +0.164 A 
ATOM      6  C   UNL     1       0.002  -0.004   0.002  0.00  0.00    +0.047 A 
ENDROOT
BRANCH   3   7
ATOM      7  C   UNL     1       3.634   2.027  -0.022  0.00  0.00    -0.044 C 
ATOM      8  C   UNL     1       4.661   2.595  -0.029  0.00  0.00    -0.068 C 
BRANCH   8   9
ATOM      9  C   UNL     1       5.950   3.307  -0.038  0.00  0.00    +0.244 C 
BRANCH   9  10
ATOM     10  O   UNL     1       7.018   2.357  -0.054  0.00  0.00    -0.383 OA
ATOM     11  H   UNL     1       7.899   2.757  -0.060  0.00  0.00    +0.211 HD
ENDBRANCH   9  10
ENDBRANCH   8   9
ENDBRANCH   3   7
BRANCH   5  12
ATOM     12  N   UNL     1       1.251  -2.059  -0.021  0.00  0.00    -0.077 NA
BRANCH  12  13
ATOM     13  S   UNL     1       2.700  -2.860  -0.040  0.00  0.00    +0.099 S 
ATOM     14  O   UNL     1       3.310  -2.567  -1.290  0.00  0.00    -0.148 OA
ATOM     15  O   UNL     1       3.334  -2.582   1.201  0.00  0.00    -0.148 OA
BRANCH  13  16
ATOM     16  C   UNL     1       2.342  -4.585  -0.046  0.00  0.00    +0.149 A 
ATOM     17  C   UNL     1       2.164  -5.416  -1.102  0.00  0.00    +0.038 A 
ATOM     18  C   UNL     1       1.888  -6.750  -0.867  0.00  0.00    +0.030 A 
ATOM     19  C   UNL     1       1.804  -7.188   0.414  0.00  0.00    +0.080 A 
ATOM     20  S   UNL     1       2.127  -5.694   1.336  0.00  0.00    -0.057 S 
ATOM     21 CL   UNL     1       1.475  -8.787   1.004  0.00  0.00    -0.076 Cl
ENDBRANCH  13  16
ENDBRANCH  12  13
ENDBRANCH   5  12
TORSDOF 6
