REMARK  Name = ZINC06635086
REMARK  10 active torsions:
REMARK  status: ('A' for Active; 'I' for Inactive)
REMARK    1  A    between atoms: C_1  and  C_2
REMARK    2  A    between atoms: C_2  and  C_3
REMARK    3  A    between atoms: C_3  and  C_4
REMARK    4  A    between atoms: C_4  and  C_5
REMARK    5  A    between atoms: C_5  and  C_6
REMARK    6  A    between atoms: N_8  and  C_9
REMARK    7  A    between atoms: C_9  and  N_11
REMARK    8  A    between atoms: N_11  and  C_12
REMARK    9  A    between atoms: C_13  and  C_23
REMARK   10  A    between atoms: C_18  and  C_22
REMARK                            x       y       z     vdW  Elec       q    Type
REMARK                         _______ _______ _______ _____ _____    ______ ____
ROOT
ATOM      1  C   UNL     1       0.279   0.877  -7.156  0.00  0.00    +0.084 A 
ATOM      2  C   UNL     1      -0.058   1.100  -8.484  0.00  0.00    +0.068 A 
ATOM      3  C   UNL     1       0.799   0.517  -9.502  0.00  0.00    -0.023 A 
ATOM      4  C   UNL     1       1.843  -0.200  -9.032  0.00  0.00    -0.004 A 
ATOM      5  S   UNL     1       1.704  -0.103  -7.270  0.00  0.00    -0.077 S 
ATOM      6  C   UNL     1       2.884  -0.914  -9.839  0.00  0.00    +0.046 C 
ATOM      7  C   UNL     1       2.809  -0.405 -11.285  0.00  0.00    -0.009 C 
ATOM      8  C   UNL     1       1.346  -0.415 -11.737  0.00  0.00    +0.008 C 
ATOM      9  C   UNL     1       0.566   0.675 -10.999  0.00  0.00    +0.037 C 
ATOM     10  C   UNL     1       3.633  -1.319 -12.194  0.00  0.00    +0.008 C 
ENDROOT
BRANCH   2  11
ATOM     11  C   UNL     1      -1.233   1.898  -8.846  0.00  0.00    +0.244 C 
ATOM     12  O   UNL     1      -1.128   3.101  -9.001  0.00  0.00    -0.270 OA
ATOM     13  N   UNL     1      -2.430   1.300  -9.007  0.00  0.00    -0.325 N 
ATOM     14  H   UNL     1      -2.514   0.342  -8.884  0.00  0.00    +0.145 HD
ATOM     15  H   UNL     1      -3.208   1.828  -9.247  0.00  0.00    +0.145 HD
ENDBRANCH   2  11
BRANCH   1  16
ATOM     16  N   UNL     1      -0.369   1.324  -6.016  0.00  0.00    -0.291 N 
ATOM     17  H   UNL     1      -1.166   1.871  -6.095  0.00  0.00    +0.154 HD
BRANCH  16  18
ATOM     18  C   UNL     1       0.107   0.998  -4.798  0.00  0.00    +0.141 C 
ATOM     19  S   UNL     1       1.514   0.032  -4.660  0.00  0.00    -0.018 S 
BRANCH  18  22
ATOM     20  C   UNL     1      -0.047   1.107  -2.471  0.00  0.00    +0.218 C 
ATOM     21  O   UNL     1       0.949   0.422  -2.373  0.00  0.00    -0.275 OA
ATOM     22  N   UNL     1      -0.524   1.433  -3.689  0.00  0.00    -0.268 N 
ATOM     23  H   UNL     1      -1.321   1.980  -3.768  0.00  0.00    +0.156 HD
BRANCH  20  24
ATOM     24  C   UNL     1      -0.753   1.593  -1.232  0.00  0.00    +0.096 C 
BRANCH  24  25
ATOM     25  C   UNL     1      -0.013   1.086   0.008  0.00  0.00    +0.009 C 
BRANCH  25  26
ATOM     26  C   UNL     1      -0.729   1.579   1.267  0.00  0.00    +0.000 C 
BRANCH  26  28
ATOM     27  C   UNL     1      -0.705   1.566   3.765  0.00  0.00    +0.004 C 
ATOM     28  C   UNL     1       0.011   1.072   2.506  0.00  0.00    -0.003 C 
ENDBRANCH  26  28
ENDBRANCH  25  26
ENDBRANCH  24  25
ENDBRANCH  20  24
ENDBRANCH  18  22
ENDBRANCH  16  18
ENDBRANCH   1  16
TORSDOF 8
