REMARK  Name = ZINC16047788
REMARK  8 active torsions:
REMARK  status: ('A' for Active; 'I' for Inactive)
REMARK    1  A    between atoms: C_1  and  C_2
REMARK    2  A    between atoms: C_2  and  C_3
REMARK    3  A    between atoms: C_9  and  S_11
REMARK    4  A    between atoms: S_11  and  C_12
REMARK    5  A    between atoms: C_12  and  C_13
REMARK    6  A    between atoms: C_17  and  O_20
REMARK    7  A    between atoms: O_20  and  C_21
REMARK    8  A    between atoms: C_21  and  C_23
REMARK                            x       y       z     vdW  Elec       q    Type
REMARK                         _______ _______ _______ _____ _____    ______ ____
ROOT
ATOM      1  C   UNL     1      -4.002  10.108   0.099  0.00  0.00    +0.119 A 
ATOM      2  C   UNL     1      -5.175   9.445   0.153  0.00  0.00    +0.097 A 
ATOM      3  C   UNL     1      -5.164   8.028   0.146  0.00  0.00    +0.227 A 
ATOM      4  O   UNL     1      -6.206   7.392   0.194  0.00  0.00    -0.284 OA
ATOM      5  C   UNL     1      -3.907   7.366   0.082  0.00  0.00    +0.213 A 
ATOM      6  C   UNL     1      -2.779   8.110   0.035  0.00  0.00    +0.245 A 
ATOM      7  O   UNL     1      -2.839   9.449   0.039  0.00  0.00    -0.463 OA
ENDROOT
BRANCH   1   8
ATOM      8  C   UNL     1      -4.000  11.615   0.105  0.00  0.00    +0.150 C 
BRANCH   8   9
ATOM      9  S   UNL     1      -3.917  12.212   1.816  0.00  0.00    -0.089 S 
BRANCH   9  16
ATOM     10  C   UNL     1      -3.951  18.876   1.031  0.00  0.00    +0.218 C 
ATOM     11  O   UNL     1      -4.007  18.478  -0.113  0.00  0.00    -0.275 OA
ATOM     12  N   UNL     1      -3.902  17.994   2.049  0.00  0.00    -0.263 N 
ATOM     13  C   UNL     1      -3.916  16.626   1.787  0.00  0.00    +0.189 A 
ATOM     14  N   UNL     1      -3.973  15.982   0.633  0.00  0.00    -0.125 NA
ATOM     15  N   UNL     1      -3.977  14.723   0.570  0.00  0.00    -0.133 NA
ATOM     16  C   UNL     1      -3.924  13.966   1.656  0.00  0.00    +0.160 A 
ATOM     17  S   UNL     1      -3.869  15.238   2.916  0.00  0.00    -0.024 S 
ATOM     18  H   UNL     1      -3.857  18.312   2.965  0.00  0.00    +0.157 HD
BRANCH  10  20
ATOM     19  C   UNL     1      -3.999  21.129  -0.004  0.00  0.00    +0.013 C 
ATOM     20  C   UNL     1      -3.936  20.356   1.315  0.00  0.00    +0.093 C 
ENDBRANCH  10  20
ENDBRANCH   9  16
ENDBRANCH   8   9
ENDBRANCH   1   8
BRANCH   5  21
ATOM     21  O   UNL     1      -3.839   6.007   0.073  0.00  0.00    -0.415 OA
BRANCH  21  22
ATOM     22  C   UNL     1      -3.951   5.397  -1.124  0.00  0.00    +0.345 C 
ATOM     23  O   UNL     1      -4.011   6.060  -2.141  0.00  0.00    -0.245 OA
BRANCH  22  24
ATOM     24  C   UNL     1      -4.001   3.927  -1.199  0.00  0.00    +0.067 A 
ATOM     25  C   UNL     1      -3.815   3.152  -0.060  0.00  0.00    +0.015 A 
ATOM     26  C   UNL     1      -3.862   1.766  -0.134  0.00  0.00    +0.001 A 
ATOM     27  C   UNL     1      -4.089   1.117  -1.309  0.00  0.00    +0.008 A 
ATOM     28  C   UNL     1      -4.291   1.837  -2.498  0.00  0.00    -0.017 A 
ATOM     29  C   UNL     1      -4.245   3.252  -2.472  0.00  0.00    -0.004 A 
ATOM     30  C   UNL     1      -4.441   3.973  -3.656  0.00  0.00    +0.009 A 
ATOM     31  C   UNL     1      -4.667   3.305  -4.822  0.00  0.00    +0.001 A 
ATOM     32  C   UNL     1      -4.706   1.913  -4.853  0.00  0.00    +0.001 A 
ATOM     33  C   UNL     1      -4.521   1.181  -3.720  0.00  0.00    +0.008 A 
ENDBRANCH  22  24
ENDBRANCH  21  22
ENDBRANCH   5  21
TORSDOF 7
