REMARK  Name = ZINC49060781
REMARK  7 active torsions:
REMARK  status: ('A' for Active; 'I' for Inactive)
REMARK    1  A    between atoms: C_3  and  N_21
REMARK    2  A    between atoms: C_6  and  C_7
REMARK    3  A    between atoms: C_7  and  C_9
REMARK    4  A    between atoms: C_7  and  O_20
REMARK    5  A    between atoms: C_9  and  N_10
REMARK    6  A    between atoms: N_10  and  S_11
REMARK    7  A    between atoms: S_11  and  C_14
REMARK                            x       y       z     vdW  Elec       q    Type
REMARK                         _______ _______ _______ _____ _____    ______ ____
ROOT
ATOM      1  C   UNL     1      -1.294  -0.774   0.011  0.00  0.00    +0.160 C 
ENDROOT
BRANCH   1   7
ATOM      2  C   UNL     1      -0.017   1.379   0.010  0.00  0.00    +0.008 A 
ATOM      3  C   UNL     1       1.169   2.087   0.002  0.00  0.00    +0.023 A 
ATOM      4  C   UNL     1       2.381   1.409  -0.013  0.00  0.00    +0.025 A 
ATOM      5  C   UNL     1       2.396   0.020  -0.021  0.00  0.00    +0.023 A 
ATOM      6  C   UNL     1       1.207  -0.682  -0.013  0.00  0.00    +0.008 A 
ATOM      7  C   UNL     1       0.002  -0.004   0.002  0.00  0.00    -0.018 A 
BRANCH   4   8
ATOM      8  N   UNL     1       3.582   2.122  -0.021  0.00  0.00    -0.358 N 
ATOM      9  H   UNL     1       3.570   3.092  -0.016  0.00  0.00    +0.142 HD
ATOM     10  H   UNL     1       4.428   1.647  -0.032  0.00  0.00    +0.142 HD
ENDBRANCH   4   8
ENDBRANCH   1   7
BRANCH   1  11
ATOM     11  O   UNL     1      -1.147  -1.962  -0.770  0.00  0.00    -0.386 OA
ATOM     12  H   UNL     1      -0.458  -2.560  -0.450  0.00  0.00    +0.210 HD
ENDBRANCH   1  11
BRANCH   1  13
ATOM     13  C   UNL     1      -1.654  -1.150   1.449  0.00  0.00    +0.142 C 
BRANCH  13  14
ATOM     14  N   UNL     1      -2.913  -1.898   1.458  0.00  0.00    -0.187 NA
ATOM     15  H   UNL     1      -3.485  -1.894   0.674  0.00  0.00    +0.148 HD
BRANCH  14  16
ATOM     16  S   UNL     1      -3.361  -2.750   2.805  0.00  0.00    +0.066 S 
ATOM     17  O   UNL     1      -4.623  -3.335   2.515  0.00  0.00    -0.153 OA
ATOM     18  O   UNL     1      -2.233  -3.523   3.191  0.00  0.00    -0.153 OA
BRANCH  16  19
ATOM     19  C   UNL     1      -3.634  -1.580   4.094  0.00  0.00    +0.156 A 
ATOM     20  C   UNL     1      -4.009  -1.797   5.379  0.00  0.00    +0.051 A 
ATOM     21  C   UNL     1      -4.163  -0.713   6.224  0.00  0.00    +0.025 A 
ATOM     22  C   UNL     1      -3.936   0.533   5.743  0.00  0.00    +0.048 A 
ATOM     23  S   UNL     1      -3.481   0.199   4.050  0.00  0.00    -0.076 S 
ATOM     24 BR   UNL     1      -4.316  -3.554   6.006  0.00  0.00    -0.048 Br
ENDBRANCH  16  19
ENDBRANCH  14  16
ENDBRANCH  13  14
ENDBRANCH   1  13
TORSDOF 7
