REMARK  Name = ZINC08721617
REMARK  13 active torsions:
REMARK  status: ('A' for Active; 'I' for Inactive)
REMARK    1  A    between atoms: C_1  and  C_2
REMARK    2  A    between atoms: C_2  and  C_3
REMARK    3  A    between atoms: C_3  and  O_4
REMARK    4  A    between atoms: O_4  and  C_5
REMARK    5  A    between atoms: C_8  and  C_14
REMARK    6  A    between atoms: C_10  and  O_11
REMARK    7  A    between atoms: O_11  and  C_12
REMARK    8  A    between atoms: C_12  and  C_13
REMARK    9  A    between atoms: N_15  and  N_16
REMARK   10  A    between atoms: C_17  and  C_19
REMARK   11  A    between atoms: C_22  and  C_25
REMARK   12  A    between atoms: N_27  and  C_32
REMARK   13  A    between atoms: C_32  and  C_33
REMARK                            x       y       z     vdW  Elec       q    Type
REMARK                         _______ _______ _______ _____ _____    ______ ____
ROOT
ATOM      1  N   UNL     1      -4.275   2.466   7.529  0.00  0.00    -0.203 N 
ATOM      2  C   UNL     1      -4.873   3.069   8.576  0.00  0.00    +0.263 C 
ATOM      3  O   UNL     1      -4.919   4.283   8.633  0.00  0.00    -0.268 OA
ATOM      4  H   UNL     1      -4.239   1.498   7.483  0.00  0.00    +0.178 HD
ENDROOT
BRANCH   2   5
ATOM      5  C   UNL     1      -5.473   2.255   9.653  0.00  0.00    +0.038 A 
ATOM      6  C   UNL     1      -5.428   0.862   9.588  0.00  0.00    +0.013 A 
ATOM      7  C   UNL     1      -5.986   0.108  10.599  0.00  0.00    +0.007 A 
ATOM      8  C   UNL     1      -6.599   0.730  11.672  0.00  0.00    -0.017 A 
ATOM      9  C   UNL     1      -6.652   2.111  11.741  0.00  0.00    +0.007 A 
ATOM     10  C   UNL     1      -6.093   2.877  10.739  0.00  0.00    +0.013 A 
BRANCH   8  11
ATOM     11  C   UNL     1      -7.212  -0.100  12.771  0.00  0.00    +0.165 C 
ATOM     12  N   UNL     1      -6.498  -1.381  12.928  0.00  0.00    -0.280 N 
ATOM     13  C   UNL     1      -7.196  -2.506  13.016  0.00  0.00    +0.227 C 
ATOM     14  O   UNL     1      -6.646  -3.578  13.152  0.00  0.00    -0.275 OA
ATOM     15  C   UNL     1      -8.711  -2.401  12.941  0.00  0.00    +0.167 C 
ATOM     16  S   UNL     1      -8.898  -0.681  12.300  0.00  0.00    -0.124 S 
BRANCH  12  17
ATOM     17  C   UNL     1      -5.034  -1.411  12.987  0.00  0.00    +0.144 C 
BRANCH  17  18
ATOM     18  C   UNL     1      -4.586  -1.276  14.420  0.00  0.00    -0.030 A 
ATOM     19  C   UNL     1      -4.346  -0.025  14.954  0.00  0.00    +0.005 A 
ATOM     20  C   UNL     1      -3.940   0.099  16.270  0.00  0.00    +0.000 A 
ATOM     21  C   UNL     1      -3.763  -1.031  17.047  0.00  0.00    +0.000 A 
ATOM     22  C   UNL     1      -3.998  -2.283  16.511  0.00  0.00    +0.000 A 
ATOM     23  C   UNL     1      -4.410  -2.406  15.197  0.00  0.00    +0.005 A 
ENDBRANCH  17  18
ENDBRANCH  12  17
ENDBRANCH   8  11
ENDBRANCH   2   5
BRANCH   1  25
ATOM     24  C   UNL     1      -3.130   2.657   5.500  0.00  0.00    +0.138 C 
ATOM     25  N   UNL     1      -3.706   3.238   6.508  0.00  0.00    -0.187 NA
BRANCH  24  29
ATOM     26  C   UNL     1      -1.407   5.002   2.404  0.00  0.00    +0.162 A 
ATOM     27  C   UNL     1      -2.023   5.621   3.482  0.00  0.00    +0.050 A 
ATOM     28  C   UNL     1      -2.583   4.864   4.489  0.00  0.00    +0.013 A 
ATOM     29  C   UNL     1      -2.532   3.469   4.425  0.00  0.00    -0.002 A 
ATOM     30  C   UNL     1      -1.917   2.845   3.336  0.00  0.00    +0.059 A 
ATOM     31  C   UNL     1      -1.352   3.611   2.333  0.00  0.00    +0.162 A 
BRANCH  26  32
ATOM     32  O   UNL     1      -0.856   5.753   1.415  0.00  0.00    -0.488 OA
BRANCH  32  33
ATOM     33  C   UNL     1      -0.948   7.173   1.551  0.00  0.00    +0.229 C 
BRANCH  33  35
ATOM     34  C   UNL     1      -0.375   9.364   0.496  0.00  0.00    +0.007 C 
ATOM     35  C   UNL     1      -0.277   7.845   0.351  0.00  0.00    +0.038 C 
ENDBRANCH  33  35
ENDBRANCH  32  33
ENDBRANCH  26  32
BRANCH  31  36
ATOM     36  O   UNL     1      -0.748   3.008   1.275  0.00  0.00    -0.489 OA
BRANCH  36  37
ATOM     37  C   UNL     1      -0.729   1.579   1.267  0.00  0.00    +0.226 C 
ATOM     38  C   UNL     1      -0.013   1.086   0.008  0.00  0.00    +0.048 C 
ENDBRANCH  36  37
ENDBRANCH  31  36
ENDBRANCH  24  29
ENDBRANCH   1  25
TORSDOF 11
