REMARK  Name = ZINC63850634
REMARK  8 active torsions:
REMARK  status: ('A' for Active; 'I' for Inactive)
REMARK    1  A    between atoms: C_7  and  C_10
REMARK    2  A    between atoms: C_10  and  C_11
REMARK    3  A    between atoms: C_11  and  C_13
REMARK    4  A    between atoms: C_11  and  N_24
REMARK    5  A    between atoms: N_15  and  N_16
REMARK    6  A    between atoms: C_17  and  C_19
REMARK    7  A    between atoms: N_24  and  S_25
REMARK    8  A    between atoms: S_25  and  C_28
REMARK                            x       y       z     vdW  Elec       q    Type
REMARK                         _______ _______ _______ _____ _____    ______ ____
ROOT
ATOM      1  C   UNL     1       0.338  -3.684  -1.472  0.00  0.00    +0.168 C 
ENDROOT
BRANCH   1   2
ATOM      2  C   UNL     1      -0.724  -4.748  -1.577  0.00  0.00    +0.248 C 
ATOM      3  O   UNL     1      -0.472  -5.804  -2.118  0.00  0.00    -0.273 OA
ATOM      4  N   UNL     1      -1.953  -4.526  -1.071  0.00  0.00    -0.233 N 
ATOM      5  H   UNL     1      -2.154  -3.682  -0.639  0.00  0.00    +0.173 HD
BRANCH   4   6
ATOM      6  N   UNL     1      -2.940  -5.516  -1.169  0.00  0.00    -0.228 N 
ATOM      7  C   UNL     1      -4.169  -5.294  -0.663  0.00  0.00    +0.295 C 
ATOM      8  O   UNL     1      -4.422  -4.234  -0.120  0.00  0.00    -0.265 OA
ATOM      9  H   UNL     1      -2.739  -6.360  -1.601  0.00  0.00    +0.173 HD
BRANCH   7  10
ATOM     10  C   UNL     1      -5.202  -6.330  -0.766  0.00  0.00    +0.190 A 
ATOM     11  C   UNL     1      -6.483  -6.234  -0.303  0.00  0.00    +0.054 A 
ATOM     12  C   UNL     1      -7.117  -7.447  -0.613  0.00  0.00    +0.042 A 
ATOM     13  C   UNL     1      -6.206  -8.221  -1.244  0.00  0.00    +0.196 A 
ATOM     14  O   UNL     1      -5.055  -7.542  -1.339  0.00  0.00    -0.458 OA
ENDBRANCH   7  10
ENDBRANCH   4   6
ENDBRANCH   1   2
BRANCH   1  15
ATOM     15  N   UNL     1       1.575  -4.165  -2.092  0.00  0.00    -0.178 NA
ATOM     16  H   UNL     1       2.200  -4.699  -1.578  0.00  0.00    +0.149 HD
BRANCH  15  17
ATOM     17  S   UNL     1       1.906  -3.796  -3.673  0.00  0.00    +0.059 S 
ATOM     18  O   UNL     1       3.160  -4.391  -3.974  0.00  0.00    -0.153 OA
ATOM     19  O   UNL     1       0.728  -4.086  -4.413  0.00  0.00    -0.153 OA
BRANCH  17  20
ATOM     20  C   UNL     1       2.141  -2.052  -3.763  0.00  0.00    +0.105 A 
ATOM     21  C   UNL     1       1.052  -1.216  -3.925  0.00  0.00    +0.030 A 
ATOM     22  C   UNL     1       1.236   0.152  -3.996  0.00  0.00    +0.022 A 
ATOM     23  C   UNL     1       2.510   0.684  -3.905  0.00  0.00    +0.041 A 
ATOM     24  C   UNL     1       3.599  -0.153  -3.742  0.00  0.00    +0.022 A 
ATOM     25  C   UNL     1       3.413  -1.521  -3.666  0.00  0.00    +0.030 A 
ATOM     26 CL   UNL     1       2.741   2.403  -3.994  0.00  0.00    -0.084 Cl
ENDBRANCH  17  20
ENDBRANCH  15  17
ENDBRANCH   1  15
BRANCH   1  27
ATOM     27  C   UNL     1       0.597  -3.366   0.002  0.00  0.00    +0.063 C 
BRANCH  27  34
ATOM     28  C   UNL     1       0.148   1.183   0.395  0.00  0.00    +0.001 A 
ATOM     29  C   UNL     1       1.371   1.865   0.461  0.00  0.00    +0.002 A 
ATOM     30  C   UNL     1       2.563   1.232   0.414  0.00  0.00    +0.026 A 
ATOM     31  C   UNL     1       2.620  -0.184   0.292  0.00  0.00    +0.043 A 
ATOM     32  N   UNL     1       3.632  -1.014   0.226  0.00  0.00    -0.380 N 
ATOM     33  C   UNL     1       3.110  -2.380   0.104  0.00  0.00    +0.144 C 
ATOM     34  C   UNL     1       1.603  -2.249   0.106  0.00  0.00    -0.040 C 
ATOM     35  C   UNL     1       1.342  -0.927   0.220  0.00  0.00    -0.001 A 
ATOM     36  C   UNL     1       0.090  -0.163   0.278  0.00  0.00    +0.010 A 
ATOM     37  H   UNL     1       4.570  -0.767   0.253  0.00  0.00    +0.160 HD
ENDBRANCH  27  34
ENDBRANCH   1  27
TORSDOF 8
