REMARK  Name = ZINC11336192
REMARK  5 active torsions:
REMARK  status: ('A' for Active; 'I' for Inactive)
REMARK    1  A    between atoms: C_1  and  C_2
REMARK    2  A    between atoms: C_3  and  C_14
REMARK    3  A    between atoms: C_4  and  C_13
REMARK    4  A    between atoms: N_5  and  C_7
REMARK    5  A    between atoms: C_22  and  O_23
REMARK                            x       y       z     vdW  Elec       q    Type
REMARK                         _______ _______ _______ _____ _____    ______ ____
ROOT
ATOM      1  C   UNL     1       4.252  -1.653   1.156  0.00  0.00    +0.068 C 
ATOM      2  C   UNL     1       3.712  -0.403   0.511  0.00  0.00    +0.068 A 
ATOM      3  C   UNL     1       4.433   0.475  -0.333  0.00  0.00    +0.019 A 
ATOM      4  C   UNL     1       3.566   1.489  -0.702  0.00  0.00    +0.049 A 
ATOM      5  N   UNL     1       2.382   1.238  -0.112  0.00  0.00    -0.236 N 
ATOM      6  N   UNL     1       2.500   0.064   0.639  0.00  0.00    -0.171 NA
ATOM      7  C   UNL     1       3.887   2.657  -1.598  0.00  0.00    +0.066 C 
ENDROOT
BRANCH   3   8
ATOM      8  C   UNL     1       5.837   0.337  -0.740  0.00  0.00    +0.019 C 
ATOM      9  C   UNL     1       6.728   1.311  -0.440  0.00  0.00    +0.005 C 
ATOM     10  C   UNL     1       6.470   2.534   0.408  0.00  0.00    +0.078 C 
ATOM     11  C   UNL     1       7.769   3.301   0.445  0.00  0.00    +0.009 A 
ATOM     12  C   UNL     1       8.702   2.601  -0.318  0.00  0.00    +0.029 A 
ATOM     13  C   UNL     1       9.999   3.108  -0.452  0.00  0.00    +0.012 A 
ATOM     14  C   UNL     1      10.346   4.290   0.168  0.00  0.00    +0.004 A 
ATOM     15  C   UNL     1       9.416   4.981   0.923  0.00  0.00    +0.046 A 
ATOM     16  C   UNL     1       8.126   4.487   1.063  0.00  0.00    +0.121 A 
ATOM     17  C   UNL     1       8.075   1.379  -0.866  0.00  0.00    +0.190 C 
ATOM     18  O   UNL     1       8.632   0.559  -1.573  0.00  0.00    -0.287 OA
BRANCH  16  19
ATOM     19  O   UNL     1       7.214   5.167   1.806  0.00  0.00    -0.506 OA
ATOM     20  H   UNL     1       7.199   4.915   2.739  0.00  0.00    +0.292 HD
ENDBRANCH  16  19
ENDBRANCH   3   8
BRANCH   5  21
ATOM     21  C   UNL     1       1.227   2.024  -0.226  0.00  0.00    +0.066 A 
ATOM     22  C   UNL     1      -0.024   1.423  -0.242  0.00  0.00    +0.028 A 
ATOM     23  C   UNL     1      -1.160   2.200  -0.360  0.00  0.00    +0.002 A 
ATOM     24  C   UNL     1      -1.052   3.576  -0.450  0.00  0.00    +0.000 A 
ATOM     25  C   UNL     1       0.193   4.177  -0.433  0.00  0.00    +0.002 A 
ATOM     26  C   UNL     1       1.333   3.405  -0.322  0.00  0.00    +0.028 A 
ENDBRANCH   5  21
TORSDOF 3
