REMARK  Name = ZINC23557804
REMARK  9 active torsions:
REMARK  status: ('A' for Active; 'I' for Inactive)
REMARK    1  A    between atoms: C_1  and  C_2
REMARK    2  A    between atoms: C_2  and  O_3
REMARK    3  A    between atoms: O_3  and  C_4
REMARK    4  A    between atoms: C_9  and  N_10
REMARK    5  A    between atoms: C_14  and  S_16
REMARK    6  A    between atoms: S_16  and  C_17
REMARK    7  A    between atoms: C_17  and  C_18
REMARK    8  A    between atoms: C_24  and  C_30
REMARK    9  A    between atoms: C_25  and  C_29
REMARK                            x       y       z     vdW  Elec       q    Type
REMARK                         _______ _______ _______ _____ _____    ______ ____
ROOT
ATOM      1  N   UNL     1       1.952  -1.469  -3.424  0.00  0.00    -0.289 N 
ATOM      2  C   UNL     1       2.680  -1.985  -4.490  0.00  0.00    +0.187 A 
ATOM      3  N   UNL     1       2.897  -3.242  -4.823  0.00  0.00    -0.125 NA
ATOM      4  N   UNL     1       3.656  -3.536  -5.932  0.00  0.00    -0.133 NA
ATOM      5  C   UNL     1       4.164  -2.557  -6.657  0.00  0.00    +0.160 A 
ATOM      6  S   UNL     1       3.566  -1.121  -5.778  0.00  0.00    -0.024 S 
ATOM      7  H   UNL     1       1.949  -0.513  -3.256  0.00  0.00    +0.154 HD
ENDROOT
BRANCH   1  13
ATOM      8  C   UNL     1       0.667  -1.848  -1.409  0.00  0.00    +0.142 A 
ATOM      9  C   UNL     1      -0.057  -2.702  -0.593  0.00  0.00    +0.047 A 
ATOM     10  C   UNL     1      -0.220  -4.028  -0.950  0.00  0.00    +0.004 A 
ATOM     11  C   UNL     1       0.339  -4.506  -2.121  0.00  0.00    +0.002 A 
ATOM     12  C   UNL     1       1.062  -3.661  -2.941  0.00  0.00    +0.027 A 
ATOM     13  C   UNL     1       1.225  -2.328  -2.592  0.00  0.00    +0.075 A 
BRANCH   8  14
ATOM     14  O   UNL     1       0.827  -0.544  -1.059  0.00  0.00    -0.490 OA
BRANCH  14  16
ATOM     15  C   UNL     1       0.513   1.364   0.391  0.00  0.00    +0.048 C 
ATOM     16  C   UNL     1       0.227  -0.122   0.167  0.00  0.00    +0.226 C 
ENDBRANCH  14  16
ENDBRANCH   8  14
ENDBRANCH   1  13
BRANCH   5  17
ATOM     17  S   UNL     1       5.161  -2.644  -8.107  0.00  0.00    -0.089 S 
BRANCH  17  18
ATOM     18  C   UNL     1       5.348  -4.423  -8.405  0.00  0.00    +0.150 C 
BRANCH  18  19
ATOM     19  C   UNL     1       6.192  -4.641  -9.635  0.00  0.00    +0.121 A 
ATOM     20  N   UNL     1       6.456  -5.907 -10.047  0.00  0.00    -0.310 N 
ATOM     21  H   UNL     1       6.098  -6.655  -9.545  0.00  0.00    +0.170 HD
ATOM     22  C   UNL     1       7.205  -6.146 -11.140  0.00  0.00    +0.260 A 
ATOM     23  O   UNL     1       7.432  -7.289 -11.498  0.00  0.00    -0.267 OA
ATOM     24  C   UNL     1       7.731  -5.035 -11.877  0.00  0.00    +0.075 A 
ATOM     25  C   UNL     1       8.553  -5.029 -13.072  0.00  0.00    -0.026 A 
ATOM     26  C   UNL     1       8.935  -3.855 -13.600  0.00  0.00    -0.008 A 
ATOM     27  S   UNL     1       8.202  -2.653 -12.506  0.00  0.00    -0.073 S 
ATOM     28  C   UNL     1       7.404  -3.762 -11.374  0.00  0.00    +0.116 A 
ATOM     29  N   UNL     1       6.652  -3.607 -10.288  0.00  0.00    -0.226 NA
ATOM     30  C   UNL     1       9.781  -3.611 -14.823  0.00  0.00    +0.052 C 
ATOM     31  C   UNL     1       8.974  -6.326 -13.714  0.00  0.00    +0.045 C 
ENDBRANCH  18  19
ENDBRANCH  17  18
ENDBRANCH   5  17
TORSDOF 6
