REMARK  Name = ZINC35664154
REMARK  14 active torsions:
REMARK  status: ('A' for Active; 'I' for Inactive)
REMARK    1  A    between atoms: C_1  and  C_2
REMARK    2  A    between atoms: C_2  and  N_3
REMARK    3  A    between atoms: C_4  and  C_25
REMARK    4  A    between atoms: C_5  and  C_20
REMARK    5  A    between atoms: C_6  and  C_11
REMARK    6  A    between atoms: C_14  and  C_17
REMARK    7  A    between atoms: C_17  and  C_18
REMARK    8  A    between atoms: C_17  and  C_19
REMARK    9  A    between atoms: C_20  and  O_22
REMARK   10  A    between atoms: O_22  and  C_23
REMARK   11  A    between atoms: C_23  and  C_24
REMARK   12  A    between atoms: C_25  and  N_26
REMARK   13  A    between atoms: C_30  and  C_33
REMARK   14  A    between atoms: C_34  and  C_36
REMARK                            x       y       z     vdW  Elec       q    Type
REMARK                         _______ _______ _______ _____ _____    ______ ____
ROOT
ATOM      1  N   UNL     1      -0.324   0.354  -3.065  0.00  0.00    -0.258 N 
ATOM      2  C   UNL     1      -1.268   0.237  -4.045  0.00  0.00    +0.041 C 
ATOM      3  C   UNL     1      -0.917   0.004  -5.328  0.00  0.00    +0.080 C 
ATOM      4  C   UNL     1       0.560  -0.123  -5.642  0.00  0.00    +0.144 C 
ATOM      5  N   UNL     1       1.497   0.018  -4.515  0.00  0.00    -0.288 N 
ATOM      6  C   UNL     1       0.993   0.255  -3.288  0.00  0.00    +0.307 C 
ATOM      7  O   UNL     1       1.758   0.377  -2.351  0.00  0.00    -0.252 OA
ATOM      8  H   UNL     1       2.454  -0.053  -4.653  0.00  0.00    +0.151 HD
ENDROOT
BRANCH   4   9
ATOM      9  C   UNL     1       0.787  -1.476  -6.266  0.00  0.00    -0.022 A 
ATOM     10  C   UNL     1       0.870  -2.601  -5.467  0.00  0.00    +0.006 A 
ATOM     11  C   UNL     1       1.078  -3.842  -6.040  0.00  0.00    +0.004 A 
ATOM     12  C   UNL     1       1.202  -3.958  -7.412  0.00  0.00    -0.045 A 
ATOM     13  C   UNL     1       1.118  -2.833  -8.211  0.00  0.00    +0.004 A 
ATOM     14  C   UNL     1       0.906  -1.593  -7.639  0.00  0.00    +0.006 A 
BRANCH  12  15
ATOM     15  C   UNL     1       1.430  -5.310  -8.036  0.00  0.00    +0.013 C 
ATOM     16  C   UNL     1       0.285  -5.627  -9.000  0.00  0.00    +0.012 C 
ATOM     17  C   UNL     1       2.754  -5.301  -8.803  0.00  0.00    +0.012 C 
ENDBRANCH  12  15
ENDBRANCH   4   9
BRANCH   1  19
ATOM     18  C   UNL     1      -0.868   2.115  -1.458  0.00  0.00    +0.025 C 
ATOM     19  C   UNL     1      -0.777   0.607  -1.695  0.00  0.00    +0.111 C 
ENDBRANCH   1  19
BRANCH   3  20
ATOM     20  C   UNL     1      -1.894  -0.117  -6.343  0.00  0.00    +0.339 C 
ATOM     21  O   UNL     1      -2.257  -1.219  -6.710  0.00  0.00    -0.245 OA
BRANCH  20  22
ATOM     22  O   UNL     1      -2.424   0.989  -6.906  0.00  0.00    -0.462 OA
BRANCH  22  23
ATOM     23  C   UNL     1      -3.405   0.792  -7.925  0.00  0.00    +0.229 C 
ATOM     24  C   UNL     1      -3.886   2.151  -8.440  0.00  0.00    +0.048 C 
ENDBRANCH  22  23
ENDBRANCH  20  22
ENDBRANCH   3  20
BRANCH   2  25
ATOM     25  C   UNL     1      -2.727   0.371  -3.688  0.00  0.00    +0.136 C 
BRANCH  25  26
ATOM     26  N   UNL     1      -3.128  -0.757  -2.837  0.00  0.00    -0.294 NA
ATOM     27  C   UNL     1      -3.056  -2.025  -3.576  0.00  0.00    +0.104 C 
ATOM     28  C   UNL     1      -3.305  -3.189  -2.610  0.00  0.00    +0.124 C 
ATOM     29  N   UNL     1      -4.574  -2.950  -1.907  0.00  0.00    -0.292 N 
ATOM     30  C   UNL     1      -4.775  -1.645  -1.258  0.00  0.00    +0.087 C 
ATOM     31  C   UNL     1      -4.468  -0.542  -2.276  0.00  0.00    +0.107 C 
ATOM     32  C   UNL     1      -6.225  -1.525  -0.784  0.00  0.00    +0.029 C 
ATOM     33  C   UNL     1      -5.528  -3.901  -1.859  0.00  0.00    +0.247 C 
ATOM     34  O   UNL     1      -6.611  -3.651  -1.365  0.00  0.00    -0.270 OA
BRANCH  33  35
ATOM     35  C   UNL     1      -5.258  -5.247  -2.407  0.00  0.00    +0.037 A 
ATOM     36  C   UNL     1      -3.954  -5.744  -2.434  0.00  0.00    +0.013 A 
ATOM     37  C   UNL     1      -3.710  -7.001  -2.947  0.00  0.00    +0.001 A 
ATOM     38  C   UNL     1      -4.753  -7.769  -3.434  0.00  0.00    +0.000 A 
ATOM     39  C   UNL     1      -6.048  -7.281  -3.410  0.00  0.00    +0.001 A 
ATOM     40  C   UNL     1      -6.307  -6.028  -2.895  0.00  0.00    +0.013 A 
ENDBRANCH  33  35
ENDBRANCH  25  26
ENDBRANCH   2  25
TORSDOF 9
