REMARK  Name = ZINC40333851
REMARK  7 active torsions:
REMARK  status: ('A' for Active; 'I' for Inactive)
REMARK    1  A    between atoms: C_1  and  C_2
REMARK    2  A    between atoms: C_2  and  N_3
REMARK    3  A    between atoms: N_3  and  C_4
REMARK    4  A    between atoms: C_4  and  C_5
REMARK    5  A    between atoms: C_11  and  C_13
REMARK    6  A    between atoms: C_16  and  N_20
REMARK    7  A    between atoms: C_18  and  N_19
REMARK                            x       y       z     vdW  Elec       q    Type
REMARK                         _______ _______ _______ _____ _____    ______ ____
ROOT
ATOM      1  N   UNL     1      -1.415  -0.442   0.020  0.00  0.00    -0.293 N 
ATOM      2  C   UNL     1      -1.961  -0.852   1.182  0.00  0.00    +0.249 C 
ATOM      3  O   UNL     1      -3.032  -1.428   1.181  0.00  0.00    -0.270 OA
ENDROOT
BRANCH   2   4
ATOM      4  C   UNL     1      -1.261  -0.603   2.452  0.00  0.00    +0.058 A 
ATOM      5  C   UNL     1       0.022  -1.119   2.659  0.00  0.00    +0.017 A 
ATOM      6  C   UNL     1       0.672  -0.888   3.837  0.00  0.00    +0.023 A 
ATOM      7  C   UNL     1       0.064  -0.137   4.842  0.00  0.00    +0.026 A 
ATOM      8  C   UNL     1      -1.210   0.384   4.654  0.00  0.00    +0.046 A 
ATOM      9  C   UNL     1      -1.877   0.160   3.459  0.00  0.00    +0.039 A 
BRANCH   9  10
ATOM     10  N   UNL     1      -3.149   0.682   3.261  0.00  0.00    -0.357 N 
ATOM     11  H   UNL     1      -3.584   0.585   2.400  0.00  0.00    +0.142 HD
ATOM     12  H   UNL     1      -3.602   1.144   3.984  0.00  0.00    +0.142 HD
ENDBRANCH   9  10
BRANCH   7  13
ATOM     13  N   UNL     1       0.735   0.092   6.038  0.00  0.00    -0.358 N 
ATOM     14  H   UNL     1       1.625  -0.271   6.172  0.00  0.00    +0.142 HD
ATOM     15  H   UNL     1       0.314   0.614   6.739  0.00  0.00    +0.142 HD
ENDBRANCH   7  13
ENDBRANCH   2   4
BRANCH   1  17
ATOM     16  C   UNL     1      -0.208   1.684   0.087  0.00  0.00    +0.024 C 
ATOM     17  C   UNL     1      -0.080   0.161   0.010  0.00  0.00    +0.105 C 
ENDBRANCH   1  17
BRANCH   1  18
ATOM     18  C   UNL     1      -2.157  -0.599  -1.234  0.00  0.00    +0.150 C 
BRANCH  18  19
ATOM     19  C   UNL     1      -1.832  -1.938  -1.845  0.00  0.00    +0.009 A 
ATOM     20  C   UNL     1      -2.451  -3.130  -1.667  0.00  0.00    +0.014 A 
ATOM     21  C   UNL     1      -1.975  -4.241  -2.339  0.00  0.00    +0.028 A 
ATOM     22  C   UNL     1      -0.901  -4.104  -3.156  0.00  0.00    +0.078 A 
ATOM     23  S   UNL     1      -0.536  -2.363  -2.997  0.00  0.00    -0.080 S 
ATOM     24 CL   UNL     1      -0.094  -5.307  -4.113  0.00  0.00    -0.076 Cl
ENDBRANCH  18  19
ENDBRANCH   1  18
TORSDOF 6
