REMARK  Name = ZINC35066047
REMARK  12 active torsions:
REMARK  status: ('A' for Active; 'I' for Inactive)
REMARK    1  A    between atoms: C_1  and  C_2
REMARK    2  A    between atoms: C_2  and  C_3
REMARK    3  A    between atoms: C_3  and  C_5
REMARK    4  A    between atoms: C_3  and  N_23
REMARK    5  A    between atoms: N_15  and  C_16
REMARK    6  A    between atoms: C_20  and  C_22
REMARK    7  A    between atoms: N_23  and  C_24
REMARK    8  A    between atoms: C_24  and  C_25
REMARK    9  A    between atoms: N_28  and  C_29
REMARK   10  A    between atoms: C_29  and  C_30
REMARK   11  A    between atoms: C_29  and  C_31
REMARK   12  A    between atoms: C_29  and  C_32
REMARK                            x       y       z     vdW  Elec       q    Type
REMARK                         _______ _______ _______ _____ _____    ______ ____
ROOT
ATOM      1  C   UNL     1      -1.628  -1.763  -0.388  0.00  0.00    +0.138 A 
ATOM      2  N   UNL     1      -1.098  -2.464  -1.344  0.00  0.00    -0.231 NA
ATOM      3  C   UNL     1      -0.958  -3.810  -1.246  0.00  0.00    +0.078 A 
ATOM      4  C   UNL     1      -0.387  -4.564  -2.273  0.00  0.00    +0.028 A 
ATOM      5  C   UNL     1      -0.265  -5.927  -2.131  0.00  0.00    +0.002 A 
ATOM      6  C   UNL     1      -0.703  -6.565  -0.978  0.00  0.00    +0.001 A 
ATOM      7  C   UNL     1      -1.270  -5.843   0.049  0.00  0.00    +0.015 A 
ATOM      8  C   UNL     1      -1.403  -4.462  -0.074  0.00  0.00    +0.065 A 
ATOM      9  C   UNL     1      -1.999  -3.640   0.990  0.00  0.00    +0.266 A 
ATOM     10  O   UNL     1      -2.401  -4.140   2.024  0.00  0.00    -0.267 OA
ATOM     11  N   UNL     1      -2.078  -2.306   0.776  0.00  0.00    -0.263 N 
ENDROOT
BRANCH  11  12
ATOM     12  C   UNL     1      -2.632  -1.477   1.760  0.00  0.00    +0.051 A 
ATOM     13  C   UNL     1      -4.011  -1.392   1.901  0.00  0.00    +0.026 A 
ATOM     14  C   UNL     1      -4.555  -0.575   2.872  0.00  0.00    +0.002 A 
ATOM     15  C   UNL     1      -3.728   0.159   3.703  0.00  0.00    +0.003 A 
ATOM     16  C   UNL     1      -2.355   0.077   3.564  0.00  0.00    -0.048 A 
ATOM     17  C   UNL     1      -1.805  -0.743   2.599  0.00  0.00    +0.029 A 
ATOM     18  C   UNL     1      -1.458   0.879   4.471  0.00  0.00    +0.044 C 
ENDBRANCH  11  12
BRANCH   1  19
ATOM     19  C   UNL     1      -1.747  -0.273  -0.575  0.00  0.00    +0.144 C 
BRANCH  19  20
ATOM     20  N   UNL     1      -2.686   0.010  -1.663  0.00  0.00    -0.276 N 
ATOM     21  C   UNL     1      -3.793   0.741  -1.425  0.00  0.00    +0.303 C 
ATOM     22  O   UNL     1      -4.012   1.166  -0.307  0.00  0.00    -0.253 OA
ATOM     23  N   UNL     1      -4.657   1.001  -2.426  0.00  0.00    -0.294 N 
ATOM     24  H   UNL     1      -4.482   0.662  -3.318  0.00  0.00    +0.151 HD
BRANCH  23  25
ATOM     25  C   UNL     1      -5.860   1.796  -2.168  0.00  0.00    +0.028 C 
ATOM     26  C   UNL     1      -5.457   3.181  -1.659  0.00  0.00    +0.031 C 
ATOM     27  C   UNL     1      -6.663   1.942  -3.462  0.00  0.00    +0.031 C 
ATOM     28  C   UNL     1      -6.718   1.095  -1.112  0.00  0.00    +0.031 C 
ENDBRANCH  23  25
BRANCH  20  29
ATOM     29  C   UNL     1      -2.422  -0.502  -3.010  0.00  0.00    +0.107 C 
ATOM     30  C   UNL     1      -3.173  -1.820  -3.211  0.00  0.00    +0.024 C 
ENDBRANCH  20  29
ENDBRANCH  19  20
BRANCH  19  32
ATOM     31  C   UNL     1      -0.477   1.832  -1.026  0.00  0.00    +0.006 C 
ATOM     32  C   UNL     1      -0.375   0.309  -0.922  0.00  0.00    +0.027 C 
ENDBRANCH  19  32
ENDBRANCH   1  19
TORSDOF 6
