REMARK  Name = ZINC15044705
REMARK  6 active torsions:
REMARK  status: ('A' for Active; 'I' for Inactive)
REMARK    1  A    between atoms: C_1  and  C_2
REMARK    2  A    between atoms: C_2  and  C_4
REMARK    3  A    between atoms: C_2  and  N_57
REMARK    4  A    between atoms: C_19  and  C_22
REMARK    5  A    between atoms: N_24  and  C_25
REMARK    6  A    between atoms: C_30  and  O_31
REMARK                            x       y       z     vdW  Elec       q    Type
REMARK                         _______ _______ _______ _____ _____    ______ ____
ROOT
ATOM      1  C   UNL     1      -4.879   1.140   0.111  0.00  0.00    -0.077 C 
ATOM      2  C   UNL     1      -3.535   1.859  -0.029  0.00  0.00    -0.006 C 
ATOM      3  C   UNL     1      -2.404   0.827   0.012  0.00  0.00    +0.072 C 
ATOM      4  C   UNL     1      -2.617  -0.196  -1.107  0.00  0.00    -0.006 C 
ATOM      5  C   UNL     1      -3.987  -0.855  -0.935  0.00  0.00    -0.077 C 
ATOM      6  N   UNL     1      -5.033   0.187  -1.009  0.00  0.00    +0.387 N 
ATOM      7  H   UNL     1      -4.935   0.696  -1.895  0.00  0.00    -0.081 HD
ENDROOT
BRANCH   3   8
ATOM      8  C   UNL     1      -1.082   1.522  -0.186  0.00  0.00    +0.220 C 
ATOM      9  O   UNL     1      -1.046   2.724  -0.344  0.00  0.00    -0.275 OA
ATOM     10  N   UNL     1       0.061   0.808  -0.187  0.00  0.00    -0.282 N 
ATOM     11  H   UNL     1       0.028  -0.161  -0.151  0.00  0.00    +0.155 HD
BRANCH  10  12
ATOM     12  C   UNL     1       1.298   1.465  -0.245  0.00  0.00    +0.075 A 
ATOM     13  C   UNL     1       1.411   2.774   0.200  0.00  0.00    +0.027 A 
ATOM     14  C   UNL     1       2.632   3.420   0.141  0.00  0.00    +0.002 A 
ATOM     15  C   UNL     1       3.742   2.764  -0.359  0.00  0.00    +0.004 A 
ATOM     16  C   UNL     1       3.636   1.459  -0.804  0.00  0.00    +0.047 A 
ATOM     17  C   UNL     1       2.417   0.803  -0.744  0.00  0.00    +0.138 A 
BRANCH  17  18
ATOM     18  O   UNL     1       2.313  -0.482  -1.175  0.00  0.00    -0.505 OA
ATOM     19  H   UNL     1       2.092  -0.566  -2.113  0.00  0.00    +0.292 HD
ENDBRANCH  17  18
ENDBRANCH  10  12
ENDBRANCH   3   8
BRANCH   6  21
ATOM     20  C   UNL     1      -6.611  -1.090   0.403  0.00  0.00    -0.004 C 
ATOM     21  C   UNL     1      -6.372  -0.437  -0.960  0.00  0.00    +0.017 C 
BRANCH  21  22
ATOM     22  C   UNL     1      -6.466  -1.482  -2.042  0.00  0.00    +0.206 C 
ATOM     23  O   UNL     1      -5.766  -2.471  -1.992  0.00  0.00    -0.277 OA
ATOM     24  N   UNL     1      -7.327  -1.317  -3.065  0.00  0.00    -0.262 N 
ATOM     25  C   UNL     1      -8.124  -0.088  -3.195  0.00  0.00    +0.209 C 
ATOM     26  C   UNL     1      -9.526  -0.447  -3.602  0.00  0.00    +0.235 C 
ATOM     27  O   UNL     1     -10.447   0.271  -3.273  0.00  0.00    -0.274 OA
ATOM     28  N   UNL     1      -9.774  -1.557  -4.322  0.00  0.00    -0.283 N 
ATOM     29  C   UNL     1      -8.736  -2.429  -4.671  0.00  0.00    +0.055 A 
ATOM     30  C   UNL     1      -7.498  -2.315  -4.036  0.00  0.00    +0.058 A 
ATOM     31  C   UNL     1      -6.466  -3.175  -4.366  0.00  0.00    +0.025 A 
ATOM     32  C   UNL     1      -6.664  -4.146  -5.332  0.00  0.00    +0.002 A 
ATOM     33  C   UNL     1      -7.888  -4.258  -5.964  0.00  0.00    +0.002 A 
ATOM     34  C   UNL     1      -8.925  -3.403  -5.638  0.00  0.00    +0.025 A 
ATOM     35  H   UNL     1     -10.681  -1.755  -4.601  0.00  0.00    +0.155 HD
ENDBRANCH  21  22
ENDBRANCH   6  21
TORSDOF 5
