REMARK  Name = ZINC34922758
REMARK  11 active torsions:
REMARK  status: ('A' for Active; 'I' for Inactive)
REMARK    1  A    between atoms: C_1  and  C_2
REMARK    2  A    between atoms: C_3  and  C_32
REMARK    3  A    between atoms: C_4  and  C_26
REMARK    4  A    between atoms: C_7  and  C_12
REMARK    5  A    between atoms: C_13  and  N_15
REMARK    6  A    between atoms: N_18  and  C_21
REMARK    7  A    between atoms: C_32  and  O_34
REMARK    8  A    between atoms: O_34  and  C_35
REMARK    9  A    between atoms: C_35  and  C_36
REMARK   10  A    between atoms: C_36  and  O_37
REMARK   11  A    between atoms: O_37  and  C_38
REMARK                            x       y       z     vdW  Elec       q    Type
REMARK                         _______ _______ _______ _____ _____    ______ ____
ROOT
ATOM      1  C   UNL     1       0.450   0.887   1.378  0.00  0.00    +0.066 C 
ATOM      2  C   UNL     1       0.362  -0.531   0.876  0.00  0.00    +0.053 C 
ATOM      3  C   UNL     1      -0.871  -1.147   0.774  0.00  0.00    +0.082 C 
ATOM      4  C   UNL     1      -0.908  -2.570   0.264  0.00  0.00    +0.150 C 
ATOM      5  N   UNL     1       0.394  -3.196  -0.089  0.00  0.00    -0.267 N 
ATOM      6  C   UNL     1       0.598  -4.474  -0.571  0.00  0.00    +0.048 C 
ATOM      7  C   UNL     1       1.870  -4.850  -0.832  0.00  0.00    +0.072 C 
ATOM      8  S   UNL     1       2.785  -3.386  -0.393  0.00  0.00    -0.060 S 
ATOM      9  C   UNL     1       1.502  -2.414   0.084  0.00  0.00    +0.166 C 
ATOM     10  N   UNL     1       1.464  -1.175   0.530  0.00  0.00    -0.230 NA
ENDROOT
BRANCH   4  11
ATOM     11  C   UNL     1      -1.561  -3.425   1.320  0.00  0.00    -0.022 A 
ATOM     12  C   UNL     1      -0.877  -3.732   2.481  0.00  0.00    +0.006 A 
ATOM     13  C   UNL     1      -1.477  -4.515   3.449  0.00  0.00    +0.000 A 
ATOM     14  C   UNL     1      -2.760  -4.991   3.256  0.00  0.00    +0.000 A 
ATOM     15  C   UNL     1      -3.444  -4.683   2.095  0.00  0.00    +0.000 A 
ATOM     16  C   UNL     1      -2.846  -3.896   1.129  0.00  0.00    +0.006 A 
ENDBRANCH   4  11
BRANCH   6  17
ATOM     17  C   UNL     1      -0.528  -5.393  -0.792  0.00  0.00    +0.091 C 
ATOM     18  C   UNL     1      -0.294  -6.673  -1.139  0.00  0.00    +0.241 C 
ATOM     19  O   UNL     1       0.975  -7.149  -1.160  0.00  0.00    -0.271 OA
BRANCH  18  20
ATOM     20  N   UNL     1      -1.350  -7.503  -1.474  0.00  0.00    -0.302 N 
ATOM     21  C   UNL     1      -2.582  -6.959  -2.067  0.00  0.00    +0.089 C 
ATOM     22  C   UNL     1      -2.914  -7.768  -3.325  0.00  0.00    -0.059 C 
ATOM     23  N   UNL     1      -2.985  -9.194  -2.984  0.00  0.00    +0.384 N 
ATOM     24  C   UNL     1      -1.667  -9.670  -2.546  0.00  0.00    -0.059 C 
ATOM     25  C   UNL     1      -1.270  -8.956  -1.254  0.00  0.00    +0.089 C 
ATOM     26  H   UNL     1      -3.654  -9.328  -2.240  0.00  0.00    -0.081 HD
BRANCH  23  27
ATOM     27  C   UNL     1      -3.412  -9.958  -4.164  0.00  0.00    -0.068 C 
ATOM     28  C   UNL     1      -4.831  -9.527  -4.588  0.00  0.00    -0.015 C 
ATOM     29  C   UNL     1      -5.503 -10.841  -5.058  0.00  0.00    -0.002 C 
ATOM     30  C   UNL     1      -4.955 -11.883  -4.051  0.00  0.00    -0.002 C 
ATOM     31  C   UNL     1      -3.491 -11.456  -3.823  0.00  0.00    -0.015 C 
ENDBRANCH  23  27
ENDBRANCH  18  20
ENDBRANCH   6  17
BRANCH   3  32
ATOM     32  C   UNL     1      -2.046  -0.476   1.132  0.00  0.00    +0.339 C 
ATOM     33  O   UNL     1      -1.993   0.671   1.541  0.00  0.00    -0.245 OA
BRANCH  32  34
ATOM     34  O   UNL     1      -3.240  -1.100   1.024  0.00  0.00    -0.459 OA
BRANCH  34  35
ATOM     35  C   UNL     1      -4.399  -0.356   1.406  0.00  0.00    +0.260 C 
BRANCH  35  36
ATOM     36  C   UNL     1      -5.646  -1.221   1.216  0.00  0.00    +0.200 C 
BRANCH  36  37
ATOM     37  O   UNL     1      -5.597  -2.331   2.114  0.00  0.00    -0.380 OA
ATOM     38  C   UNL     1      -6.722  -3.207   2.017  0.00  0.00    +0.194 C 
ENDBRANCH  36  37
ENDBRANCH  35  36
ENDBRANCH  34  35
ENDBRANCH  32  34
ENDBRANCH   3  32
TORSDOF 9
