REMARK  Name = ZINC24702332
REMARK  11 active torsions:
REMARK  status: ('A' for Active; 'I' for Inactive)
REMARK    1  A    between atoms: C_1  and  C_2
REMARK    2  A    between atoms: C_2  and  N_3
REMARK    3  A    between atoms: N_3  and  C_4
REMARK    4  A    between atoms: C_10  and  C_12
REMARK    5  A    between atoms: C_12  and  N_13
REMARK    6  A    between atoms: C_16  and  C_20
REMARK    7  A    between atoms: C_16  and  C_21
REMARK    8  A    between atoms: C_24  and  C_27
REMARK    9  A    between atoms: C_27  and  C_28
REMARK   10  A    between atoms: C_27  and  C_29
REMARK   11  A    between atoms: C_27  and  C_30
REMARK                            x       y       z     vdW  Elec       q    Type
REMARK                         _______ _______ _______ _____ _____    ______ ____
ROOT
ATOM      1  N   UNL     1      -1.797  -5.773   0.732  0.00  0.00    -0.215 N 
ATOM      2  C   UNL     1      -1.070  -5.122  -0.198  0.00  0.00    +0.251 C 
ATOM      3  O   UNL     1      -1.350  -4.961  -1.366  0.00  0.00    -0.272 OA
ATOM      4  C   UNL     1       0.171  -4.633   0.522  0.00  0.00    +0.135 C 
ATOM      5  N   UNL     1      -0.019  -5.109   1.903  0.00  0.00    -0.281 N 
ATOM      6  C   UNL     1      -1.195  -5.763   1.926  0.00  0.00    +0.310 C 
ATOM      7  O   UNL     1      -1.658  -6.285   2.921  0.00  0.00    -0.252 OA
ATOM      8  C   UNL     1       1.431  -5.247  -0.090  0.00  0.00    +0.047 C 
ATOM      9  H   UNL     1       0.742  -4.896   2.668  0.00  0.00    +0.152 HD
ENDROOT
BRANCH   4  10
ATOM     10  C   UNL     1       0.246  -3.128   0.486  0.00  0.00    -0.015 A 
ATOM     11  C   UNL     1       0.778  -2.436   1.558  0.00  0.00    +0.006 A 
ATOM     12  C   UNL     1       0.847  -1.056   1.525  0.00  0.00    +0.004 A 
ATOM     13  C   UNL     1       0.383  -0.367   0.420  0.00  0.00    -0.042 A 
ATOM     14  C   UNL     1      -0.154  -1.059  -0.650  0.00  0.00    +0.004 A 
ATOM     15  C   UNL     1      -0.218  -2.439  -0.619  0.00  0.00    +0.006 A 
BRANCH  13  16
ATOM     16  C   UNL     1       0.458   1.137   0.383  0.00  0.00    -0.013 C 
ATOM     17  C   UNL     1       1.918   1.579   0.509  0.00  0.00    +0.015 C 
ATOM     18  C   UNL     1      -0.116   1.645  -0.941  0.00  0.00    +0.015 C 
ATOM     19  C   UNL     1      -0.351   1.716   1.546  0.00  0.00    +0.015 C 
ENDBRANCH  13  16
ENDBRANCH   4  10
BRANCH   1  20
ATOM     20  C   UNL     1      -3.089  -6.412   0.467  0.00  0.00    +0.214 C 
BRANCH  20  22
ATOM     21  N   UNL     1      -5.481  -5.788   0.519  0.00  0.00    -0.274 N 
ATOM     22  C   UNL     1      -4.198  -5.420   0.702  0.00  0.00    +0.237 C 
ATOM     23  O   UNL     1      -3.936  -4.290   1.056  0.00  0.00    -0.274 OA
BRANCH  21  24
ATOM     24  C   UNL     1      -6.511  -4.905   0.834  0.00  0.00    +0.010 C 
ATOM     25  C   UNL     1      -6.601  -3.799   0.148  0.00  0.00    -0.008 C 
ATOM     26  C   UNL     1      -7.653  -2.754   0.378  0.00  0.00    +0.029 C 
ATOM     27  C   UNL     1      -8.804  -3.335   1.202  0.00  0.00    +0.004 C 
ATOM     28  C   UNL     1      -8.215  -4.047   2.426  0.00  0.00    +0.006 C 
ATOM     29  C   UNL     1      -7.446  -5.280   1.946  0.00  0.00    +0.051 C 
ENDBRANCH  21  24
BRANCH  21  31
ATOM     30  C   UNL     1      -5.884  -8.118   1.142  0.00  0.00    +0.025 C 
ATOM     31  C   UNL     1      -5.794  -7.117  -0.012  0.00  0.00    +0.110 C 
ENDBRANCH  21  31
ENDBRANCH  20  22
ENDBRANCH   1  20
TORSDOF 6
