REMARK  Name = ZINC33734721
REMARK  7 active torsions:
REMARK  status: ('A' for Active; 'I' for Inactive)
REMARK    1  A    between atoms: C_7  and  S_18
REMARK    2  A    between atoms: C_8  and  C_11
REMARK    3  A    between atoms: S_18  and  C_19
REMARK    4  A    between atoms: C_19  and  C_20
REMARK    5  A    between atoms: C_20  and  N_21
REMARK    6  A    between atoms: C_22  and  C_24
REMARK    7  A    between atoms: C_26  and  N_31
REMARK                            x       y       z     vdW  Elec       q    Type
REMARK                         _______ _______ _______ _____ _____    ______ ____
ROOT
ATOM      1  C   UNL     1      -6.372  -0.976   3.451  0.00  0.00    +0.001 A 
ATOM      2  C   UNL     1      -7.268  -1.924   2.977  0.00  0.00    +0.002 A 
ATOM      3  C   UNL     1      -7.450  -2.104   1.623  0.00  0.00    +0.026 A 
ATOM      4  C   UNL     1      -6.729  -1.330   0.719  0.00  0.00    +0.048 A 
ATOM      5  C   UNL     1      -5.822  -0.370   1.205  0.00  0.00    +0.014 A 
ATOM      6  C   UNL     1      -5.654  -0.204   2.582  0.00  0.00    +0.011 A 
ATOM      7  C   UNL     1      -5.229   0.273   0.028  0.00  0.00    +0.041 A 
ATOM      8  C   UNL     1      -5.793  -0.309  -1.066  0.00  0.00    +0.061 A 
ATOM      9  N   UNL     1      -6.693  -1.277  -0.657  0.00  0.00    -0.353 N 
ATOM     10  H   UNL     1      -7.328  -1.952  -1.250  0.00  0.00    +0.166 HD
ENDROOT
BRANCH   8  11
ATOM     11  C   UNL     1      -5.491   0.038  -2.469  0.00  0.00    -0.001 A 
ATOM     12  C   UNL     1      -5.416   1.377  -2.860  0.00  0.00    +0.011 A 
ATOM     13  C   UNL     1      -5.129   1.694  -4.171  0.00  0.00    +0.020 A 
ATOM     14  C   UNL     1      -4.924   0.688  -5.101  0.00  0.00    +0.041 A 
ATOM     15  C   UNL     1      -5.001  -0.642  -4.720  0.00  0.00    +0.020 A 
ATOM     16  C   UNL     1      -5.283  -0.972  -3.411  0.00  0.00    +0.011 A 
ATOM     17 CL   UNL     1      -4.569   1.095  -6.750  0.00  0.00    -0.084 Cl
ENDBRANCH   8  11
BRANCH   7  18
ATOM     18  S   UNL     1      -4.022   1.557   0.030  0.00  0.00    -0.121 S 
BRANCH  18  19
ATOM     19  C   UNL     1      -2.439   0.671   0.017  0.00  0.00    +0.093 C 
BRANCH  19  20
ATOM     20  C   UNL     1      -1.290   1.681   0.017  0.00  0.00    +0.115 C 
BRANCH  20  21
ATOM     21  N   UNL     1      -0.011   0.966   0.007  0.00  0.00    -0.311 N 
ATOM     22  C   UNL     1       1.147   1.655   0.000  0.00  0.00    +0.246 C 
ATOM     23  O   UNL     1       1.130   2.871   0.007  0.00  0.00    -0.270 OA
ATOM     24  H   UNL     1       0.004  -0.134   0.006  0.00  0.00    +0.149 HD
BRANCH  22  25
ATOM     25  C   UNL     1       2.436   0.934  -0.016  0.00  0.00    +0.057 A 
ATOM     26  C   UNL     1       2.459  -0.462  -0.018  0.00  0.00    +0.047 A 
ATOM     27  C   UNL     1       3.666  -1.129  -0.038  0.00  0.00    +0.127 A 
ATOM     28  C   UNL     1       4.854  -0.418  -0.046  0.00  0.00    +0.034 A 
ATOM     29  C   UNL     1       4.840   0.964  -0.038  0.00  0.00    +0.023 A 
ATOM     30  C   UNL     1       3.639   1.646  -0.024  0.00  0.00    +0.053 A 
ATOM     31 CL   UNL     1       3.622   3.382  -0.015  0.00  0.00    -0.083 Cl
BRANCH  27  32
ATOM     32  N   UNL     1       3.691  -2.609  -0.045  0.00  0.00    +0.056 N 
ATOM     33  O   UNL     1       4.756  -3.200  -0.058  0.00  0.00    -0.126 OA
ATOM     34  O   UNL     1       2.647  -3.236  -0.038  0.00  0.00    -0.126 OA
ENDBRANCH  27  32
ENDBRANCH  22  25
ENDBRANCH  20  21
ENDBRANCH  19  20
ENDBRANCH  18  19
ENDBRANCH   7  18
TORSDOF 7
