REMARK  Name = ZINC40352279
REMARK  14 active torsions:
REMARK  status: ('A' for Active; 'I' for Inactive)
REMARK    1  A    between atoms: C_1  and  C_2
REMARK    2  A    between atoms: C_2  and  C_3
REMARK    3  A    between atoms: C_6  and  C_25
REMARK    4  A    between atoms: C_7  and  C_9
REMARK    5  A    between atoms: C_9  and  C_11
REMARK    6  A    between atoms: C_9  and  O_24
REMARK    7  A    between atoms: C_11  and  O_12
REMARK    8  A    between atoms: O_12  and  C_13
REMARK    9  A    between atoms: C_14  and  N_23
REMARK   10  A    between atoms: C_16  and  C_21
REMARK   11  A    between atoms: C_18  and  O_19
REMARK   12  A    between atoms: O_19  and  C_20
REMARK   13  A    between atoms: C_21  and  O_22
REMARK   14  A    between atoms: C_25  and  C_26
REMARK                            x       y       z     vdW  Elec       q    Type
REMARK                         _______ _______ _______ _____ _____    ______ ____
ROOT
ATOM      1  O   UNL     1      -4.053  -1.753  -4.481  0.00  0.00    -0.484 OA
ENDROOT
BRANCH   1   2
ATOM      2  C   UNL     1      -3.940  -2.822  -5.316  0.00  0.00    +0.183 A 
ATOM      3  C   UNL     1      -2.802  -2.976  -6.102  0.00  0.00    +0.071 A 
ATOM      4  C   UNL     1      -2.691  -4.068  -6.952  0.00  0.00    +0.032 A 
ATOM      5  C   UNL     1      -3.710  -5.000  -7.018  0.00  0.00    -0.017 A 
ATOM      6  C   UNL     1      -4.842  -4.850  -6.239  0.00  0.00    +0.055 A 
ATOM      7  C   UNL     1      -4.958  -3.764  -5.383  0.00  0.00    +0.164 A 
BRANCH   3   8
ATOM      8  N   UNL     1      -1.771  -2.032  -6.035  0.00  0.00    -0.355 N 
ATOM      9  H   UNL     1      -1.849  -1.269  -5.441  0.00  0.00    +0.142 HD
ATOM     10  H   UNL     1      -0.978  -2.141  -6.583  0.00  0.00    +0.142 HD
ENDBRANCH   3   8
BRANCH   7  11
ATOM     11  O   UNL     1      -6.070  -3.621  -4.613  0.00  0.00    -0.491 OA
ATOM     12  C   UNL     1      -7.076  -4.628  -4.733  0.00  0.00    +0.277 C 
ENDBRANCH   7  11
BRANCH   5  13
ATOM     13  C   UNL     1      -3.586  -6.184  -7.943  0.00  0.00    +0.191 C 
BRANCH  13  14
ATOM     14  O   UNL     1      -2.963  -7.267  -7.250  0.00  0.00    -0.390 OA
ATOM     15  H   UNL     1      -2.851  -8.064  -7.785  0.00  0.00    +0.210 HD
ENDBRANCH  13  14
ENDBRANCH   5  13
ENDBRANCH   1   2
BRANCH   1  16
ATOM     16  C   UNL     1      -3.549  -1.911  -3.153  0.00  0.00    +0.265 C 
BRANCH  16  17
ATOM     17  C   UNL     1      -3.763  -0.615  -2.369  0.00  0.00    +0.182 C 
BRANCH  17  22
ATOM     18  C   UNL     1      -1.748  -0.749   0.821  0.00  0.00    -0.047 A 
ATOM     19  C   UNL     1      -2.684  -1.231   1.718  0.00  0.00    +0.004 A 
ATOM     20  C   UNL     1      -3.968  -1.514   1.292  0.00  0.00    +0.004 A 
ATOM     21  C   UNL     1      -4.317  -1.315  -0.030  0.00  0.00    -0.042 A 
ATOM     22  C   UNL     1      -3.382  -0.832  -0.927  0.00  0.00    -0.012 A 
ATOM     23  C   UNL     1      -2.099  -0.545  -0.500  0.00  0.00    +0.010 A 
BRANCH  18  25
ATOM     24  C   UNL     1      -0.276   1.012   1.758  0.00  0.00    +0.009 C 
ATOM     25  C   UNL     1      -0.348  -0.441   1.286  0.00  0.00    +0.032 C 
ENDBRANCH  18  25
BRANCH  21  26
ATOM     26  C   UNL     1      -5.717  -1.624  -0.495  0.00  0.00    +0.032 C 
ATOM     27  C   UNL     1      -5.866  -3.134  -0.695  0.00  0.00    +0.009 C 
ENDBRANCH  21  26
ENDBRANCH  17  22
BRANCH  17  28
ATOM     28  O   UNL     1      -2.949   0.418  -2.926  0.00  0.00    -0.384 OA
ATOM     29  H   UNL     1      -2.001   0.226  -2.907  0.00  0.00    +0.210 HD
ENDBRANCH  17  28
ENDBRANCH  16  17
ENDBRANCH   1  16
TORSDOF 11
