REMARK  Name = ZINC32796267
REMARK  6 active torsions:
REMARK  status: ('A' for Active; 'I' for Inactive)
REMARK    1  A    between atoms: C_4  and  C_7
REMARK    2  A    between atoms: C_7  and  N_8
REMARK    3  A    between atoms: C_9  and  C_11
REMARK    4  A    between atoms: C_11  and  C_12
REMARK    5  A    between atoms: C_12  and  C_14
REMARK    6  A    between atoms: C_12  and  N_21
REMARK                            x       y       z     vdW  Elec       q    Type
REMARK                         _______ _______ _______ _____ _____    ______ ____
ROOT
ATOM      1  C   UNL     1      -2.512   3.627   0.123  0.00  0.00    +0.113 C 
ENDROOT
BRANCH   1   2
ATOM      2  C   UNL     1      -3.181   3.223   1.411  0.00  0.00    -0.027 A 
ATOM      3  C   UNL     1      -3.010   1.943   1.907  0.00  0.00    +0.006 A 
ATOM      4  C   UNL     1      -3.619   1.574   3.091  0.00  0.00    +0.015 A 
ATOM      5  C   UNL     1      -4.408   2.481   3.775  0.00  0.00    +0.018 A 
ATOM      6  C   UNL     1      -4.583   3.759   3.277  0.00  0.00    +0.015 A 
ATOM      7  C   UNL     1      -3.969   4.129   2.095  0.00  0.00    +0.006 A 
ATOM      8 BR   UNL     1      -5.248   1.973   5.392  0.00  0.00    -0.050 Br
ENDBRANCH   1   2
BRANCH   1   9
ATOM      9  N   UNL     1      -1.122   3.164   0.128  0.00  0.00    -0.292 N 
ATOM     10  C   UNL     1      -0.168   3.905   0.726  0.00  0.00    +0.298 C 
ATOM     11  O   UNL     1      -0.443   4.997   1.183  0.00  0.00    -0.253 OA
ATOM     12  N   UNL     1       1.092   3.434   0.817  0.00  0.00    -0.313 N 
ATOM     13  H   UNL     1      -0.857   2.213  -0.356  0.00  0.00    +0.151 HD
ATOM     14  H   UNL     1       1.871   4.038   1.305  0.00  0.00    +0.146 HD
ATOM     15  H   UNL     1       1.341   2.446   0.403  0.00  0.00    +0.146 HD
ENDBRANCH   1   9
BRANCH   1  16
ATOM     16  C   UNL     1      -3.255   2.997  -1.057  0.00  0.00    +0.123 C 
BRANCH  16  18
ATOM     17  N   UNL     1      -3.162   3.075  -3.527  0.00  0.00    -0.311 N 
ATOM     18  C   UNL     1      -2.663   3.498  -2.349  0.00  0.00    +0.215 C 
ATOM     19  O   UNL     1      -1.738   4.282  -2.328  0.00  0.00    -0.276 OA
ATOM     20  H   UNL     1      -4.001   2.364  -3.546  0.00  0.00    +0.149 HD
BRANCH  17  21
ATOM     21  C   UNL     1      -2.587   3.563  -4.784  0.00  0.00    +0.139 C 
BRANCH  21  25
ATOM     22  C   UNL     1      -4.661   1.803  -8.077  0.00  0.00    +0.000 A 
ATOM     23  C   UNL     1      -5.099   3.001  -7.545  0.00  0.00    +0.000 A 
ATOM     24  C   UNL     1      -4.428   3.570  -6.479  0.00  0.00    +0.005 A 
ATOM     25  C   UNL     1      -3.319   2.942  -5.945  0.00  0.00    -0.030 A 
ATOM     26  C   UNL     1      -2.877   1.747  -6.482  0.00  0.00    +0.005 A 
ATOM     27  C   UNL     1      -3.551   1.175  -7.545  0.00  0.00    +0.000 A 
ENDBRANCH  21  25
ENDBRANCH  17  21
ENDBRANCH  16  18
ENDBRANCH   1  16
TORSDOF 6
