REMARK  Name = ZINC15045797
REMARK  12 active torsions:
REMARK  status: ('A' for Active; 'I' for Inactive)
REMARK    1  A    between atoms: C_1  and  N_59
REMARK    2  A    between atoms: C_2  and  C_3
REMARK    3  A    between atoms: C_2  and  N_59
REMARK    4  A    between atoms: C_3  and  O_4
REMARK    5  A    between atoms: O_4  and  C_5
REMARK    6  A    between atoms: C_12  and  C_13
REMARK    7  A    between atoms: C_12  and  N_59
REMARK    8  A    between atoms: N_15  and  C_16
REMARK    9  A    between atoms: C_20  and  S_22
REMARK   10  A    between atoms: S_22  and  N_25
REMARK   11  A    between atoms: N_25  and  C_26
REMARK   12  A    between atoms: N_25  and  C_27
REMARK                            x       y       z     vdW  Elec       q    Type
REMARK                         _______ _______ _______ _____ _____    ______ ____
ROOT
ATOM      1  C   UNL     1       6.537   4.686   3.172  0.00  0.00    +0.201 C 
ATOM      2  O   UNL     1       7.449   4.098   3.715  0.00  0.00    -0.278 OA
ATOM      3  N   UNL     1       5.874   4.107   2.152  0.00  0.00    -0.287 N 
ATOM      4  H   UNL     1       5.197   4.606   1.669  0.00  0.00    +0.155 HD
ENDROOT
BRANCH   3   5
ATOM      5  C   UNL     1       6.163   2.787   1.789  0.00  0.00    +0.035 A 
ATOM      6  C   UNL     1       7.468   2.317   1.853  0.00  0.00    +0.023 A 
ATOM      7  C   UNL     1       7.750   1.014   1.494  0.00  0.00    +0.004 A 
ATOM      8  C   UNL     1       6.734   0.177   1.071  0.00  0.00    +0.029 A 
ATOM      9  C   UNL     1       5.433   0.641   1.006  0.00  0.00    +0.110 A 
ATOM     10  C   UNL     1       5.146   1.946   1.359  0.00  0.00    +0.052 A 
BRANCH   9  11
ATOM     11  S   UNL     1       4.143  -0.429   0.465  0.00  0.00    +0.075 S 
ATOM     12  O   UNL     1       4.729  -1.339  -0.457  0.00  0.00    -0.150 OA
ATOM     13  O   UNL     1       3.043   0.403   0.119  0.00  0.00    -0.150 OA
BRANCH  11  14
ATOM     14  N   UNL     1       3.666  -1.323   1.775  0.00  0.00    -0.206 N 
ATOM     15  C   UNL     1       4.355  -2.575   2.096  0.00  0.00    +0.157 C 
BRANCH  14  16
ATOM     16  C   UNL     1       2.608  -0.883   2.573  0.00  0.00    +0.051 A 
ATOM     17  C   UNL     1       1.846  -1.800   3.286  0.00  0.00    +0.025 A 
ATOM     18  C   UNL     1       0.800  -1.361   4.074  0.00  0.00    +0.002 A 
ATOM     19  C   UNL     1       0.511  -0.011   4.154  0.00  0.00    +0.000 A 
ATOM     20  C   UNL     1       1.268   0.904   3.446  0.00  0.00    +0.002 A 
ATOM     21  C   UNL     1       2.315   0.473   2.656  0.00  0.00    +0.025 A 
ENDBRANCH  14  16
ENDBRANCH  11  14
ENDBRANCH   9  11
ENDBRANCH   3   5
BRANCH   1  22
ATOM     22  C   UNL     1       6.147   6.065   3.639  0.00  0.00    +0.019 C 
BRANCH  22  24
ATOM     23  C   UNL     1       6.784   5.622   5.933  0.00  0.00    -0.095 C 
ATOM     24  N   UNL     1       7.042   6.465   4.746  0.00  0.00    +0.386 N 
ATOM     25  H   UNL     1       8.016   6.335   4.450  0.00  0.00    -0.081 HD
BRANCH  24  26
ATOM     26  C   UNL     1       6.826   7.888   5.080  0.00  0.00    -0.037 C 
BRANCH  26  27
ATOM     27  C   UNL     1       7.909   8.333   6.065  0.00  0.00    +0.211 C 
BRANCH  27  28
ATOM     28  O   UNL     1       9.188   8.257   5.433  0.00  0.00    -0.491 OA
BRANCH  28  29
ATOM     29  C   UNL     1      10.267   8.620   6.176  0.00  0.00    +0.155 A 
ATOM     30  C   UNL     1      10.098   9.047   7.484  0.00  0.00    +0.048 A 
ATOM     31  C   UNL     1      11.196   9.412   8.239  0.00  0.00    +0.004 A 
ATOM     32  C   UNL     1      12.463   9.362   7.689  0.00  0.00    +0.003 A 
ATOM     33  C   UNL     1      12.636   8.942   6.383  0.00  0.00    +0.042 A 
ATOM     34  C   UNL     1      11.541   8.571   5.624  0.00  0.00    +0.165 A 
ATOM     35  F   UNL     1      11.710   8.161   4.348  0.00  0.00    -0.202 F 
ENDBRANCH  28  29
ENDBRANCH  27  28
ENDBRANCH  26  27
ENDBRANCH  24  26
ENDBRANCH  22  24
ENDBRANCH   1  22
TORSDOF 10
