REMARK  Name = ZINC34747228
REMARK  8 active torsions:
REMARK  status: ('A' for Active; 'I' for Inactive)
REMARK    1  A    between atoms: C_1  and  C_2
REMARK    2  A    between atoms: C_2  and  C_3
REMARK    3  A    between atoms: C_3  and  C_4
REMARK    4  A    between atoms: C_4  and  N_5
REMARK    5  A    between atoms: N_24  and  C_25
REMARK    6  A    between atoms: C_25  and  C_26
REMARK    7  A    between atoms: N_28  and  C_29
REMARK    8  A    between atoms: C_32  and  C_35
REMARK                            x       y       z     vdW  Elec       q    Type
REMARK                         _______ _______ _______ _____ _____    ______ ____
ROOT
ATOM      1  N   UNL     1      -3.681  -1.720   0.062  0.00  0.00    +0.382 N 
ATOM      2  C   UNL     1      -5.129  -1.882   0.242  0.00  0.00    -0.060 C 
ATOM      3  C   UNL     1      -5.469  -3.374   0.323  0.00  0.00    +0.089 C 
ATOM      4  N   UNL     1      -4.927  -4.041  -0.871  0.00  0.00    -0.304 N 
ATOM      5  C   UNL     1      -3.518  -3.801  -1.220  0.00  0.00    +0.089 C 
ATOM      6  C   UNL     1      -3.270  -2.289  -1.228  0.00  0.00    -0.060 C 
ATOM      7  C   UNL     1      -5.713  -4.864  -1.638  0.00  0.00    +0.202 A 
ATOM      8  N   UNL     1      -6.472  -4.344  -2.581  0.00  0.00    -0.208 NA
ATOM      9  C   UNL     1      -7.242  -5.117  -3.337  0.00  0.00    +0.117 A 
ATOM     10  C   UNL     1      -7.290  -6.511  -3.176  0.00  0.00    +0.076 A 
ATOM     11  C   UNL     1      -8.186  -7.230  -4.083  0.00  0.00    -0.023 A 
ATOM     12  C   UNL     1      -8.873  -6.491  -4.977  0.00  0.00    -0.004 A 
ATOM     13  S   UNL     1      -8.375  -4.818  -4.671  0.00  0.00    -0.073 S 
ATOM     14  C   UNL     1      -9.846  -6.983  -6.006  0.00  0.00    +0.043 C 
ATOM     15  C   UNL     1      -9.676  -8.503  -6.146  0.00  0.00    +0.005 C 
ATOM     16  C   UNL     1      -9.650  -9.125  -4.747  0.00  0.00    +0.005 C 
ATOM     17  C   UNL     1      -8.351  -8.747  -4.034  0.00  0.00    +0.037 C 
ATOM     18  C   UNL     1      -6.455  -7.048  -2.145  0.00  0.00    +0.264 A 
ATOM     19  O   UNL     1      -6.429  -8.248  -1.932  0.00  0.00    -0.267 OA
ATOM     20  N   UNL     1      -5.694  -6.210  -1.417  0.00  0.00    -0.271 N 
ATOM     21  H   UNL     1      -3.196  -2.197   0.808  0.00  0.00    -0.082 HD
ENDROOT
BRANCH   1  22
ATOM     22  C   UNL     1      -3.342  -0.291   0.095  0.00  0.00    -0.079 C 
BRANCH  22  23
ATOM     23  C   UNL     1      -3.654   0.275   1.482  0.00  0.00    -0.019 C 
BRANCH  23  25
ATOM     24  C   UNL     1      -3.613   2.330   2.903  0.00  0.00    +0.004 C 
ATOM     25  C   UNL     1      -3.301   1.764   1.516  0.00  0.00    -0.005 C 
ENDBRANCH  23  25
ENDBRANCH  22  23
ENDBRANCH   1  22
BRANCH  20  26
ATOM     26  C   UNL     1      -4.833  -6.752  -0.363  0.00  0.00    +0.224 C 
BRANCH  26  27
ATOM     27  C   UNL     1      -5.632  -6.914   0.904  0.00  0.00    +0.237 C 
ATOM     28  O   UNL     1      -6.805  -6.606   0.925  0.00  0.00    -0.274 OA
ATOM     29  N   UNL     1      -5.043  -7.400   2.014  0.00  0.00    -0.284 N 
ATOM     30  H   UNL     1      -4.087  -7.567   2.023  0.00  0.00    +0.155 HD
BRANCH  29  31
ATOM     31  C   UNL     1      -5.809  -7.665   3.155  0.00  0.00    +0.033 A 
ATOM     32  C   UNL     1      -5.221  -7.633   4.412  0.00  0.00    +0.023 A 
ATOM     33  C   UNL     1      -5.980  -7.894   5.535  0.00  0.00    +0.005 A 
ATOM     34  C   UNL     1      -7.325  -8.189   5.409  0.00  0.00    -0.050 A 
ATOM     35  C   UNL     1      -7.915  -8.222   4.159  0.00  0.00    +0.005 A 
ATOM     36  C   UNL     1      -7.162  -7.955   3.032  0.00  0.00    +0.023 A 
ATOM     37  C   UNL     1      -8.151  -8.474   6.637  0.00  0.00    +0.044 C 
ENDBRANCH  29  31
ENDBRANCH  26  27
ENDBRANCH  20  26
TORSDOF 6
