REMARK  Name = ZINC64817217
REMARK  13 active torsions:
REMARK  status: ('A' for Active; 'I' for Inactive)
REMARK    1  A    between atoms: C_1  and  C_2
REMARK    2  A    between atoms: C_2  and  N_3
REMARK    3  A    between atoms: C_6  and  C_8
REMARK    4  A    between atoms: C_10  and  S_23
REMARK    5  A    between atoms: N_11  and  C_14
REMARK    6  A    between atoms: C_14  and  C_15
REMARK    7  A    between atoms: C_18  and  O_21
REMARK    8  A    between atoms: O_21  and  C_22
REMARK    9  A    between atoms: S_23  and  C_24
REMARK   10  A    between atoms: C_24  and  C_25
REMARK   11  A    between atoms: N_27  and  C_28
REMARK   12  A    between atoms: C_28  and  C_29
REMARK   13  A    between atoms: C_29  and  C_30
REMARK                            x       y       z     vdW  Elec       q    Type
REMARK                         _______ _______ _______ _____ _____    ______ ____
ROOT
ATOM      1  N   UNL     1       0.688  -0.476  -1.203  0.00  0.00    -0.257 N 
ATOM      2  C   UNL     1       0.102  -0.741  -2.413  0.00  0.00    +0.152 A 
ATOM      3  C   UNL     1       1.121  -1.166  -3.274  0.00  0.00    +0.119 A 
ATOM      4  C   UNL     1       2.320  -1.143  -2.537  0.00  0.00    +0.086 A 
ATOM      5  N   UNL     1       2.060  -0.732  -1.325  0.00  0.00    -0.174 NA
ATOM      6  C   UNL     1       3.680  -1.523  -3.062  0.00  0.00    +0.070 C 
ATOM      7  N   UNL     1       0.815  -1.497  -4.552  0.00  0.00    -0.220 NA
ATOM      8  C   UNL     1      -0.420  -1.425  -4.990  0.00  0.00    +0.173 A 
ATOM      9  N   UNL     1      -1.449  -1.017  -4.190  0.00  0.00    -0.282 N 
ATOM     10  C   UNL     1      -1.220  -0.671  -2.904  0.00  0.00    +0.281 A 
ATOM     11  O   UNL     1      -2.134  -0.306  -2.184  0.00  0.00    -0.265 OA
ENDROOT
BRANCH   1  13
ATOM     12  C   UNL     1      -0.019   1.526   0.010  0.00  0.00    +0.029 C 
ATOM     13  C   UNL     1       0.002  -0.004   0.002  0.00  0.00    +0.141 C 
ENDBRANCH   1  13
BRANCH   9  14
ATOM     14  C   UNL     1      -2.809  -0.953  -4.729  0.00  0.00    +0.162 C 
BRANCH  14  15
ATOM     15  C   UNL     1      -3.497  -2.277  -4.514  0.00  0.00    -0.027 A 
ATOM     16  C   UNL     1      -3.405  -3.267  -5.474  0.00  0.00    +0.009 A 
ATOM     17  C   UNL     1      -4.035  -4.481  -5.278  0.00  0.00    +0.046 A 
ATOM     18  C   UNL     1      -4.761  -4.706  -4.118  0.00  0.00    +0.120 A 
ATOM     19  C   UNL     1      -4.852  -3.710  -3.156  0.00  0.00    +0.046 A 
ATOM     20  C   UNL     1      -4.215  -2.500  -3.353  0.00  0.00    +0.009 A 
BRANCH  18  21
ATOM     21  O   UNL     1      -5.382  -5.899  -3.924  0.00  0.00    -0.495 OA
ATOM     22  C   UNL     1      -6.111  -6.059  -2.705  0.00  0.00    +0.277 C 
ENDBRANCH  18  21
ENDBRANCH  14  15
ENDBRANCH   9  14
BRANCH   8  23
ATOM     23  S   UNL     1      -0.761  -1.866  -6.662  0.00  0.00    -0.078 S 
BRANCH  23  24
ATOM     24  C   UNL     1       0.860  -2.332  -7.332  0.00  0.00    +0.173 C 
BRANCH  24  25
ATOM     25  C   UNL     1       0.709  -2.737  -8.775  0.00  0.00    +0.223 C 
ATOM     26  O   UNL     1      -0.385  -2.714  -9.300  0.00  0.00    -0.275 OA
ATOM     27  N   UNL     1       1.788  -3.126  -9.483  0.00  0.00    -0.314 N 
ATOM     28  H   UNL     1       2.662  -3.144  -9.062  0.00  0.00    +0.149 HD
BRANCH  27  29
ATOM     29  C   UNL     1       1.641  -3.519 -10.886  0.00  0.00    +0.109 C 
BRANCH  29  30
ATOM     30  C   UNL     1       3.008  -3.912 -11.451  0.00  0.00    +0.054 C 
BRANCH  30  31
ATOM     31  C   UNL     1       2.857  -4.317 -12.895  0.00  0.00    -0.046 A 
ATOM     32  C   UNL     1       2.596  -5.636 -13.219  0.00  0.00    +0.004 A 
ATOM     33  C   UNL     1       2.457  -6.007 -14.543  0.00  0.00    +0.000 A 
ATOM     34  C   UNL     1       2.579  -5.061 -15.543  0.00  0.00    +0.000 A 
ATOM     35  C   UNL     1       2.840  -3.743 -15.219  0.00  0.00    +0.000 A 
ATOM     36  C   UNL     1       2.974  -3.370 -13.894  0.00  0.00    +0.004 A 
ENDBRANCH  30  31
ENDBRANCH  29  30
ENDBRANCH  27  29
ENDBRANCH  24  25
ENDBRANCH  23  24
ENDBRANCH   8  23
TORSDOF 10
