REMARK  Name = ZINC08792525
REMARK  10 active torsions:
REMARK  status: ('A' for Active; 'I' for Inactive)
REMARK    1  A    between atoms: C_1  and  C_2
REMARK    2  A    between atoms: C_2  and  N_70
REMARK    3  A    between atoms: C_6  and  C_8
REMARK    4  A    between atoms: C_8  and  N_9
REMARK    5  A    between atoms: C_10  and  C_12
REMARK    6  A    between atoms: C_12  and  O_13
REMARK    7  A    between atoms: O_13  and  C_14
REMARK    8  A    between atoms: C_19  and  C_20
REMARK    9  A    between atoms: C_20  and  C_21
REMARK   10  A    between atoms: C_21  and  C_23
REMARK                            x       y       z     vdW  Elec       q    Type
REMARK                         _______ _______ _______ _____ _____    ______ ____
ROOT
ATOM      1  C   UNL     1      -3.649   1.547   0.433  0.00  0.00    +0.125 A 
ATOM      2  C   UNL     1      -3.834   2.921   0.528  0.00  0.00    +0.048 A 
ATOM      3  C   UNL     1      -5.103   3.449   0.632  0.00  0.00    +0.030 A 
ATOM      4  C   UNL     1      -6.211   2.611   0.654  0.00  0.00    +0.058 A 
ATOM      5  C   UNL     1      -6.025   1.218   0.564  0.00  0.00    +0.015 A 
ATOM      6  C   UNL     1      -4.739   0.697   0.454  0.00  0.00    +0.008 A 
ATOM      7  C   UNL     1      -7.365   0.612   0.613  0.00  0.00    +0.012 A 
ATOM      8  C   UNL     1      -7.935  -0.657   0.573  0.00  0.00    +0.030 A 
ATOM      9  C   UNL     1      -9.315  -0.766   0.655  0.00  0.00    +0.112 A 
ATOM     10  N   UNL     1     -10.110   0.285   0.768  0.00  0.00    -0.253 NA
ATOM     11  C   UNL     1      -9.617   1.514   0.809  0.00  0.00    +0.096 A 
ATOM     12  C   UNL     1      -8.242   1.687   0.730  0.00  0.00    +0.084 A 
ATOM     13  N   UNL     1      -7.577   2.877   0.756  0.00  0.00    -0.274 N 
ATOM     14  C   UNL     1      -8.288   4.022   0.867  0.00  0.00    +0.264 A 
ATOM     15  O   UNL     1      -7.712   5.093   0.889  0.00  0.00    -0.267 OA
ATOM     16  C   UNL     1      -9.758   3.976   0.961  0.00  0.00    +0.049 A 
ATOM     17  C   UNL     1     -10.435   2.736   0.935  0.00  0.00    +0.015 A 
ATOM     18  C   UNL     1     -11.819   2.693   1.026  0.00  0.00    +0.011 A 
ATOM     19  C   UNL     1     -12.533   3.870   1.143  0.00  0.00    +0.001 A 
ATOM     20  C   UNL     1     -11.875   5.090   1.167  0.00  0.00    +0.001 A 
ATOM     21  C   UNL     1     -10.500   5.152   1.078  0.00  0.00    +0.014 A 
ENDROOT
BRANCH   1  22
ATOM     22  O   UNL     1      -2.393   1.037   0.327  0.00  0.00    -0.482 OA
BRANCH  22  23
ATOM     23  C   UNL     1      -1.312   1.972   0.312  0.00  0.00    +0.324 C 
BRANCH  23  25
ATOM     24  N   UNL     1       1.155   1.910   0.149  0.00  0.00    -0.314 N 
ATOM     25  C   UNL     1      -0.007   1.229   0.189  0.00  0.00    +0.251 C 
ATOM     26  O   UNL     1      -0.002   0.018   0.120  0.00  0.00    -0.272 OA
ATOM     27  H   UNL     1       1.152   2.879   0.204  0.00  0.00    +0.149 HD
BRANCH  24  28
ATOM     28  C   UNL     1       2.424   1.188   0.023  0.00  0.00    +0.089 C 
BRANCH  28  32
ATOM     29  C   UNL     1       5.507   1.748  -1.464  0.00  0.00    -0.078 C 
ATOM     30  C   UNL     1       4.898   3.091  -1.939  0.00  0.00    -0.020 C 
ATOM     31  C   UNL     1       3.429   2.957  -1.457  0.00  0.00    -0.016 C 
ATOM     32  C   UNL     1       3.570   2.192  -0.124  0.00  0.00    -0.051 C 
ATOM     33  N   UNL     1       4.866   1.496  -0.159  0.00  0.00    +0.382 N 
ATOM     34  H   UNL     1       5.467   1.859   0.591  0.00  0.00    -0.081 HD
BRANCH  33  36
ATOM     35  C   UNL     1       6.013  -0.681  -0.106  0.00  0.00    -0.017 C 
ATOM     36  C   UNL     1       4.670   0.036   0.042  0.00  0.00    -0.082 C 
ENDBRANCH  33  36
ENDBRANCH  28  32
ENDBRANCH  24  28
ENDBRANCH  23  25
ENDBRANCH  22  23
ENDBRANCH   1  22
BRANCH   6  37
ATOM     37  C   UNL     1      -4.535  -0.793   0.356  0.00  0.00    +0.069 C 
BRANCH  37  38
ATOM     38  C   UNL     1      -4.378  -1.371   1.739  0.00  0.00    -0.075 C 
ATOM     39  C   UNL     1      -5.417  -1.869   2.363  0.00  0.00    +0.007 C 
ATOM     40  C   UNL     1      -3.026  -1.375   2.405  0.00  0.00    +0.039 C 
ENDBRANCH  37  38
ENDBRANCH   6  37
TORSDOF 8
