REMARK  Name = ZINC04823533
REMARK  5 active torsions:
REMARK  status: ('A' for Active; 'I' for Inactive)
REMARK    1  A    between atoms: N_7  and  C1*_11
REMARK    2  A    between atoms: C2*_13  and  O2*_23
REMARK    3  A    between atoms: C3*_15  and  O3*_22
REMARK    4  A    between atoms: C4*_17  and  C5*_20
REMARK    5  A    between atoms: C5*_20  and  O5*_21
REMARK                            x       y       z     vdW  Elec       q    Type
REMARK                         _______ _______ _______ _____ _____    ______ ____
ROOT
ATOM      1  C   UNL     1      -0.016   1.313   0.009  0.00  0.00    +0.225 A 
ATOM      2  N   UNL     1       1.090   2.033   0.003  0.00  0.00    -0.219 NA
ATOM      3  C   UNL     1       2.287   1.449  -0.012  0.00  0.00    +0.145 A 
ATOM      4  C   UNL     1       2.349   0.056  -0.020  0.00  0.00    +0.124 A 
ATOM      5  C   UNL     1       1.155  -0.666  -0.012  0.00  0.00    +0.166 A 
ATOM      6  N   UNL     1       0.002  -0.004   0.002  0.00  0.00    -0.216 NA
ATOM      7  N   UNL     1       1.496  -2.005  -0.022  0.00  0.00    -0.275 N 
ATOM      8  C   UNL     1       2.839  -2.106  -0.035  0.00  0.00    +0.162 A 
ATOM      9  N   UNL     1       3.384  -0.874  -0.034  0.00  0.00    -0.330 N 
ATOM     10  S   UNL     1       3.719  -3.575  -0.050  0.00  0.00    -0.013 S 
ATOM     11  N   UNL     1       3.446   2.211  -0.019  0.00  0.00    -0.341 N 
ATOM     12  H   UNL     1       3.391   3.179  -0.014  0.00  0.00    +0.144 HD
ATOM     13  H   UNL     1       4.313   1.775  -0.030  0.00  0.00    +0.144 HD
ATOM     14  H   UNL     1       4.333  -0.671  -0.042  0.00  0.00    +0.168 HD
ENDROOT
BRANCH   7  15
ATOM     15  C1* UNL     1       0.554  -3.128  -0.018  0.00  0.00    +0.254 C 
ATOM     16  C2* UNL     1       0.725  -3.977  -1.298  0.00  0.00    +0.195 C 
ATOM     17  C3* UNL     1      -0.716  -4.401  -1.661  0.00  0.00    +0.178 C 
ATOM     18  C4* UNL     1      -1.586  -3.758  -0.559  0.00  0.00    +0.177 C 
ATOM     19  O4* UNL     1      -0.805  -2.643  -0.073  0.00  0.00    -0.346 OA
BRANCH  17  20
ATOM     20  O3* UNL     1      -1.077  -3.895  -2.948  0.00  0.00    -0.386 OA
ATOM     21  H3* UNL     1      -1.972  -4.132  -3.226  0.00  0.00    +0.210 HD
ENDBRANCH  17  20
BRANCH  16  22
ATOM     22  O2* UNL     1       1.299  -3.194  -2.346  0.00  0.00    -0.385 OA
ATOM     23  H2* UNL     1       1.428  -3.678  -3.173  0.00  0.00    +0.210 HD
ENDBRANCH  16  22
BRANCH  18  24
ATOM     24  C5* UNL     1      -2.912  -3.268  -1.145  0.00  0.00    +0.190 C 
BRANCH  24  25
ATOM     25  O5* UNL     1      -3.748  -2.784  -0.093  0.00  0.00    -0.392 OA
ATOM     26  H5* UNL     1      -4.607  -2.457  -0.392  0.00  0.00    +0.210 HD
ENDBRANCH  24  25
ENDBRANCH  18  24
ENDBRANCH   7  15
TORSDOF 5
