REMARK  Name = ZINC39458298
REMARK  10 active torsions:
REMARK  status: ('A' for Active; 'I' for Inactive)
REMARK    1  A    between atoms: C_1  and  C_2
REMARK    2  A    between atoms: C_2  and  C_3
REMARK    3  A    between atoms: C_2  and  C_4
REMARK    4  A    between atoms: C_4  and  N_5
REMARK    5  A    between atoms: C_6  and  N_32
REMARK    6  A    between atoms: C_8  and  C_15
REMARK    7  A    between atoms: C_15  and  C_17
REMARK    8  A    between atoms: C_17  and  S_18
REMARK    9  A    between atoms: S_18  and  C_19
REMARK   10  A    between atoms: C_22  and  C_25
REMARK                            x       y       z     vdW  Elec       q    Type
REMARK                         _______ _______ _______ _____ _____    ______ ____
ROOT
ATOM      1  C   UNL     1       2.746   2.230   0.784  0.00  0.00    +0.155 C 
ATOM      2  O   UNL     1       1.880   1.521   1.236  0.00  0.00    -0.296 OA
ENDROOT
BRANCH   1   5
ATOM      3  N   UNL     1       2.059  -0.106  -1.012  0.00  0.00    -0.297 N 
ATOM      4  C   UNL     1       2.297   1.269  -1.459  0.00  0.00    +0.037 C 
ATOM      5  C   UNL     1       3.354   1.914  -0.559  0.00  0.00    +0.146 C 
ATOM      6  C   UNL     1       4.505   0.958  -0.378  0.00  0.00    +0.250 C 
ATOM      7  O   UNL     1       5.752   1.435  -0.237  0.00  0.00    -0.273 OA
ATOM      8  N   UNL     1       4.299  -0.329  -0.358  0.00  0.00    -0.127 NA
ATOM      9  C   UNL     1       3.071  -0.847  -0.527  0.00  0.00    +0.327 C 
ATOM     10  O   UNL     1       2.871  -2.013  -0.240  0.00  0.00    -0.250 OA
BRANCH   4  11
ATOM     11  N   UNL     1       1.046   2.035  -1.377  0.00  0.00    +0.391 N 
ATOM     12  H   UNL     1       0.662   1.954  -0.448  0.00  0.00    -0.087 HD
ATOM     13  H   UNL     1       1.233   3.006  -1.580  0.00  0.00    -0.087 HD
ATOM     14  H   UNL     1       0.385   1.673  -2.047  0.00  0.00    -0.087 HD
ENDBRANCH   4  11
BRANCH   3  15
ATOM     15  C   UNL     1       0.711  -0.675  -1.088  0.00  0.00    +0.110 C 
BRANCH  15  17
ATOM     16  C   UNL     1       1.453  -2.366  -2.771  0.00  0.00    +0.009 C 
ATOM     17  C   UNL     1       0.469  -1.227  -2.494  0.00  0.00    +0.000 C 
ATOM     18  C   UNL     1      -0.964  -1.755  -2.596  0.00  0.00    +0.009 C 
ENDBRANCH  15  17
ENDBRANCH   3  15
ENDBRANCH   1   5
BRANCH   1  19
ATOM     19  C   UNL     1       3.219   3.432   1.561  0.00  0.00    +0.152 C 
BRANCH  19  20
ATOM     20  S   UNL     1       2.303   3.541   3.122  0.00  0.00    -0.079 S 
BRANCH  20  21
ATOM     21  C   UNL     1       2.962   4.976   3.904  0.00  0.00    +0.185 A 
ATOM     22  N   UNL     1       3.904   5.755   3.420  0.00  0.00    -0.201 NA
ATOM     23  H   UNL     1       1.905   5.108   5.693  0.00  0.00    +0.191 HD
ATOM     24  C   UNL     1       4.153   6.750   4.284  0.00  0.00    +0.183 A 
ATOM     25  N   UNL     1       3.369   6.613   5.329  0.00  0.00    -0.152 NA
ATOM     26  N   UNL     1       2.584   5.471   5.104  0.00  0.00    -0.253 N 
BRANCH  24  27
ATOM     27  C   UNL     1       5.152   7.830   4.091  0.00  0.00    +0.035 A 
ATOM     28  C   UNL     1       5.923   7.870   2.931  0.00  0.00    +0.013 A 
ATOM     29  C   UNL     1       6.851   8.877   2.756  0.00  0.00    +0.001 A 
ATOM     30  C   UNL     1       7.016   9.846   3.730  0.00  0.00    +0.001 A 
ATOM     31  C   UNL     1       6.254   9.812   4.883  0.00  0.00    +0.016 A 
ATOM     32  C   UNL     1       5.319   8.812   5.066  0.00  0.00    +0.029 A 
ATOM     33 BR   UNL     1       4.272   8.771   6.640  0.00  0.00    -0.050 Br
ENDBRANCH  24  27
ENDBRANCH  20  21
ENDBRANCH  19  20
ENDBRANCH   1  19
TORSDOF 8
