REMARK  Name = ZINC59794839
REMARK  11 active torsions:
REMARK  status: ('A' for Active; 'I' for Inactive)
REMARK    1  A    between atoms: C_1  and  O_2
REMARK    2  A    between atoms: O_2  and  C_3
REMARK    3  A    between atoms: C_3  and  C_5
REMARK    4  A    between atoms: C_9  and  N_10
REMARK    5  A    between atoms: C_11  and  C_13
REMARK    6  A    between atoms: C_13  and  C_14
REMARK    7  A    between atoms: C_14  and  S_15
REMARK    8  A    between atoms: S_15  and  C_16
REMARK    9  A    between atoms: C_19  and  C_24
REMARK   10  A    between atoms: N_20  and  C_21
REMARK   11  A    between atoms: C_21  and  C_22
REMARK                            x       y       z     vdW  Elec       q    Type
REMARK                         _______ _______ _______ _____ _____    ______ ____
ROOT
ATOM      1  C   UNL     1      -3.734  -3.074   3.217  0.00  0.00    +0.107 C 
ENDROOT
BRANCH   1   3
ATOM      2  N   UNL     1      -1.992  -2.819   1.480  0.00  0.00    -0.279 N 
ATOM      3  C   UNL     1      -2.863  -3.625   2.117  0.00  0.00    +0.218 C 
ATOM      4  O   UNL     1      -2.947  -4.794   1.806  0.00  0.00    -0.275 OA
ATOM      5  H   UNL     1      -1.925  -1.884   1.730  0.00  0.00    +0.155 HD
BRANCH   2  10
ATOM      6  C   UNL     1      -0.245  -2.650  -0.289  0.00  0.00    +0.091 A 
ATOM      7  C   UNL     1       0.472  -3.419  -1.292  0.00  0.00    -0.021 A 
ATOM      8  C   UNL     1       0.109  -4.718  -1.357  0.00  0.00    -0.004 A 
ATOM      9  S   UNL     1      -1.143  -4.897  -0.121  0.00  0.00    -0.077 S 
ATOM     10  C   UNL     1      -1.190  -3.325   0.469  0.00  0.00    +0.086 A 
ATOM     11  C   UNL     1       0.659  -5.760  -2.282  0.00  0.00    +0.043 C 
ATOM     12  C   UNL     1       1.430  -5.051  -3.404  0.00  0.00    +0.005 C 
ATOM     13  C   UNL     1       2.365  -4.009  -2.782  0.00  0.00    +0.005 C 
ATOM     14  C   UNL     1       1.545  -2.850  -2.209  0.00  0.00    +0.037 C 
BRANCH   6  15
ATOM     15  C   UNL     1       0.022  -1.226  -0.084  0.00  0.00    +0.342 C 
ATOM     16  O   UNL     1       0.874  -0.875   0.710  0.00  0.00    -0.245 OA
BRANCH  15  18
ATOM     17  C   UNL     1      -0.363   1.070  -0.525  0.00  0.00    +0.280 C 
ATOM     18  O   UNL     1      -0.676  -0.301  -0.775  0.00  0.00    -0.464 OA
ENDBRANCH  15  18
ENDBRANCH   6  15
ENDBRANCH   2  10
ENDBRANCH   1   3
BRANCH   1  19
ATOM     19  C   UNL     1      -4.625  -4.189   3.769  0.00  0.00    +0.086 C 
BRANCH  19  20
ATOM     20  S   UNL     1      -5.674  -3.526   5.092  0.00  0.00    -0.086 S 
BRANCH  20  21
ATOM     21  C   UNL     1      -6.627  -4.912   5.616  0.00  0.00    +0.192 A 
ATOM     22  N   UNL     1      -6.557  -6.133   5.134  0.00  0.00    -0.122 NA
ATOM     23  N   UNL     1      -7.392  -6.896   5.744  0.00  0.00    -0.128 NA
ATOM     24  C   UNL     1      -8.046  -6.210   6.652  0.00  0.00    +0.165 A 
ATOM     25  N   UNL     1      -7.572  -4.919   6.602  0.00  0.00    -0.298 N 
BRANCH  24  26
ATOM     26  C   UNL     1      -9.090  -6.728   7.562  0.00  0.00    +0.021 A 
ATOM     27  C   UNL     1     -10.148  -5.906   7.955  0.00  0.00    +0.011 A 
ATOM     28  C   UNL     1     -11.119  -6.394   8.803  0.00  0.00    +0.002 A 
ATOM     29  C   UNL     1     -11.047  -7.696   9.266  0.00  0.00    +0.020 A 
ATOM     30  C   UNL     1     -10.001  -8.517   8.881  0.00  0.00    +0.042 A 
ATOM     31  C   UNL     1      -9.025  -8.042   8.027  0.00  0.00    +0.031 A 
ATOM     32 CL   UNL     1      -9.919 -10.149   9.467  0.00  0.00    -0.084 Cl
ENDBRANCH  24  26
BRANCH  25  33
ATOM     33  C   UNL     1      -7.995  -3.788   7.431  0.00  0.00    +0.152 C 
BRANCH  33  34
ATOM     34  C   UNL     1      -9.030  -2.982   6.690  0.00  0.00    -0.013 C 
ATOM     35  C   UNL     1     -10.180  -2.713   7.257  0.00  0.00    +0.005 C 
ENDBRANCH  33  34
ENDBRANCH  25  33
ENDBRANCH  20  21
ENDBRANCH  19  20
ENDBRANCH   1  19
TORSDOF 10
