REMARK  Name = ZINC64873689
REMARK  6 active torsions:
REMARK  status: ('A' for Active; 'I' for Inactive)
REMARK    1  A    between atoms: C_3  and  N_23
REMARK    2  A    between atoms: C_6  and  C_7
REMARK    3  A    between atoms: C_11  and  C_13
REMARK    4  A    between atoms: C_13  and  C_14
REMARK    5  A    between atoms: C_14  and  N_15
REMARK    6  A    between atoms: N_15  and  C_16
REMARK                            x       y       z     vdW  Elec       q    Type
REMARK                         _______ _______ _______ _____ _____    ______ ____
ROOT
ATOM      1  C   UNL     1      -1.267  -0.762   0.011  0.00  0.00    +0.156 A 
ATOM      2  N   UNL     1      -2.513  -0.232   0.020  0.00  0.00    -0.259 N 
ATOM      3  H   UNL     1      -2.744   0.710   0.022  0.00  0.00    +0.191 HD
ATOM      4  N   UNL     1      -3.402  -1.319   0.025  0.00  0.00    -0.157 NA
ATOM      5  C   UNL     1      -2.677  -2.407   0.019  0.00  0.00    +0.153 A 
ATOM      6  N   UNL     1      -1.389  -2.075   0.005  0.00  0.00    -0.211 NA
ENDROOT
BRANCH   1  12
ATOM      7  C   UNL     1      -0.017   1.392   0.010  0.00  0.00    +0.013 A 
ATOM      8  C   UNL     1       1.167   2.095   0.002  0.00  0.00    +0.023 A 
ATOM      9  C   UNL     1       2.381   1.417  -0.013  0.00  0.00    +0.025 A 
ATOM     10  C   UNL     1       2.403   0.026  -0.021  0.00  0.00    +0.023 A 
ATOM     11  C   UNL     1       1.222  -0.683  -0.014  0.00  0.00    +0.013 A 
ATOM     12  C   UNL     1       0.002  -0.004   0.002  0.00  0.00    +0.019 A 
BRANCH   9  13
ATOM     13  N   UNL     1       3.578   2.131  -0.022  0.00  0.00    -0.358 N 
ATOM     14  H   UNL     1       3.564   3.101  -0.017  0.00  0.00    +0.142 HD
ATOM     15  H   UNL     1       4.425   1.659  -0.033  0.00  0.00    +0.142 HD
ENDBRANCH   9  13
ENDBRANCH   1  12
BRANCH   5  16
ATOM     16  C   UNL     1      -3.215  -3.815   0.022  0.00  0.00    +0.096 C 
BRANCH  16  17
ATOM     17  C   UNL     1      -3.406  -4.290  -1.419  0.00  0.00    +0.109 C 
BRANCH  17  18
ATOM     18  N   UNL     1      -3.929  -5.659  -1.417  0.00  0.00    -0.343 N 
ATOM     19  H   UNL     1      -4.097  -6.112  -0.576  0.00  0.00    +0.146 HD
BRANCH  18  20
ATOM     20  C   UNL     1      -4.187  -6.311  -2.625  0.00  0.00    +0.027 A 
ATOM     21  C   UNL     1      -3.942  -5.665  -3.830  0.00  0.00    +0.024 A 
ATOM     22  C   UNL     1      -4.198  -6.311  -5.023  0.00  0.00    +0.017 A 
ATOM     23  C   UNL     1      -4.698  -7.602  -5.019  0.00  0.00    +0.018 A 
ATOM     24  C   UNL     1      -4.942  -8.248  -3.820  0.00  0.00    +0.017 A 
ATOM     25  C   UNL     1      -4.683  -7.608  -2.624  0.00  0.00    +0.024 A 
ATOM     26 BR   UNL     1      -5.048  -8.483  -6.655  0.00  0.00    -0.050 Br
ENDBRANCH  18  20
ENDBRANCH  17  18
ENDBRANCH  16  17
ENDBRANCH   5  16
TORSDOF 6
