REMARK  Name = ZINC58850009
REMARK  9 active torsions:
REMARK  status: ('A' for Active; 'I' for Inactive)
REMARK    1  A    between atoms: C_1  and  O_2
REMARK    2  A    between atoms: O_2  and  C_3
REMARK    3  A    between atoms: C_6  and  C_11
REMARK    4  A    between atoms: C_8  and  O_9
REMARK    5  A    between atoms: O_9  and  C_10
REMARK    6  A    between atoms: C_22  and  S_27
REMARK    7  A    between atoms: S_27  and  N_30
REMARK    8  A    between atoms: N_30  and  C_31
REMARK    9  A    between atoms: C_35  and  N_37
REMARK                            x       y       z     vdW  Elec       q    Type
REMARK                         _______ _______ _______ _____ _____    ______ ____
ROOT
ATOM      1  C   UNL     1      -0.327  -4.360  -7.262  0.00  0.00    +0.105 C 
ATOM      2  C   UNL     1       0.669  -4.019  -6.194  0.00  0.00    +0.029 C 
ATOM      3  C   UNL     1       0.318  -2.707  -5.464  0.00  0.00    +0.033 C 
ATOM      4  C   UNL     1       1.661  -2.182  -4.999  0.00  0.00    -0.030 C 
ATOM      5  C   UNL     1       2.638  -2.755  -5.652  0.00  0.00    -0.023 C 
ATOM      6  C   UNL     1       2.088  -3.723  -6.671  0.00  0.00    +0.049 C 
ATOM      7  C   UNL     1       2.132  -3.055  -8.017  0.00  0.00    -0.018 A 
ATOM      8  C   UNL     1       3.321  -2.465  -8.420  0.00  0.00    +0.034 A 
ATOM      9  C   UNL     1       3.408  -1.830  -9.642  0.00  0.00    +0.109 A 
ATOM     10  C   UNL     1       2.306  -1.777 -10.477  0.00  0.00    +0.030 A 
ATOM     11  C   UNL     1       1.121  -2.365 -10.086  0.00  0.00    +0.025 A 
ATOM     12  C   UNL     1       1.034  -3.011  -8.856  0.00  0.00    +0.031 A 
ATOM     13  N   UNL     1      -0.147  -3.635  -8.503  0.00  0.00    -0.336 N 
ATOM     14  H   UNL     1      -0.901  -3.558  -9.109  0.00  0.00    +0.147 HD
ENDROOT
BRANCH   1  18
ATOM     15  C   UNL     1      -4.248  -3.532  -5.770  0.00  0.00    +0.162 A 
ATOM     16  C   UNL     1      -3.474  -2.510  -6.298  0.00  0.00    +0.050 A 
ATOM     17  C   UNL     1      -2.207  -2.781  -6.779  0.00  0.00    +0.009 A 
ATOM     18  C   UNL     1      -1.709  -4.070  -6.736  0.00  0.00    -0.023 A 
ATOM     19  C   UNL     1      -2.476  -5.094  -6.211  0.00  0.00    +0.055 A 
ATOM     20  C   UNL     1      -3.744  -4.828  -5.722  0.00  0.00    +0.162 A 
BRANCH  15  22
ATOM     21  C   UNL     1      -5.946  -1.913  -5.378  0.00  0.00    +0.277 C 
ATOM     22  O   UNL     1      -5.495  -3.267  -5.296  0.00  0.00    -0.491 OA
ENDBRANCH  15  22
BRANCH  20  23
ATOM     23  O   UNL     1      -4.498  -5.833  -5.200  0.00  0.00    -0.491 OA
ATOM     24  C   UNL     1      -3.916  -7.138  -5.183  0.00  0.00    +0.277 C 
ENDBRANCH  20  23
ENDBRANCH   1  18
BRANCH   9  25
ATOM     25  S   UNL     1       4.925  -1.085 -10.141  0.00  0.00    +0.072 S 
ATOM     26  O   UNL     1       4.584   0.000 -10.992  0.00  0.00    -0.150 OA
ATOM     27  O   UNL     1       5.700  -0.914  -8.962  0.00  0.00    -0.150 OA
BRANCH  25  28
ATOM     28  N   UNL     1       5.728  -2.189 -11.079  0.00  0.00    -0.216 N 
ATOM     29  H   UNL     1       5.918  -1.988 -12.008  0.00  0.00    +0.174 HD
BRANCH  28  30
ATOM     30  C   UNL     1       6.130  -3.409 -10.531  0.00  0.00    +0.050 A 
ATOM     31  C   UNL     1       7.222  -3.461  -9.674  0.00  0.00    +0.024 A 
ATOM     32  C   UNL     1       7.617  -4.669  -9.134  0.00  0.00    +0.004 A 
ATOM     33  C   UNL     1       6.927  -5.826  -9.445  0.00  0.00    +0.033 A 
ATOM     34  C   UNL     1       5.840  -5.778 -10.299  0.00  0.00    +0.128 A 
ATOM     35  C   UNL     1       5.436  -4.572 -10.838  0.00  0.00    +0.057 A 
BRANCH  34  36
ATOM     36  N   UNL     1       5.105  -7.019 -10.630  0.00  0.00    +0.056 N 
ATOM     37  O   UNL     1       5.455  -8.074 -10.155  0.00  0.00    -0.126 OA
ATOM     38  O   UNL     1       4.154  -6.978 -11.376  0.00  0.00    -0.126 OA
ENDBRANCH  34  36
ENDBRANCH  28  30
ENDBRANCH  25  28
ENDBRANCH   9  25
TORSDOF 7
