REMARK  Name = ZINC12633414
REMARK  14 active torsions:
REMARK  status: ('A' for Active; 'I' for Inactive)
REMARK    1  A    between atoms: C_1  and  C_2
REMARK    2  A    between atoms: C_5  and  N_9
REMARK    3  A    between atoms: C_6  and  C_8
REMARK    4  A    between atoms: C_22  and  S_23
REMARK    5  A    between atoms: S_23  and  C_24
REMARK    6  A    between atoms: C_24  and  C_25
REMARK    7  A    between atoms: N_27  and  C_28
REMARK    8  A    between atoms: C_28  and  C_30
REMARK    9  A    between atoms: C_28  and  C_31
REMARK   10  A    between atoms: C_31  and  C_32
REMARK   11  A    between atoms: C_32  and  C_33
REMARK   12  A    between atoms: C_33  and  C_34
REMARK   13  A    between atoms: C_34  and  C_35
REMARK   14  A    between atoms: C_34  and  C_36
REMARK                            x       y       z     vdW  Elec       q    Type
REMARK                         _______ _______ _______ _____ _____    ______ ____
ROOT
ATOM      1  N   UNL     1      -1.186   1.881   0.018  0.00  0.00    -0.245 N 
ATOM      2  C   UNL     1      -0.014   1.212   0.009  0.00  0.00    +0.268 A 
ATOM      3  O   UNL     1       0.002  -0.004   0.002  0.00  0.00    -0.267 OA
ATOM      4  C   UNL     1       1.245   1.978   0.001  0.00  0.00    +0.064 A 
ATOM      5  C   UNL     1       2.482   1.335  -0.014  0.00  0.00    +0.015 A 
ATOM      6  C   UNL     1       3.639   2.085  -0.021  0.00  0.00    +0.001 A 
ATOM      7  C   UNL     1       3.577   3.469  -0.013  0.00  0.00    +0.002 A 
ATOM      8  C   UNL     1       2.358   4.118   0.001  0.00  0.00    +0.027 A 
ATOM      9  C   UNL     1       1.183   3.381   0.009  0.00  0.00    +0.064 A 
ATOM     10  N   UNL     1      -0.058   4.003   0.024  0.00  0.00    -0.255 N 
ATOM     11  C   UNL     1      -1.215   3.267   0.031  0.00  0.00    +0.245 A 
ATOM     12  N   UNL     1      -2.209   4.122   0.046  0.00  0.00    -0.109 NA
ATOM     13  N   UNL     1      -1.758   5.325   0.049  0.00  0.00    -0.120 NA
ATOM     14  C   UNL     1      -0.447   5.316   0.036  0.00  0.00    +0.198 A 
ENDROOT
BRANCH   1  19
ATOM     15  C   UNL     1      -6.064  -1.017   0.025  0.00  0.00    +0.044 C 
ATOM     16  C   UNL     1      -4.768  -0.247   0.023  0.00  0.00    -0.050 A 
ATOM     17  C   UNL     1      -4.169   0.099   1.221  0.00  0.00    +0.005 A 
ATOM     18  C   UNL     1      -2.979   0.799   1.222  0.00  0.00    +0.027 A 
ATOM     19  C   UNL     1      -2.389   1.166   0.020  0.00  0.00    +0.056 A 
ATOM     20  C   UNL     1      -2.993   0.817  -1.181  0.00  0.00    -0.026 A 
ATOM     21  C   UNL     1      -4.180   0.112  -1.176  0.00  0.00    +0.008 A 
ATOM     22  C   UNL     1      -2.353   1.208  -2.489  0.00  0.00    +0.046 C 
ENDBRANCH   1  19
BRANCH  14  23
ATOM     23  S   UNL     1       0.612   6.723   0.034  0.00  0.00    -0.076 S 
BRANCH  23  24
ATOM     24  C   UNL     1      -0.530   8.132   0.053  0.00  0.00    +0.173 C 
BRANCH  24  25
ATOM     25  C   UNL     1       0.257   9.418   0.053  0.00  0.00    +0.224 C 
ATOM     26  O   UNL     1       1.470   9.386   0.042  0.00  0.00    -0.275 OA
ATOM     27  N   UNL     1      -0.386  10.602   0.067  0.00  0.00    -0.312 N 
ATOM     28  H   UNL     1      -1.356  10.627   0.076  0.00  0.00    +0.149 HD
BRANCH  27  29
ATOM     29  C   UNL     1       0.379  11.851   0.067  0.00  0.00    +0.070 C 
ATOM     30  C   UNL     1       0.739  12.229  -1.371  0.00  0.00    +0.028 C 
BRANCH  29  31
ATOM     31  C   UNL     1      -0.463  12.965   0.691  0.00  0.00    +0.022 C 
BRANCH  31  32
ATOM     32  C   UNL     1      -0.718  12.646   2.166  0.00  0.00    +0.002 C 
BRANCH  32  33
ATOM     33  C   UNL     1      -1.561  13.761   2.790  0.00  0.00    +0.003 C 
BRANCH  33  34
ATOM     34  C   UNL     1      -1.815  13.442   4.265  0.00  0.00    -0.017 C 
ATOM     35  C   UNL     1      -2.550  14.613   4.920  0.00  0.00    +0.007 C 
ATOM     36  C   UNL     1      -2.671  12.178   4.373  0.00  0.00    +0.007 C 
ENDBRANCH  33  34
ENDBRANCH  32  33
ENDBRANCH  31  32
ENDBRANCH  29  31
ENDBRANCH  27  29
ENDBRANCH  24  25
ENDBRANCH  23  24
ENDBRANCH  14  23
TORSDOF 9
