REMARK  Name = ZINC39426043
REMARK  7 active torsions:
REMARK  status: ('A' for Active; 'I' for Inactive)
REMARK    1  A    between atoms: C_1  and  C_2
REMARK    2  A    between atoms: C_2  and  C_32
REMARK    3  A    between atoms: C_6  and  C_21
REMARK    4  A    between atoms: C_8  and  C_19
REMARK    5  A    between atoms: C_9  and  N_18
REMARK    6  A    between atoms: C_14  and  S_16
REMARK    7  A    between atoms: S_16  and  C_17
REMARK                            x       y       z     vdW  Elec       q    Type
REMARK                         _______ _______ _______ _____ _____    ______ ____
ROOT
ATOM      1  C   UNL     1      -0.001   1.568   0.028  0.00  0.00    +0.011 C 
ATOM      2  C   UNL     1       0.001   0.038   0.016  0.00  0.00    -0.023 C 
ATOM      3  C   UNL     1       0.727  -0.466  -1.233  0.00  0.00    +0.058 C 
ATOM      4  C   UNL     1       2.160   0.005  -1.210  0.00  0.00    +0.027 C 
ATOM      5  C   UNL     1       2.814   0.186  -0.043  0.00  0.00    +0.025 C 
ATOM      6  C   UNL     1       4.250   0.644  -0.022  0.00  0.00    +0.102 C 
ATOM      7  C   UNL     1       4.643   1.257  -1.334  0.00  0.00    +0.077 C 
ATOM      8  C   UNL     1       3.912   1.038  -2.458  0.00  0.00    +0.108 C 
ATOM      9  N   UNL     1       2.784   0.249  -2.406  0.00  0.00    -0.237 N 
ATOM     10  C   UNL     1       2.275  -0.306  -3.577  0.00  0.00    +0.194 A 
ATOM     11  N   UNL     1       2.479  -1.498  -4.112  0.00  0.00    -0.124 NA
ATOM     12  N   UNL     1       1.933  -1.848  -5.194  0.00  0.00    -0.133 NA
ATOM     13  C   UNL     1       1.119  -1.042  -5.861  0.00  0.00    +0.160 A 
ATOM     14  S   UNL     1       1.149   0.389  -4.785  0.00  0.00    -0.024 S 
ATOM     15  C   UNL     1       2.175  -0.044   1.188  0.00  0.00    +0.162 C 
ATOM     16  O   UNL     1       2.796   0.119   2.221  0.00  0.00    -0.292 OA
ATOM     17  C   UNL     1       0.739  -0.486   1.252  0.00  0.00    +0.086 C 
ATOM     18  C   UNL     1      -1.440  -0.477   0.021  0.00  0.00    +0.011 C 
ENDROOT
BRANCH   6  19
ATOM     19  C   UNL     1       5.142  -0.539   0.255  0.00  0.00    +0.019 A 
ATOM     20  C   UNL     1       5.148  -1.620  -0.609  0.00  0.00    +0.129 A 
ATOM     21  C   UNL     1       5.968  -2.706  -0.353  0.00  0.00    +0.039 A 
ATOM     22  C   UNL     1       6.779  -2.710   0.766  0.00  0.00    +0.004 A 
ATOM     23  C   UNL     1       6.773  -1.631   1.629  0.00  0.00    +0.020 A 
ATOM     24  C   UNL     1       5.959  -0.542   1.371  0.00  0.00    +0.048 A 
ATOM     25 CL   UNL     1       5.958   0.816   2.452  0.00  0.00    -0.083 Cl
ATOM     26  F   UNL     1       4.354  -1.616  -1.702  0.00  0.00    -0.205 F 
ENDBRANCH   6  19
BRANCH   8  27
ATOM     27  N   UNL     1       4.297   1.606  -3.648  0.00  0.00    -0.345 N 
ATOM     28  H   UNL     1       5.041   2.228  -3.671  0.00  0.00    +0.144 HD
ATOM     29  H   UNL     1       3.825   1.385  -4.466  0.00  0.00    +0.144 HD
ENDBRANCH   8  27
BRANCH  13  30
ATOM     30  S   UNL     1       0.251  -1.305  -7.372  0.00  0.00    -0.100 S 
ATOM     31  C   UNL     1       0.717  -2.989  -7.858  0.00  0.00    +0.092 C 
ENDBRANCH  13  30
BRANCH   7  32
ATOM     32  C   UNL     1       5.808   2.087  -1.403  0.00  0.00    +0.099 C 
ATOM     33  N   UNL     1       6.732   2.745  -1.458  0.00  0.00    -0.191 NA
ENDBRANCH   7  32
TORSDOF 4
