REMARK  Name = ZINC25036567
REMARK  6 active torsions:
REMARK  status: ('A' for Active; 'I' for Inactive)
REMARK    1  A    between atoms: C_1  and  C_2
REMARK    2  A    between atoms: C_2  and  C_4
REMARK    3  A    between atoms: C_2  and  N_18
REMARK    4  A    between atoms: N_6  and  C_7
REMARK    5  A    between atoms: C_8  and  C_15
REMARK    6  A    between atoms: C_21  and  C_24
REMARK                            x       y       z     vdW  Elec       q    Type
REMARK                         _______ _______ _______ _____ _____    ______ ____
ROOT
ATOM      1  C   UNL     1       3.180   5.964   1.278  0.00  0.00    -0.004 C 
ATOM      2  C   UNL     1       2.342   5.773   0.013  0.00  0.00    +0.016 C 
ENDROOT
BRANCH   2   3
ATOM      3  N   UNL     1       1.357   6.858  -0.092  0.00  0.00    +0.387 N 
ATOM      4  C   UNL     1       1.991   8.102  -0.546  0.00  0.00    -0.077 C 
ATOM      5  C   UNL     1       0.917   9.166  -0.782  0.00  0.00    -0.009 C 
ATOM      6  C   UNL     1       0.150   9.409   0.520  0.00  0.00    +0.041 C 
ATOM      7  C   UNL     1      -0.460   8.088   0.997  0.00  0.00    -0.009 C 
ATOM      8  C   UNL     1       0.654   7.054   1.182  0.00  0.00    -0.077 C 
ATOM      9  H   UNL     1       0.610   6.567  -0.846  0.00  0.00    -0.081 HD
BRANCH   6  10
ATOM     10  C   UNL     1      -0.948  10.413   0.281  0.00  0.00    +0.082 A 
ATOM     11  N   UNL     1      -1.123  11.571   0.852  0.00  0.00    -0.244 NA
ATOM     12  C   UNL     1      -2.156  12.382   0.543  0.00  0.00    +0.080 A 
ATOM     13  C   UNL     1      -2.477  13.653   1.070  0.00  0.00    +0.049 A 
ATOM     14  C   UNL     1      -3.582  14.334   0.626  0.00  0.00    +0.043 A 
ATOM     15  C   UNL     1      -4.418  13.802  -0.348  0.00  0.00    +0.021 A 
ATOM     16  C   UNL     1      -4.132  12.561  -0.884  0.00  0.00    +0.018 A 
ATOM     17  C   UNL     1      -3.027  11.872  -0.446  0.00  0.00    +0.039 A 
ATOM     18  S   UNL     1      -2.280  10.308  -0.828  0.00  0.00    -0.072 S 
ATOM     19 CL   UNL     1      -3.944  15.893   1.297  0.00  0.00    -0.083 Cl
ENDBRANCH   6  10
ENDBRANCH   2   3
BRANCH   2  20
ATOM     20  C   UNL     1       1.625   4.449   0.080  0.00  0.00    +0.204 C 
ATOM     21  O   UNL     1       0.435   4.414   0.313  0.00  0.00    -0.277 OA
ATOM     22  N   UNL     1       2.306   3.303  -0.118  0.00  0.00    -0.281 N 
ATOM     23  H   UNL     1       3.385   3.334  -0.329  0.00  0.00    +0.155 HD
BRANCH  22  24
ATOM     24  C   UNL     1       1.647   2.084  -0.056  0.00  0.00    +0.084 A 
ATOM     25  C   UNL     1       2.169   0.814  -0.229  0.00  0.00    +0.068 A 
ATOM     26  C   UNL     1       1.250  -0.317  -0.111  0.00  0.00    -0.023 A 
ATOM     27  C   UNL     1      -0.027   0.010   0.160  0.00  0.00    -0.004 A 
ATOM     28  S   UNL     1      -0.028   1.783   0.258  0.00  0.00    -0.077 S 
ATOM     29  C   UNL     1      -0.909  -1.204   0.269  0.00  0.00    +0.043 C 
ATOM     30  C   UNL     1       0.072  -2.383   0.458  0.00  0.00    +0.010 C 
ATOM     31  C   UNL     1       1.348  -1.840  -0.217  0.00  0.00    +0.037 C 
BRANCH  25  32
ATOM     32  C   UNL     1       3.591   0.610  -0.520  0.00  0.00    +0.244 C 
ATOM     33  O   UNL     1       3.979   0.583  -1.673  0.00  0.00    -0.270 OA
ATOM     34  N   UNL     1       4.470   0.453   0.490  0.00  0.00    -0.325 N 
ATOM     35  H   UNL     1       5.537   0.300   0.272  0.00  0.00    +0.145 HD
ATOM     36  H   UNL     1       4.120   0.477   1.533  0.00  0.00    +0.145 HD
ENDBRANCH  25  32
ENDBRANCH  22  24
ENDBRANCH   2  20
TORSDOF 5
