REMARK  Name = ZINC50305887
REMARK  6 active torsions:
REMARK  status: ('A' for Active; 'I' for Inactive)
REMARK    1  A    between atoms: C_1  and  C_2
REMARK    2  A    between atoms: C_3  and  N_21
REMARK    3  A    between atoms: C_4  and  C_8
REMARK    4  A    between atoms: N_10  and  C_11
REMARK    5  A    between atoms: C_11  and  C_13
REMARK    6  A    between atoms: C_11  and  C_14
REMARK                            x       y       z     vdW  Elec       q    Type
REMARK                         _______ _______ _______ _____ _____    ______ ____
ROOT
ATOM      1  C   UNL     1      -0.407  -3.414  -1.595  0.00  0.00    +0.266 C 
ATOM      2  O   UNL     1      -0.352  -3.446  -2.810  0.00  0.00    -0.268 OA
ATOM      3  N   UNL     1      -0.208  -4.540  -0.882  0.00  0.00    -0.303 N 
ATOM      4  H   UNL     1      -0.252  -4.515   0.086  0.00  0.00    +0.150 HD
ENDROOT
BRANCH   1   8
ATOM      5  C   UNL     1      -1.433   1.455  -0.604  0.00  0.00    +0.067 C 
ATOM      6  C   UNL     1      -1.140  -0.019  -0.487  0.00  0.00    +0.054 A 
ATOM      7  C   UNL     1      -0.923  -0.884  -1.513  0.00  0.00    +0.078 A 
ATOM      8  C   UNL     1      -0.692  -2.143  -0.903  0.00  0.00    +0.168 A 
ATOM      9  N   UNL     1      -0.782  -1.964   0.401  0.00  0.00    -0.167 NA
ATOM     10  N   UNL     1      -1.037  -0.733   0.664  0.00  0.00    -0.279 N 
ATOM     11  H   UNL     1      -1.143  -0.366   1.556  0.00  0.00    +0.189 HD
BRANCH   7  12
ATOM     12  N   UNL     1      -0.926  -0.592  -2.885  0.00  0.00    -0.355 N 
ATOM     13  H   UNL     1      -1.097   0.313  -3.188  0.00  0.00    +0.142 HD
ATOM     14  H   UNL     1      -0.757  -1.296  -3.531  0.00  0.00    +0.142 HD
ENDBRANCH   7  12
ENDBRANCH   1   8
BRANCH   3  15
ATOM     15  C   UNL     1       0.075  -5.802  -1.570  0.00  0.00    +0.102 C 
ATOM     16  C   UNL     1       1.580  -5.924  -1.814  0.00  0.00    +0.033 C 
BRANCH  15  17
ATOM     17  C   UNL     1      -0.391  -6.954  -0.717  0.00  0.00    -0.014 A 
ATOM     18  C   UNL     1      -0.449  -6.818   0.657  0.00  0.00    +0.006 A 
ATOM     19  C   UNL     1      -0.876  -7.874   1.439  0.00  0.00    +0.000 A 
ATOM     20  C   UNL     1      -1.245  -9.068   0.847  0.00  0.00    +0.001 A 
ATOM     21  C   UNL     1      -1.188  -9.205  -0.527  0.00  0.00    +0.015 A 
ATOM     22  C   UNL     1      -0.765  -8.146  -1.310  0.00  0.00    +0.023 A 
ATOM     23 BR   UNL     1      -0.693  -8.331  -3.191  0.00  0.00    -0.050 Br
ENDBRANCH  15  17
ENDBRANCH   3  15
TORSDOF 4
