REMARK  Name = ZINC39359534
REMARK  3 active torsions:
REMARK  status: ('A' for Active; 'I' for Inactive)
REMARK    1  A    between atoms: C_6  and  C_7
REMARK    2  A    between atoms: C_19  and  N_23
REMARK    3  A    between atoms: C_20  and  C_21
REMARK                            x       y       z     vdW  Elec       q    Type
REMARK                         _______ _______ _______ _____ _____    ______ ____
ROOT
ATOM      1  C   UNL     1      -1.293  -0.775   0.010  0.00  0.00    +0.082 C 
ATOM      2  C   UNL     1      -1.351  -1.655   1.261  0.00  0.00    +0.155 C 
ATOM      3  C   UNL     1      -2.484  -2.639   1.013  0.00  0.00    +0.137 C 
ATOM      4  N   UNL     1      -3.481  -2.667   1.851  0.00  0.00    -0.204 NA
ATOM      5  C   UNL     1      -3.544  -1.835   2.896  0.00  0.00    +0.206 C 
ATOM      6  N   UNL     1      -2.644  -0.912   3.183  0.00  0.00    -0.147 NA
ATOM      7  C   UNL     1      -1.531  -0.732   2.453  0.00  0.00    +0.250 C 
ATOM      8  O   UNL     1      -0.711   0.124   2.722  0.00  0.00    -0.273 OA
ATOM      9  N   UNL     1      -4.622  -1.949   3.731  0.00  0.00    -0.329 N 
ATOM     10  N   UNL     1      -2.405  -3.428  -0.091  0.00  0.00    -0.185 NA
ATOM     11  C   UNL     1      -1.903  -2.852  -1.243  0.00  0.00    +0.106 C 
ATOM     12  C   UNL     1      -1.373  -1.626  -1.225  0.00  0.00    +0.073 C 
ATOM     13  H   UNL     1      -5.305  -2.615   3.554  0.00  0.00    +0.145 HD
ATOM     14  H   UNL     1      -4.704  -1.363   4.500  0.00  0.00    +0.145 HD
ENDROOT
BRANCH   1  20
ATOM     15  C   UNL     1      -0.017   1.378   0.010  0.00  0.00    +0.007 A 
ATOM     16  C   UNL     1       1.170   2.086   0.002  0.00  0.00    +0.038 A 
ATOM     17  C   UNL     1       2.379   1.410  -0.013  0.00  0.00    +0.123 A 
ATOM     18  C   UNL     1       2.396   0.026  -0.021  0.00  0.00    +0.038 A 
ATOM     19  C   UNL     1       1.208  -0.680  -0.013  0.00  0.00    +0.007 A 
ATOM     20  C   UNL     1       0.002  -0.004   0.002  0.00  0.00    -0.038 A 
ATOM     21  F   UNL     1       3.540   2.101  -0.021  0.00  0.00    -0.205 F 
ENDBRANCH   1  20
BRANCH  11  22
ATOM     22  N   UNL     1      -1.949  -3.565  -2.444  0.00  0.00    -0.403 NA
ATOM     23  H   UNL     1      -2.373  -4.467  -2.284  0.00  0.00    +0.122 HD
ATOM     24  H   UNL     1      -2.494  -3.052  -3.120  0.00  0.00    +0.122 HD
ATOM     25  H   UNL     1      -1.011  -3.693  -2.795  0.00  0.00    +0.122 HD
ENDBRANCH  11  22
BRANCH  12  26
ATOM     26  C   UNL     1      -0.859  -1.094  -2.451  0.00  0.00    +0.099 C 
ATOM     27  N   UNL     1      -0.451  -0.672  -3.424  0.00  0.00    -0.191 NA
ENDBRANCH  12  26
TORSDOF 3
