REMARK  Name = ZINC04991153
REMARK  5 active torsions:
REMARK  status: ('A' for Active; 'I' for Inactive)
REMARK    1  A    between atoms: C_1  and  N_2
REMARK    2  A    between atoms: N_10  and  C_13
REMARK    3  A    between atoms: C_15  and  O_25
REMARK    4  A    between atoms: C_17  and  O_24
REMARK    5  A    between atoms: C_19  and  O_23
REMARK                            x       y       z     vdW  Elec       q    Type
REMARK                         _______ _______ _______ _____ _____    ______ ____
ROOT
ATOM      1  C   UNL     1      -6.821  -2.460   2.070  0.00  0.00    +0.127 C 
ATOM      2  N   UNL     1      -6.070  -1.263   1.683  0.00  0.00    -0.330 N 
ATOM      3  C   UNL     1      -4.699  -1.219   1.860  0.00  0.00    +0.151 A 
ATOM      4  C   UNL     1      -3.962  -0.079   1.494  0.00  0.00    +0.148 A 
ATOM      5  C   UNL     1      -2.573  -0.092   1.698  0.00  0.00    +0.169 A 
ATOM      6  N   UNL     1      -2.007  -1.174   2.226  0.00  0.00    -0.198 NA
ATOM      7  C   UNL     1      -2.737  -2.220   2.554  0.00  0.00    +0.226 A 
ATOM      8  N   UNL     1      -4.047  -2.253   2.381  0.00  0.00    -0.200 NA
ATOM      9 CL   UNL     1      -1.949  -3.606   3.241  0.00  0.00    -0.041 Cl
ATOM     10  N   UNL     1      -2.114   1.124   1.260  0.00  0.00    -0.285 N 
ATOM     11  C   UNL     1      -3.192   1.833   0.819  0.00  0.00    +0.203 A 
ATOM     12  N   UNL     1      -4.275   1.123   0.952  0.00  0.00    -0.231 NA
ATOM     13  H   UNL     1      -6.193  -1.095   0.704  0.00  0.00    +0.147 HD
ENDROOT
BRANCH  10  14
ATOM     14  C   UNL     1      -0.722   1.581   1.271  0.00  0.00    +0.253 C 
ATOM     15  C   UNL     1      -0.013   1.086   0.008  0.00  0.00    +0.195 C 
ATOM     16  C   UNL     1       1.424   1.617  -0.003  0.00  0.00    +0.178 C 
ATOM     17  C   UNL     1       1.392   3.146   0.084  0.00  0.00    +0.171 C 
ATOM     18  C   UNL     1       0.628   3.562   1.344  0.00  0.00    +0.196 C 
ATOM     19  O   UNL     1      -0.689   3.009   1.305  0.00  0.00    -0.351 OA
BRANCH  17  20
ATOM     20  O   UNL     1       2.728   3.649   0.148  0.00  0.00    -0.387 OA
ATOM     21  H   UNL     1       2.783   4.613   0.205  0.00  0.00    +0.210 HD
ENDBRANCH  17  20
BRANCH  16  22
ATOM     22  O   UNL     1       2.137   1.090   1.117  0.00  0.00    -0.386 OA
ATOM     23  H   UNL     1       3.056   1.385   1.173  0.00  0.00    +0.210 HD
ENDBRANCH  16  22
BRANCH  15  24
ATOM     24  O   UNL     1      -0.706   1.560  -1.148  0.00  0.00    -0.385 OA
ATOM     25  H   UNL     1      -0.309   1.285  -1.985  0.00  0.00    +0.210 HD
ENDBRANCH  15  24
ENDBRANCH  10  14
TORSDOF 4
