REMARK  Name = ZINC36286336
REMARK  6 active torsions:
REMARK  status: ('A' for Active; 'I' for Inactive)
REMARK    1  A    between atoms: C_3  and  N_11
REMARK    2  A    between atoms: C_6  and  C_7
REMARK    3  A    between atoms: N_14  and  C_17
REMARK    4  A    between atoms: C_17  and  C_22
REMARK    5  A    between atoms: N_24  and  C_25
REMARK    6  A    between atoms: C_34  and  C_37
REMARK                            x       y       z     vdW  Elec       q    Type
REMARK                         _______ _______ _______ _____ _____    ______ ____
ROOT
ATOM      1  C   UNL     1       6.776   4.044  -1.878  0.00  0.00    +0.013 C 
ATOM      2  C   UNL     1       8.115   3.286  -1.766  0.00  0.00    -0.003 C 
ATOM      3  C   UNL     1       9.190   4.381  -1.975  0.00  0.00    -0.001 C 
ATOM      4  C   UNL     1       8.584   5.601  -1.237  0.00  0.00    -0.001 C 
ATOM      5  C   UNL     1       7.074   5.516  -1.542  0.00  0.00    -0.003 C 
ENDROOT
BRANCH   1   9
ATOM      6  N   UNL     1       4.881   1.841   1.132  0.00  0.00    -0.319 N 
ATOM      7  C   UNL     1       5.239   3.233   1.448  0.00  0.00    +0.088 C 
ATOM      8  C   UNL     1       6.301   3.700   0.446  0.00  0.00    -0.058 C 
ATOM      9  N   UNL     1       5.805   3.496  -0.921  0.00  0.00    +0.391 N 
ATOM     10  C   UNL     1       5.623   2.062  -1.179  0.00  0.00    -0.058 C 
ATOM     11  C   UNL     1       4.533   1.513  -0.259  0.00  0.00    +0.088 C 
ATOM     12  H   UNL     1       4.922   3.972  -1.032  0.00  0.00    -0.080 HD
BRANCH   6  15
ATOM     13  C   UNL     1       4.346  -1.356   2.837  0.00  0.00    +0.017 A 
ATOM     14  C   UNL     1       4.343  -0.392   1.845  0.00  0.00    +0.044 A 
ATOM     15  C   UNL     1       4.876   0.863   2.120  0.00  0.00    +0.121 A 
ATOM     16  N   UNL     1       5.379   1.134   3.314  0.00  0.00    -0.240 NA
ATOM     17  C   UNL     1       5.395   0.234   4.279  0.00  0.00    +0.125 A 
ATOM     18  C   UNL     1       4.883  -1.031   4.075  0.00  0.00    +0.073 A 
BRANCH  18  19
ATOM     19  C   UNL     1       4.906  -2.050   5.185  0.00  0.00    +0.419 C 
ATOM     20  F   UNL     1       6.098  -2.780   5.124  0.00  0.00    -0.166 F 
ATOM     21  F   UNL     1       4.822  -1.397   6.420  0.00  0.00    -0.166 F 
ATOM     22  F   UNL     1       3.819  -2.919   5.043  0.00  0.00    -0.166 F 
ENDBRANCH  18  19
ENDBRANCH   6  15
ENDBRANCH   1   9
BRANCH   1  23
ATOM     23  C   UNL     1       6.236   3.934  -3.281  0.00  0.00    +0.203 C 
ATOM     24  O   UNL     1       6.990   3.723  -4.207  0.00  0.00    -0.277 OA
ATOM     25  N   UNL     1       4.914   4.072  -3.506  0.00  0.00    -0.313 N 
ATOM     26  H   UNL     1       4.303   4.176  -2.760  0.00  0.00    +0.149 HD
BRANCH  25  27
ATOM     27  C   UNL     1       4.400   4.063  -4.878  0.00  0.00    +0.079 C 
ATOM     28  C   UNL     1       4.179   2.618  -5.331  0.00  0.00    +0.011 C 
ATOM     29  C   UNL     1       3.642   2.610  -6.764  0.00  0.00    +0.009 C 
ATOM     30  C   UNL     1       2.315   3.370  -6.816  0.00  0.00    -0.009 C 
ATOM     31  C   UNL     1       2.537   4.814  -6.364  0.00  0.00    +0.009 C 
ATOM     32  C   UNL     1       3.073   4.823  -4.931  0.00  0.00    +0.011 C 
ATOM     33  C   UNL     1       2.061   4.147  -4.003  0.00  0.00    +0.021 C 
ATOM     34  C   UNL     1       1.840   2.703  -4.456  0.00  0.00    +0.048 C 
ATOM     35  C   UNL     1       3.167   1.943  -4.403  0.00  0.00    +0.021 C 
ATOM     36  C   UNL     1       1.303   2.694  -5.889  0.00  0.00    +0.019 C 
BRANCH  34  37
ATOM     37  C   UNL     1       0.843   2.037  -3.542  0.00  0.00    +0.217 C 
ATOM     38  O   UNL     1       0.358   2.658  -2.620  0.00  0.00    -0.275 OA
ATOM     39  N   UNL     1       0.491   0.753  -3.750  0.00  0.00    -0.329 N 
ATOM     40  H   UNL     1       0.879   0.257  -4.488  0.00  0.00    +0.145 HD
ATOM     41  H   UNL     1      -0.150   0.325  -3.162  0.00  0.00    +0.145 HD
ENDBRANCH  34  37
ENDBRANCH  25  27
ENDBRANCH   1  23
TORSDOF 6
