REMARK  Name = ZINC27521896
REMARK  8 active torsions:
REMARK  status: ('A' for Active; 'I' for Inactive)
REMARK    1  A    between atoms: C_1  and  O_2
REMARK    2  A    between atoms: O_2  and  C_3
REMARK    3  A    between atoms: C_8  and  C_9
REMARK    4  A    between atoms: N_11  and  C_12
REMARK    5  A    between atoms: C_12  and  C_23
REMARK    6  A    between atoms: C_13  and  C_14
REMARK    7  A    between atoms: C_17  and  N_20
REMARK    8  A    between atoms: N_25  and  C_26
REMARK                            x       y       z     vdW  Elec       q    Type
REMARK                         _______ _______ _______ _____ _____    ______ ____
ROOT
ATOM      1  C   UNL     1      -1.274   3.513   0.413  0.00  0.00    +0.097 C 
ATOM      2  C   UNL     1      -1.232   2.167   0.546  0.00  0.00    +0.036 C 
ENDROOT
BRANCH   2   3
ATOM      3  C   UNL     1       0.001   1.434   0.220  0.00  0.00    -0.023 A 
ATOM      4  C   UNL     1       0.925   1.977  -0.678  0.00  0.00    +0.010 A 
ATOM      5  C   UNL     1       2.075   1.281  -0.983  0.00  0.00    +0.033 A 
ATOM      6  C   UNL     1       2.316   0.047  -0.403  0.00  0.00    +0.126 A 
ATOM      7  C   UNL     1       1.406  -0.497   0.486  0.00  0.00    +0.033 A 
ATOM      8  C   UNL     1       0.251   0.187   0.802  0.00  0.00    +0.010 A 
BRANCH   6   9
ATOM      9  N   UNL     1       3.553  -0.694  -0.737  0.00  0.00    +0.056 N 
ATOM     10  O   UNL     1       3.724  -1.820  -0.305  0.00  0.00    -0.126 OA
ATOM     11  O   UNL     1       4.400  -0.178  -1.444  0.00  0.00    -0.126 OA
ENDBRANCH   6   9
ENDBRANCH   2   3
BRANCH   1  14
ATOM     12  C   UNL     1      -0.042   4.980  -0.996  0.00  0.00    +0.252 C 
ATOM     13  O   UNL     1      -1.025   5.113  -1.699  0.00  0.00    -0.270 OA
ATOM     14  N   UNL     1      -0.107   4.223   0.117  0.00  0.00    -0.277 N 
ATOM     15  H   UNL     1       0.759   4.164   0.793  0.00  0.00    +0.155 HD
BRANCH  12  21
ATOM     16  C   UNL     1       1.264   6.530  -2.449  0.00  0.00    +0.132 A 
ATOM     17  C   UNL     1       2.458   7.152  -2.784  0.00  0.00    +0.046 A 
ATOM     18  C   UNL     1       3.599   6.900  -2.049  0.00  0.00    +0.004 A 
ATOM     19  C   UNL     1       3.562   6.026  -0.974  0.00  0.00    +0.001 A 
ATOM     20  C   UNL     1       2.384   5.404  -0.624  0.00  0.00    +0.017 A 
ATOM     21  C   UNL     1       1.222   5.646  -1.362  0.00  0.00    +0.079 A 
BRANCH  16  23
ATOM     22  C   UNL     1       0.283   7.602  -4.328  0.00  0.00    +0.277 C 
ATOM     23  O   UNL     1       0.141   6.778  -3.169  0.00  0.00    -0.494 OA
ENDBRANCH  16  23
ENDBRANCH  12  21
ENDBRANCH   1  14
BRANCH   1  24
ATOM     24  C   UNL     1      -2.547   4.229   0.579  0.00  0.00    +0.262 C 
ATOM     25  O   UNL     1      -3.563   3.611   0.836  0.00  0.00    -0.268 OA
ATOM     26  N   UNL     1      -2.589   5.570   0.446  0.00  0.00    -0.280 N 
ATOM     27  H   UNL     1      -1.689   6.120   0.134  0.00  0.00    +0.155 HD
BRANCH  26  28
ATOM     28  C   UNL     1      -3.776   6.262   0.705  0.00  0.00    +0.035 A 
ATOM     29  C   UNL     1      -3.736   7.508   1.318  0.00  0.00    +0.025 A 
ATOM     30  C   UNL     1      -4.909   8.192   1.568  0.00  0.00    +0.023 A 
ATOM     31  C   UNL     1      -6.126   7.632   1.220  0.00  0.00    +0.059 A 
ATOM     32  C   UNL     1      -6.170   6.388   0.614  0.00  0.00    +0.061 A 
ATOM     33  C   UNL     1      -4.998   5.702   0.356  0.00  0.00    +0.044 A 
ATOM     34 CL   UNL     1      -7.698   5.689   0.178  0.00  0.00    -0.082 Cl
ATOM     35 CL   UNL     1      -7.599   8.492   1.542  0.00  0.00    -0.082 Cl
ENDBRANCH  26  28
ENDBRANCH   1  24
TORSDOF 7
