REMARK  Name = ZINC29472351
REMARK  17 active torsions:
REMARK  status: ('A' for Active; 'I' for Inactive)
REMARK    1  A    between atoms: C_1  and  C_2
REMARK    2  A    between atoms: C_2  and  C_3
REMARK    3  A    between atoms: C_3  and  O_4
REMARK    4  A    between atoms: O_4  and  C_5
REMARK    5  A    between atoms: C_7  and  C_27
REMARK    6  A    between atoms: N_11  and  C_12
REMARK    7  A    between atoms: C_12  and  C_13
REMARK    8  A    between atoms: C_15  and  N_20
REMARK    9  A    between atoms: C_21  and  O_23
REMARK   10  A    between atoms: O_23  and  C_24
REMARK   11  A    between atoms: C_24  and  C_25
REMARK   12  A    between atoms: C_24  and  C_26
REMARK   13  A    between atoms: C_27  and  C_28
REMARK   14  A    between atoms: C_28  and  C_29
REMARK   15  A    between atoms: C_31  and  C_36
REMARK   16  A    between atoms: C_32  and  C_34
REMARK   17  A    between atoms: C_34  and  C_35
REMARK                            x       y       z     vdW  Elec       q    Type
REMARK                         _______ _______ _______ _____ _____    ______ ____
ROOT
ATOM      1  C   UNL     1      -2.288   9.809   0.526  0.00  0.00    +0.125 A 
ATOM      2  C   UNL     1      -2.191  10.298   1.828  0.00  0.00    +0.067 A 
ATOM      3  C   UNL     1      -2.129   9.408   2.879  0.00  0.00    +0.021 A 
ATOM      4  N   UNL     1      -2.165   8.105   2.667  0.00  0.00    -0.347 N 
ATOM      5  C   UNL     1      -2.251   7.599   1.446  0.00  0.00    +0.100 A 
ATOM      6  C   UNL     1      -2.318   8.433   0.337  0.00  0.00    +0.087 A 
ATOM      7  N   UNL     1      -2.281   6.220   1.273  0.00  0.00    -0.326 N 
ATOM      8  H   UNL     1      -2.228   5.554   2.147  0.00  0.00    +0.148 HD
ATOM      9  H   UNL     1      -2.124   7.408   3.518  0.00  0.00    +0.167 HD
ENDROOT
BRANCH   1  10
ATOM     10  O   UNL     1      -2.351  10.657  -0.532  0.00  0.00    -0.492 OA
BRANCH  10  11
ATOM     11  C   UNL     1      -2.448  10.068  -1.831  0.00  0.00    +0.229 C 
BRANCH  11  13
ATOM     12  C   UNL     1      -2.612  10.543  -4.278  0.00  0.00    +0.007 C 
ATOM     13  C   UNL     1      -2.508  11.173  -2.888  0.00  0.00    +0.038 C 
ENDBRANCH  11  13
ENDBRANCH  10  11
ENDBRANCH   1  10
BRANCH   7  14
ATOM     14  C   UNL     1      -2.382   5.653  -0.074  0.00  0.00    +0.138 C 
BRANCH  14  15
ATOM     15  C   UNL     1      -2.395   4.148   0.013  0.00  0.00    -0.027 A 
ATOM     16  C   UNL     1      -1.206   3.445  -0.024  0.00  0.00    +0.028 A 
ATOM     17  C   UNL     1      -1.218   2.059   0.052  0.00  0.00    +0.038 A 
ATOM     18  C   UNL     1      -2.425   1.383   0.176  0.00  0.00    +0.043 A 
ATOM     19  C   UNL     1      -3.611   2.092   0.218  0.00  0.00    +0.043 A 
ATOM     20  C   UNL     1      -3.595   3.474   0.137  0.00  0.00    +0.025 A 
ATOM     21 CL   UNL     1      -5.121   1.250   0.373  0.00  0.00    -0.083 Cl
BRANCH  17  22
ATOM     22  N   UNL     1      -0.016   1.344   0.009  0.00  0.00    -0.251 N 
ATOM     23  C   UNL     1       0.032   0.141  -0.597  0.00  0.00    +0.405 C 
ATOM     24  O   UNL     1      -0.987  -0.363  -1.029  0.00  0.00    -0.226 OA
ATOM     25  H   UNL     1       0.890   1.763   0.471  0.00  0.00    +0.158 HD
BRANCH  23  26
ATOM     26  O   UNL     1       1.208  -0.502  -0.725  0.00  0.00    -0.447 OA
BRANCH  26  27
ATOM     27  C   UNL     1       1.184  -1.793  -1.389  0.00  0.00    +0.172 C 
ATOM     28  C   UNL     1       2.519  -2.026  -2.099  0.00  0.00    +0.052 C 
ATOM     29  C   UNL     1       0.958  -2.896  -0.353  0.00  0.00    +0.052 C 
ENDBRANCH  26  27
ENDBRANCH  23  26
ENDBRANCH  17  22
ENDBRANCH  14  15
ENDBRANCH   7  14
BRANCH   3  30
ATOM     30  C   UNL     1      -2.024   9.929   4.289  0.00  0.00    +0.060 C 
BRANCH  30  31
ATOM     31  C   UNL     1      -3.157   9.344   5.135  0.00  0.00    +0.069 C 
BRANCH  31  32
ATOM     32  C   UNL     1      -3.052   9.865   6.545  0.00  0.00    +0.079 A 
ATOM     33  N   UNL     1      -3.584  10.946   7.066  0.00  0.00    -0.249 NA
ATOM     34  C   UNL     1      -3.398  11.261   8.331  0.00  0.00    +0.049 A 
ATOM     35  C   UNL     1      -2.626  10.445   9.093  0.00  0.00    +0.012 A 
ATOM     36  S   UNL     1      -2.189   9.194   7.894  0.00  0.00    -0.077 S 
ATOM     37  C   UNL     1      -4.022  12.502   8.917  0.00  0.00    +0.066 C 
BRANCH  35  38
ATOM     38  C   UNL     1      -2.244  10.562  10.546  0.00  0.00    +0.041 C 
ATOM     39  C   UNL     1      -3.284   9.841  11.406  0.00  0.00    +0.009 C 
ENDBRANCH  35  38
ENDBRANCH  31  32
ENDBRANCH  30  31
ENDBRANCH   3  30
TORSDOF 12
