REMARK  Name = ZINC05074367
REMARK  12 active torsions:
REMARK  status: ('A' for Active; 'I' for Inactive)
REMARK    1  A    between atoms: C_1  and  C_2
REMARK    2  A    between atoms: C_2  and  C_3
REMARK    3  A    between atoms: C_3  and  C_5
REMARK    4  A    between atoms: C_3  and  C_6
REMARK    5  A    between atoms: C_6  and  C_8
REMARK    6  A    between atoms: C_6  and  N_23
REMARK    7  A    between atoms: C_14  and  C_16
REMARK    8  A    between atoms: C_19  and  C_22
REMARK    9  A    between atoms: N_26  and  C_27
REMARK   10  A    between atoms: C_27  and  C_28
REMARK   11  A    between atoms: C_27  and  C_29
REMARK   12  A    between atoms: C_27  and  C_30
REMARK                            x       y       z     vdW  Elec       q    Type
REMARK                         _______ _______ _______ _____ _____    ______ ____
ROOT
ATOM      1  C   UNL     1      -0.585   1.597  -1.383  0.00  0.00    +0.239 C 
ATOM      2  O   UNL     1      -0.051   2.302  -2.213  0.00  0.00    -0.273 OA
ATOM      3  N   UNL     1      -1.879   1.248  -1.526  0.00  0.00    -0.262 N 
ATOM      4  C   UNL     1      -2.572   1.607  -2.676  0.00  0.00    +0.188 A 
ATOM      5  N   UNL     1      -2.156   2.288  -3.732  0.00  0.00    -0.125 NA
ATOM      6  N   UNL     1      -2.915   2.532  -4.710  0.00  0.00    -0.140 NA
ATOM      7  C   UNL     1      -4.175   2.117  -4.702  0.00  0.00    +0.134 A 
ATOM      8  S   UNL     1      -4.225   1.292  -3.115  0.00  0.00    -0.030 S 
ATOM      9  H   UNL     1      -2.326   0.746  -0.827  0.00  0.00    +0.157 HD
ENDROOT
BRANCH   7  10
ATOM     10  C   UNL     1      -5.238   2.287  -5.716  0.00  0.00    +0.009 A 
ATOM     11  C   UNL     1      -6.509   1.755  -5.496  0.00  0.00    +0.011 A 
ATOM     12  C   UNL     1      -7.497   1.922  -6.444  0.00  0.00    +0.004 A 
ATOM     13  C   UNL     1      -7.227   2.607  -7.616  0.00  0.00    -0.050 A 
ATOM     14  C   UNL     1      -5.967   3.132  -7.843  0.00  0.00    +0.004 A 
ATOM     15  C   UNL     1      -4.972   2.977  -6.900  0.00  0.00    +0.011 A 
ATOM     16  C   UNL     1      -8.309   2.780  -8.650  0.00  0.00    +0.044 C 
ENDBRANCH   7  10
BRANCH   1  17
ATOM     17  C   UNL     1       0.199   1.111  -0.191  0.00  0.00    +0.163 C 
BRANCH  17  18
ATOM     18  N   UNL     1       1.631   1.164  -0.493  0.00  0.00    -0.288 N 
ATOM     19  C   UNL     1       2.488   0.353   0.158  0.00  0.00    +0.301 C 
ATOM     20  O   UNL     1       2.072  -0.423   0.996  0.00  0.00    -0.253 OA
ATOM     21  N   UNL     1       3.805   0.401  -0.121  0.00  0.00    -0.295 N 
ATOM     22  H   UNL     1       1.963   1.783  -1.162  0.00  0.00    +0.151 HD
ATOM     23  H   UNL     1       4.137   1.020  -0.790  0.00  0.00    +0.151 HD
BRANCH  21  24
ATOM     24  C   UNL     1       4.737  -0.481   0.587  0.00  0.00    +0.028 C 
ATOM     25  C   UNL     1       4.357  -1.940   0.324  0.00  0.00    +0.031 C 
ATOM     26  C   UNL     1       6.160  -0.227   0.086  0.00  0.00    +0.031 C 
ATOM     27  C   UNL     1       4.666  -0.198   2.089  0.00  0.00    +0.031 C 
ENDBRANCH  21  24
ENDBRANCH  17  18
BRANCH  17  28
ATOM     28  C   UNL     1      -0.101   2.005   1.015  0.00  0.00    +0.015 C 
ATOM     29  C   UNL     1       0.438   3.413   0.753  0.00  0.00    +0.010 C 
BRANCH  28  31
ATOM     30  C   UNL     1      -0.056   0.070   2.595  0.00  0.00    +0.004 C 
ATOM     31  C   UNL     1       0.572   1.424   2.260  0.00  0.00    +0.002 C 
ENDBRANCH  28  31
ENDBRANCH  17  28
ENDBRANCH   1  17
TORSDOF 6
