REMARK  Name = ZINC62826894
REMARK  4 active torsions:
REMARK  status: ('A' for Active; 'I' for Inactive)
REMARK    1  A    between atoms: C_3  and  C_19
REMARK    2  A    between atoms: C_4  and  N_8
REMARK    3  A    between atoms: C_9  and  C_11
REMARK    4  A    between atoms: C_14  and  O_18
REMARK                            x       y       z     vdW  Elec       q    Type
REMARK                         _______ _______ _______ _____ _____    ______ ____
ROOT
ATOM      1  N   UNL     1       3.821  -0.208  -0.046  0.00  0.00    -0.285 N 
ATOM      2  C   UNL     1       4.090  -1.496   0.243  0.00  0.00    +0.203 C 
ATOM      3  O   UNL     1       3.183  -2.278   0.431  0.00  0.00    -0.277 OA
ATOM      4  H   UNL     1       4.545   0.406  -0.246  0.00  0.00    +0.155 HD
ENDROOT
BRANCH   1   8
ATOM      5  C   UNL     1      -0.127   1.139  -0.081  0.00  0.00    +0.002 A 
ATOM      6  C   UNL     1       0.595   1.133  -1.254  0.00  0.00    +0.017 A 
ATOM      7  C   UNL     1       1.919   0.685  -1.256  0.00  0.00    +0.085 A 
ATOM      8  C   UNL     1       2.504   0.242  -0.058  0.00  0.00    +0.062 A 
ATOM      9  C   UNL     1       1.760   0.255   1.115  0.00  0.00    +0.040 A 
ATOM     10  C   UNL     1       0.453   0.701   1.100  0.00  0.00    +0.017 A 
ATOM     11 BR   UNL     1       2.537  -0.339   2.733  0.00  0.00    -0.048 Br
BRANCH   7  12
ATOM     12  C   UNL     1       2.696   0.676  -2.506  0.00  0.00    +0.388 C 
ATOM     13  O   UNL     1       2.225   1.169  -3.522  0.00  0.00    -0.241 OA
ATOM     14  O   UNL     1       3.812   0.176  -2.529  0.00  0.00    -0.241 OA
ENDBRANCH   7  12
ENDBRANCH   1   8
BRANCH   2  15
ATOM     15  C   UNL     1       5.520  -1.965   0.332  0.00  0.00    +0.019 C 
ATOM     16  C   UNL     1       6.114  -1.622   1.714  0.00  0.00    +0.023 C 
ATOM     17  C   UNL     1       7.015  -2.821   2.073  0.00  0.00    +0.097 C 
ATOM     18  C   UNL     1       6.890  -3.789   0.876  0.00  0.00    -0.050 C 
ATOM     19  N   UNL     1       5.585  -3.447   0.251  0.00  0.00    +0.388 N 
ATOM     20  H   UNL     1       4.826  -3.862   0.771  0.00  0.00    -0.085 HD
ATOM     21  H   UNL     1       5.562  -3.750  -0.711  0.00  0.00    -0.085 HD
BRANCH  17  22
ATOM     22  O   UNL     1       8.370  -2.395   2.229  0.00  0.00    -0.394 OA
ATOM     23  H   UNL     1       8.983  -3.108   2.455  0.00  0.00    +0.210 HD
ENDBRANCH  17  22
ENDBRANCH   2  15
TORSDOF 4
