REMARK  Name = ZINC20581937
REMARK  8 active torsions:
REMARK  status: ('A' for Active; 'I' for Inactive)
REMARK    1  A    between atoms: C_1  and  C_2
REMARK    2  A    between atoms: C_2  and  C_3
REMARK    3  A    between atoms: C_3  and  C_4
REMARK    4  A    between atoms: C_11  and  N_15
REMARK    5  A    between atoms: C_12  and  C_13
REMARK    6  A    between atoms: C_16  and  C_18
REMARK    7  A    between atoms: C_19  and  C_24
REMARK    8  A    between atoms: C_22  and  C_23
REMARK                            x       y       z     vdW  Elec       q    Type
REMARK                         _______ _______ _______ _____ _____    ______ ____
ROOT
ATOM      1  C   UNL     1       4.561  -8.325   1.120  0.00  0.00    -0.006 C 
ATOM      2  C   UNL     1       5.212  -7.705   2.361  0.00  0.00    +0.008 C 
ATOM      3  C   UNL     1       4.262  -6.686   2.992  0.00  0.00    +0.037 C 
ATOM      4  C   UNL     1       3.814  -5.702   1.917  0.00  0.00    -0.018 A 
ATOM      5  C   UNL     1       3.937  -6.002   0.605  0.00  0.00    -0.004 A 
ATOM      6  S   UNL     1       3.294  -4.588  -0.243  0.00  0.00    -0.077 S 
ATOM      7  C   UNL     1       2.876  -3.608   1.123  0.00  0.00    +0.090 A 
ATOM      8  C   UNL     1       3.237  -4.401   2.203  0.00  0.00    +0.084 A 
ATOM      9  C   UNL     1       4.493  -7.261   0.014  0.00  0.00    +0.046 C 
ENDROOT
BRANCH   7  10
ATOM     10  N   UNL     1       2.311  -2.341   1.135  0.00  0.00    -0.275 N 
ATOM     11  C   UNL     1       2.026  -1.720  -0.026  0.00  0.00    +0.254 C 
ATOM     12  O   UNL     1       2.263  -2.270  -1.085  0.00  0.00    -0.270 OA
ATOM     13  H   UNL     1       2.096  -1.843   2.093  0.00  0.00    +0.156 HD
BRANCH  11  14
ATOM     14  C   UNL     1       1.426  -0.374  -0.014  0.00  0.00    +0.101 A 
ATOM     15  C   UNL     1       0.002  -0.004   0.002  0.00  0.00    +0.093 A 
ATOM     16  N   UNL     1      -0.016   1.296   0.009  0.00  0.00    -0.083 NA
ATOM     17  O   UNL     1       1.094   1.769   0.001  0.00  0.00    -0.359 OA
ATOM     18  C   UNL     1       2.059   0.846  -0.013  0.00  0.00    +0.147 A 
ATOM     19  C   UNL     1       3.545   1.092  -0.025  0.00  0.00    +0.090 C 
ATOM     20  C   UNL     1      -1.184  -0.934   0.008  0.00  0.00    +0.070 C 
ENDBRANCH  11  14
ENDBRANCH   7  10
BRANCH   8  21
ATOM     21  C   UNL     1       3.048  -3.952   3.550  0.00  0.00    +0.102 C 
ATOM     22  N   UNL     1       2.898  -3.596   4.618  0.00  0.00    -0.191 NA
ENDBRANCH   8  21
BRANCH   1  23
ATOM     23  C   UNL     1       5.400  -9.510   0.639  0.00  0.00    +0.003 C 
BRANCH  23  25
ATOM     24  C   UNL     1       5.524 -11.389  -1.004  0.00  0.00    +0.004 C 
ATOM     25  C   UNL     1       4.685 -10.203  -0.523  0.00  0.00    -0.003 C 
ENDBRANCH  23  25
ENDBRANCH   1  23
TORSDOF 5
