REMARK  Name = ZINC40709658
REMARK  6 active torsions:
REMARK  status: ('A' for Active; 'I' for Inactive)
REMARK    1  A    between atoms: C_4  and  C_7
REMARK    2  A    between atoms: C_7  and  N_8
REMARK    3  A    between atoms: N_8  and  C_9
REMARK    4  A    between atoms: C_9  and  C_10
REMARK    5  A    between atoms: C_17  and  N_34
REMARK    6  A    between atoms: C_18  and  N_22
REMARK                            x       y       z     vdW  Elec       q    Type
REMARK                         _______ _______ _______ _____ _____    ______ ____
ROOT
ATOM      1  N   UNL     1       4.129  -0.891   1.495  0.00  0.00    -0.305 N 
ATOM      2  C   UNL     1       4.918   0.060   2.131  0.00  0.00    +0.148 A 
ATOM      3  C   UNL     1       5.417  -0.177   3.413  0.00  0.00    +0.106 A 
ATOM      4  C   UNL     1       6.204   0.811   4.007  0.00  0.00    +0.147 A 
ATOM      5  N   UNL     1       6.447   1.933   3.333  0.00  0.00    -0.219 NA
ATOM      6  C   UNL     1       5.956   2.117   2.124  0.00  0.00    +0.225 A 
ATOM      7  N   UNL     1       5.213   1.208   1.526  0.00  0.00    -0.219 NA
ENDROOT
BRANCH   4   8
ATOM      8  N   UNL     1       6.726   0.627   5.281  0.00  0.00    -0.311 N 
ATOM      9  C   UNL     1       8.089   0.108   5.464  0.00  0.00    +0.125 C 
ATOM     10  C   UNL     1       8.877   1.095   6.333  0.00  0.00    +0.125 C 
ATOM     11  N   UNL     1       8.077   1.416   7.523  0.00  0.00    -0.314 N 
ATOM     12  C   UNL     1       6.714   1.935   7.341  0.00  0.00    +0.125 C 
ATOM     13  C   UNL     1       5.928   0.953   6.471  0.00  0.00    +0.125 C 
ATOM     14  C   UNL     1       8.599   1.231   8.798  0.00  0.00    +0.099 A 
ATOM     15  C   UNL     1       9.934   0.871   8.951  0.00  0.00    +0.042 A 
ATOM     16  C   UNL     1      10.440   0.690  10.225  0.00  0.00    +0.005 A 
ATOM     17  C   UNL     1       9.591   0.877  11.308  0.00  0.00    +0.018 A 
ATOM     18  C   UNL     1       8.277   1.234  11.084  0.00  0.00    +0.084 A 
ATOM     19  N   UNL     1       7.823   1.405   9.856  0.00  0.00    -0.350 N 
ATOM     20  H   UNL     1       6.896   1.660   9.727  0.00  0.00    +0.166 HD
ENDBRANCH   4   8
BRANCH   3  21
ATOM     21  N   UNL     1       5.135  -1.376   4.087  0.00  0.00    -0.353 N 
ATOM     22  H   UNL     1       4.530  -2.023   3.693  0.00  0.00    +0.143 HD
ATOM     23  H   UNL     1       5.546  -1.558   4.947  0.00  0.00    +0.143 HD
ENDBRANCH   3  21
BRANCH   1  24
ATOM     24  C   UNL     1       2.669  -0.788   1.551  0.00  0.00    +0.142 C 
BRANCH  24  28
ATOM     25  C   UNL     1       1.220  -2.913   4.962  0.00  0.00    +0.000 A 
ATOM     26  C   UNL     1       1.551  -1.576   5.070  0.00  0.00    +0.000 A 
ATOM     27  C   UNL     1       2.020  -0.888   3.966  0.00  0.00    +0.005 A 
ATOM     28  C   UNL     1       2.159  -1.538   2.755  0.00  0.00    -0.030 A 
ATOM     29  C   UNL     1       1.829  -2.876   2.646  0.00  0.00    +0.005 A 
ATOM     30  C   UNL     1       1.359  -3.564   3.750  0.00  0.00    +0.000 A 
ENDBRANCH  24  28
ENDBRANCH   1  24
BRANCH   1  31
ATOM     31  C   UNL     1       4.758  -1.996   0.767  0.00  0.00    +0.142 C 
BRANCH  31  32
ATOM     32  C   UNL     1       4.875  -1.635  -0.692  0.00  0.00    -0.030 A 
ATOM     33  C   UNL     1       3.809  -1.852  -1.545  0.00  0.00    +0.005 A 
ATOM     34  C   UNL     1       3.917  -1.520  -2.883  0.00  0.00    +0.000 A 
ATOM     35  C   UNL     1       5.090  -0.972  -3.367  0.00  0.00    +0.000 A 
ATOM     36  C   UNL     1       6.155  -0.755  -2.514  0.00  0.00    +0.000 A 
ATOM     37  C   UNL     1       6.046  -1.082  -1.175  0.00  0.00    +0.005 A 
ENDBRANCH  31  32
ENDBRANCH   1  31
TORSDOF 6
