REMARK  Name = ZINC12046987
REMARK  13 active torsions:
REMARK  status: ('A' for Active; 'I' for Inactive)
REMARK    1  A    between atoms: C_1  and  C_2
REMARK    2  A    between atoms: C_2  and  C_3
REMARK    3  A    between atoms: C_3  and  C_4
REMARK    4  A    between atoms: C_4  and  C_5
REMARK    5  A    between atoms: C_5  and  N_6
REMARK    6  A    between atoms: C_19  and  S_20
REMARK    7  A    between atoms: S_20  and  C_21
REMARK    8  A    between atoms: C_21  and  C_22
REMARK    9  A    between atoms: N_24  and  C_25
REMARK   10  A    between atoms: C_25  and  C_26
REMARK   11  A    between atoms: C_26  and  O_27
REMARK   12  A    between atoms: O_27  and  C_28
REMARK   13  A    between atoms: C_32  and  C_34
REMARK                            x       y       z     vdW  Elec       q    Type
REMARK                         _______ _______ _______ _____ _____    ______ ____
ROOT
ATOM      1  N   UNL     1     -11.283  -0.738  -6.691  0.00  0.00    -0.277 N 
ATOM      2  C   UNL     1     -12.322  -1.450  -6.209  0.00  0.00    +0.263 A 
ATOM      3  O   UNL     1     -13.348  -1.561  -6.853  0.00  0.00    -0.267 OA
ATOM      4  C   UNL     1     -12.196  -2.084  -4.884  0.00  0.00    +0.064 A 
ATOM      5  C   UNL     1     -13.241  -2.823  -4.333  0.00  0.00    +0.015 A 
ATOM      6  C   UNL     1     -13.086  -3.401  -3.091  0.00  0.00    +0.001 A 
ATOM      7  C   UNL     1     -11.899  -3.250  -2.391  0.00  0.00    +0.002 A 
ATOM      8  C   UNL     1     -10.856  -2.520  -2.926  0.00  0.00    +0.027 A 
ATOM      9  C   UNL     1     -10.995  -1.931  -4.174  0.00  0.00    +0.064 A 
ATOM     10  N   UNL     1      -9.959  -1.190  -4.737  0.00  0.00    -0.256 N 
ATOM     11  C   UNL     1     -10.107  -0.611  -5.968  0.00  0.00    +0.240 A 
ATOM     12  N   UNL     1      -8.987   0.014  -6.255  0.00  0.00    -0.109 NA
ATOM     13  N   UNL     1      -8.103  -0.162  -5.183  0.00  0.00    -0.120 NA
ATOM     14  C   UNL     1      -8.706  -0.888  -4.274  0.00  0.00    +0.198 A 
ENDROOT
BRANCH   1  15
ATOM     15  C   UNL     1     -11.392  -0.105  -8.008  0.00  0.00    +0.128 C 
BRANCH  15  16
ATOM     16  C   UNL     1     -10.920  -1.083  -9.085  0.00  0.00    +0.022 C 
BRANCH  16  17
ATOM     17  C   UNL     1     -11.034  -0.421 -10.460  0.00  0.00    +0.001 C 
BRANCH  17  19
ATOM     18  C   UNL     1     -10.675  -0.738 -12.912  0.00  0.00    +0.004 C 
ATOM     19  C   UNL     1     -10.561  -1.400 -11.537  0.00  0.00    -0.003 C 
ENDBRANCH  17  19
ENDBRANCH  16  17
ENDBRANCH  15  16
ENDBRANCH   1  15
BRANCH  14  20
ATOM     20  S   UNL     1      -8.023  -1.393  -2.731  0.00  0.00    -0.076 S 
BRANCH  20  21
ATOM     21  C   UNL     1      -6.355  -0.679  -2.735  0.00  0.00    +0.173 C 
BRANCH  21  22
ATOM     22  C   UNL     1      -5.651  -1.041  -1.452  0.00  0.00    +0.223 C 
ATOM     23  O   UNL     1      -6.218  -1.714  -0.618  0.00  0.00    -0.275 OA
ATOM     24  N   UNL     1      -4.391  -0.616  -1.233  0.00  0.00    -0.311 N 
ATOM     25  H   UNL     1      -3.937  -0.078  -1.900  0.00  0.00    +0.149 HD
BRANCH  24  26
ATOM     26  C   UNL     1      -3.706  -0.968   0.014  0.00  0.00    +0.145 C 
BRANCH  26  27
ATOM     27  C   UNL     1      -2.300  -0.366   0.011  0.00  0.00    +0.247 C 
BRANCH  27  28
ATOM     28  O   UNL     1      -2.392   1.060   0.019  0.00  0.00    -0.490 OA
BRANCH  28  29
ATOM     29  C   UNL     1      -1.223   1.754   0.017  0.00  0.00    +0.121 A 
ATOM     30  C   UNL     1      -0.013   1.076   0.008  0.00  0.00    +0.045 A 
ATOM     31  C   UNL     1       1.174   1.783   0.000  0.00  0.00    +0.004 A 
ATOM     32  C   UNL     1       1.156   3.166   0.008  0.00  0.00    +0.003 A 
ATOM     33  C   UNL     1      -0.049   3.844   0.023  0.00  0.00    -0.047 A 
ATOM     34  C   UNL     1      -1.239   3.141   0.030  0.00  0.00    +0.049 A 
ATOM     35  C   UNL     1      -0.065   5.351   0.032  0.00  0.00    +0.044 C 
ENDBRANCH  28  29
ENDBRANCH  27  28
ENDBRANCH  26  27
ENDBRANCH  24  26
ENDBRANCH  21  22
ENDBRANCH  20  21
ENDBRANCH  14  20
TORSDOF 11
