REMARK  Name = ZINC52206911
REMARK  4 active torsions:
REMARK  status: ('A' for Active; 'I' for Inactive)
REMARK    1  A    between atoms: C_2  and  N_17
REMARK    2  A    between atoms: C_5  and  S_8
REMARK    3  A    between atoms: S_8  and  N_11
REMARK    4  A    between atoms: N_11  and  C_12
REMARK                            x       y       z     vdW  Elec       q    Type
REMARK                         _______ _______ _______ _____ _____    ______ ____
ROOT
ATOM      1  C   UNL     1      -0.017   1.378   0.010  0.00  0.00    +0.040 A 
ATOM      2  C   UNL     1       1.177   2.087   0.002  0.00  0.00    +0.027 A 
ATOM      3  C   UNL     1       2.387   1.405  -0.013  0.00  0.00    +0.040 A 
ATOM      4  C   UNL     1       2.400   0.023  -0.021  0.00  0.00    +0.047 A 
ATOM      5  C   UNL     1       1.209  -0.681  -0.013  0.00  0.00    +0.133 A 
ATOM      6  C   UNL     1       0.002  -0.004   0.002  0.00  0.00    +0.047 A 
ATOM      7 BR   UNL     1      -1.623  -0.971   0.013  0.00  0.00    -0.048 Br
ATOM      8 BR   UNL     1       4.046  -0.906  -0.042  0.00  0.00    -0.048 Br
ENDROOT
BRANCH   5   9
ATOM      9  S   UNL     1       1.229  -2.443  -0.023  0.00  0.00    +0.061 S 
ATOM     10  O   UNL     1      -0.017  -2.860  -0.564  0.00  0.00    -0.153 OA
ATOM     11  O   UNL     1       2.473  -2.832  -0.588  0.00  0.00    -0.153 OA
BRANCH   9  12
ATOM     12  N   UNL     1       1.249  -2.941   1.556  0.00  0.00    -0.187 NA
ATOM     13  H   UNL     1       2.019  -3.417   1.905  0.00  0.00    +0.148 HD
BRANCH  12  14
ATOM     14  C   UNL     1       0.104  -2.663   2.427  0.00  0.00    +0.077 C 
ATOM     15  C   UNL     1       0.445  -1.757   3.622  0.00  0.00    +0.020 C 
ATOM     16  C   UNL     1      -0.471  -2.659   4.466  0.00  0.00    +0.003 C 
ATOM     17  C   UNL     1      -0.175  -3.776   3.451  0.00  0.00    +0.020 C 
ENDBRANCH  12  14
ENDBRANCH   9  12
ENDBRANCH   5   9
BRANCH   2  18
ATOM     18  N   UNL     1       1.162   3.484   0.009  0.00  0.00    -0.358 N 
ATOM     19  H   UNL     1       0.316   3.959   0.019  0.00  0.00    +0.142 HD
ATOM     20  H   UNL     1       1.996   3.978   0.004  0.00  0.00    +0.142 HD
ENDBRANCH   2  18
TORSDOF 4
