REMARK  Name = ZINC13499245
REMARK  12 active torsions:
REMARK  status: ('A' for Active; 'I' for Inactive)
REMARK    1  A    between atoms: C_1  and  C_2
REMARK    2  A    between atoms: C_2  and  C_3
REMARK    3  A    between atoms: C_3  and  C_4
REMARK    4  A    between atoms: C_4  and  C_6
REMARK    5  A    between atoms: C_4  and  N_17
REMARK    6  A    between atoms: N_10  and  C_11
REMARK    7  A    between atoms: N_17  and  C_18
REMARK    8  A    between atoms: N_17  and  C_25
REMARK    9  A    between atoms: C_18  and  C_19
REMARK   10  A    between atoms: C_25  and  C_26
REMARK   11  A    between atoms: C_30  and  C_38
REMARK   12  A    between atoms: C_38  and  C_39
REMARK                            x       y       z     vdW  Elec       q    Type
REMARK                         _______ _______ _______ _____ _____    ______ ____
ROOT
ATOM      1  N   UNL     1      -0.828  -2.247   1.159  0.00  0.00    -0.284 NA
ENDROOT
BRANCH   1   2
ATOM      2  C   UNL     1      -1.547  -2.230  -0.122  0.00  0.00    +0.127 C 
BRANCH   2   3
ATOM      3  C   UNL     1      -1.712  -0.806  -0.587  0.00  0.00    +0.169 A 
ATOM      4  N   UNL     1      -0.783   0.117  -0.625  0.00  0.00    -0.112 NA
ATOM      5  N   UNL     1      -1.315   1.198  -1.081  0.00  0.00    -0.023 NA
ATOM      6  N   UNL     1      -2.560   0.988  -1.335  0.00  0.00    -0.044 NA
ATOM      7  N   UNL     1      -2.842  -0.238  -1.048  0.00  0.00    -0.225 N 
BRANCH   7   8
ATOM      8  C   UNL     1      -4.147  -0.888  -1.194  0.00  0.00    +0.111 C 
ATOM      9  C   UNL     1      -4.577  -0.843  -2.661  0.00  0.00    +0.027 C 
ATOM     10  C   UNL     1      -5.940  -1.522  -2.814  0.00  0.00    +0.002 C 
ATOM     11  C   UNL     1      -6.974  -0.789  -1.956  0.00  0.00    +0.000 C 
ATOM     12  C   UNL     1      -6.543  -0.833  -0.489  0.00  0.00    +0.002 C 
ATOM     13  C   UNL     1      -5.180  -0.154  -0.337  0.00  0.00    +0.027 C 
ENDBRANCH   7   8
ENDBRANCH   2   3
BRANCH   2  14
ATOM     14  C   UNL     1      -0.750  -3.018  -1.164  0.00  0.00    +0.026 C 
BRANCH  14  16
ATOM     15  C   UNL     1       0.037  -5.293  -1.831  0.00  0.00    +0.004 C 
ATOM     16  C   UNL     1      -0.650  -4.482  -0.731  0.00  0.00    -0.001 C 
ENDBRANCH  14  16
ENDBRANCH   2  14
ENDBRANCH   1   2
BRANCH   1  17
ATOM     17  C   UNL     1      -1.661  -1.699   2.238  0.00  0.00    +0.120 C 
BRANCH  17  18
ATOM     18  C   UNL     1      -2.693  -2.720   2.643  0.00  0.00    -0.033 A 
ATOM     19  C   UNL     1      -3.902  -2.784   1.974  0.00  0.00    +0.005 A 
ATOM     20  C   UNL     1      -4.848  -3.720   2.345  0.00  0.00    +0.000 A 
ATOM     21  C   UNL     1      -4.587  -4.592   3.385  0.00  0.00    +0.000 A 
ATOM     22  C   UNL     1      -3.378  -4.529   4.053  0.00  0.00    +0.000 A 
ATOM     23  C   UNL     1      -2.430  -3.596   3.679  0.00  0.00    +0.005 A 
ENDBRANCH  17  18
ENDBRANCH   1  17
BRANCH   1  24
ATOM     24  C   UNL     1       0.446  -1.522   1.057  0.00  0.00    +0.126 C 
BRANCH  24  25
ATOM     25  C   UNL     1       1.335  -1.904   2.212  0.00  0.00    +0.031 A 
ATOM     26  C   UNL     1       2.232  -2.911   2.070  0.00  0.00    +0.020 A 
ATOM     27  C   UNL     1       3.082  -3.257   3.211  0.00  0.00    -0.001 A 
ATOM     28  C   UNL     1       4.026  -4.285   3.124  0.00  0.00    +0.013 A 
ATOM     29  C   UNL     1       4.804  -4.584   4.207  0.00  0.00    -0.047 A 
ATOM     30  C   UNL     1       4.665  -3.876   5.393  0.00  0.00    +0.005 A 
ATOM     31  C   UNL     1       3.741  -2.859   5.501  0.00  0.00    +0.026 A 
ATOM     32  C   UNL     1       2.938  -2.537   4.411  0.00  0.00    +0.049 A 
ATOM     33  N   UNL     1       2.007  -1.524   4.492  0.00  0.00    -0.322 N 
ATOM     34  H   UNL     1       1.909  -1.028   5.320  0.00  0.00    +0.169 HD
ATOM     35  C   UNL     1       1.235  -1.209   3.437  0.00  0.00    +0.254 A 
ATOM     36  O   UNL     1       0.425  -0.304   3.542  0.00  0.00    -0.268 OA
BRANCH  29  37
ATOM     37  C   UNL     1       5.821  -5.692   4.113  0.00  0.00    +0.032 C 
ATOM     38  C   UNL     1       7.155  -5.119   3.631  0.00  0.00    +0.009 C 
ENDBRANCH  29  37
ENDBRANCH  24  25
ENDBRANCH   1  24
TORSDOF 10
