REMARK  Name = ZINC58960669
REMARK  6 active torsions:
REMARK  status: ('A' for Active; 'I' for Inactive)
REMARK    1  A    between atoms: C_4  and  N_8
REMARK    2  A    between atoms: C_9  and  C_11
REMARK    3  A    between atoms: C_11  and  S_12
REMARK    4  A    between atoms: S_12  and  C_13
REMARK    5  A    between atoms: C_15  and  C_23
REMARK    6  A    between atoms: C_17  and  C_19
REMARK                            x       y       z     vdW  Elec       q    Type
REMARK                         _______ _______ _______ _____ _____    ______ ____
ROOT
ATOM      1  C   UNL     1       6.388  -5.025   1.050  0.00  0.00    +0.190 A 
ATOM      2  N   UNL     1       6.552  -6.286   1.418  0.00  0.00    -0.222 NA
ATOM      3  C   UNL     1       7.768  -6.825   1.469  0.00  0.00    +0.076 A 
ATOM      4  C   UNL     1       8.872  -6.039   1.127  0.00  0.00    +0.060 A 
ATOM      5  C   UNL     1       8.655  -4.726   0.749  0.00  0.00    +0.148 A 
ATOM      6  N   UNL     1       7.417  -4.258   0.716  0.00  0.00    -0.218 NA
ENDROOT
BRANCH   3   7
ATOM      7  C   UNL     1       7.948  -8.238   1.881  0.00  0.00    +0.004 A 
ATOM      8  C   UNL     1       9.227  -8.791   1.936  0.00  0.00    +0.014 A 
ATOM      9  C   UNL     1       9.394 -10.105   2.320  0.00  0.00    +0.050 A 
ATOM     10  C   UNL     1       8.292 -10.880   2.653  0.00  0.00    +0.166 A 
ATOM     11  C   UNL     1       7.011 -10.332   2.600  0.00  0.00    +0.167 A 
ATOM     12  C   UNL     1       6.840  -9.013   2.220  0.00  0.00    +0.059 A 
ATOM     13  O   UNL     1       6.112 -11.289   2.970  0.00  0.00    -0.453 OA
ATOM     14  C   UNL     1       6.814 -12.541   2.855  0.00  0.00    +0.466 C 
ATOM     15  O   UNL     1       8.193 -12.180   3.057  0.00  0.00    -0.453 OA
ENDBRANCH   3   7
BRANCH   5  16
ATOM     16  C   UNL     1       9.815  -3.841   0.373  0.00  0.00    +0.434 C 
ATOM     17  F   UNL     1      10.057  -3.948  -1.001  0.00  0.00    -0.164 F 
ATOM     18  F   UNL     1       9.509  -2.513   0.690  0.00  0.00    -0.164 F 
ATOM     19  F   UNL     1      10.954  -4.238   1.080  0.00  0.00    -0.164 F 
ENDBRANCH   5  16
BRANCH   1  20
ATOM     20  S   UNL     1       4.762  -4.350   0.996  0.00  0.00    -0.077 S 
BRANCH  20  21
ATOM     21  C   UNL     1       5.014  -2.640   0.444  0.00  0.00    +0.173 C 
BRANCH  21  23
ATOM     22  N   UNL     1       3.624  -0.651  -0.037  0.00  0.00    -0.282 N 
ATOM     23  C   UNL     1       3.683  -1.940   0.354  0.00  0.00    +0.228 C 
ATOM     24  O   UNL     1       2.664  -2.535   0.634  0.00  0.00    -0.275 OA
ATOM     25  H   UNL     1       4.429  -0.197  -0.331  0.00  0.00    +0.155 HD
BRANCH  22  29
ATOM     26  C   UNL     1      -0.016   1.379   0.010  0.00  0.00    +0.003 A 
ATOM     27  C   UNL     1       0.787   1.377   1.136  0.00  0.00    +0.022 A 
ATOM     28  C   UNL     1       1.994   0.704   1.123  0.00  0.00    +0.064 A 
ATOM     29  C   UNL     1       2.401   0.030  -0.021  0.00  0.00    +0.070 A 
ATOM     30  C   UNL     1       1.591   0.035  -1.151  0.00  0.00    +0.064 A 
ATOM     31  C   UNL     1       0.385   0.710  -1.131  0.00  0.00    +0.022 A 
ATOM     32 CL   UNL     1       2.095  -0.805  -2.584  0.00  0.00    -0.082 Cl
ATOM     33 CL   UNL     1       3.002   0.702   2.537  0.00  0.00    -0.082 Cl
ENDBRANCH  22  29
ENDBRANCH  21  23
ENDBRANCH  20  21
ENDBRANCH   1  20
TORSDOF 6
