REMARK  Name = ZINC08431881
REMARK  11 active torsions:
REMARK  status: ('A' for Active; 'I' for Inactive)
REMARK    1  A    between atoms: C_1  and  C_2
REMARK    2  A    between atoms: C_5  and  C_36
REMARK    3  A    between atoms: C_6  and  O_8
REMARK    4  A    between atoms: O_8  and  C_9
REMARK    5  A    between atoms: C_9  and  C_10
REMARK    6  A    between atoms: C_10  and  C_12
REMARK    7  A    between atoms: C_10  and  O_35
REMARK    8  A    between atoms: C_12  and  N_81
REMARK    9  A    between atoms: C_19  and  C_29
REMARK   10  A    between atoms: C_36  and  C_37
REMARK   11  A    between atoms: C_36  and  C_38
REMARK                            x       y       z     vdW  Elec       q    Type
REMARK                         _______ _______ _______ _____ _____    ______ ____
ROOT
ATOM      1  C   UNL     1      -4.622   5.383   1.085  0.00  0.00    -0.056 C 
ATOM      2  C   UNL     1      -6.152   5.511   0.898  0.00  0.00    +0.103 C 
ATOM      3  N   UNL     1      -6.458   6.915   0.586  0.00  0.00    -0.347 N 
ATOM      4  C   UNL     1      -7.645   7.584   0.619  0.00  0.00    +0.049 A 
ATOM      5  C   UNL     1      -8.929   7.186   0.985  0.00  0.00    +0.027 A 
ATOM      6  C   UNL     1      -9.934   8.132   0.893  0.00  0.00    +0.006 A 
ATOM      7  C   UNL     1      -9.694   9.425   0.459  0.00  0.00    -0.044 A 
ATOM      8  C   UNL     1      -8.442   9.849   0.092  0.00  0.00    +0.014 A 
ATOM      9  C   UNL     1      -7.401   8.918   0.174  0.00  0.00    +0.003 A 
ATOM     10  C   UNL     1      -5.995   8.990  -0.116  0.00  0.00    -0.020 A 
ATOM     11  C   UNL     1      -5.479   7.779   0.195  0.00  0.00    +0.009 A 
ATOM     12  C   UNL     1      -4.009   7.473   0.017  0.00  0.00    -0.020 C 
ATOM     13  C   UNL     1      -3.535   8.094  -1.287  0.00  0.00    -0.009 C 
ATOM     14  C   UNL     1      -4.101   9.450  -1.629  0.00  0.00    +0.003 C 
ATOM     15  C   UNL     1      -5.079  10.063  -0.636  0.00  0.00    +0.037 C 
ATOM     16  N   UNL     1      -3.924   5.992  -0.066  0.00  0.00    +0.388 N 
ATOM     17  H   UNL     1      -4.375   5.680  -0.934  0.00  0.00    -0.081 HD
ENDROOT
BRANCH   7  18
ATOM     18  C   UNL     1     -10.844  10.396   0.386  0.00  0.00    +0.019 C 
ATOM     19  C   UNL     1     -11.456  10.567   1.778  0.00  0.00    +0.008 C 
ATOM     20  C   UNL     1     -12.623  11.553   1.704  0.00  0.00    +0.001 C 
ATOM     21  C   UNL     1     -13.685  11.015   0.743  0.00  0.00    +0.000 C 
ATOM     22  C   UNL     1     -13.073  10.844  -0.649  0.00  0.00    +0.001 C 
ATOM     23  C   UNL     1     -11.906   9.858  -0.576  0.00  0.00    +0.008 C 
ENDBRANCH   7  18
BRANCH  16  24
ATOM     24  C   UNL     1      -2.508   5.567  -0.082  0.00  0.00    -0.043 C 
BRANCH  24  25
ATOM     25  C   UNL     1      -1.900   5.681   1.318  0.00  0.00    +0.135 C 
BRANCH  25  26
ATOM     26  O   UNL     1      -1.831   7.058   1.696  0.00  0.00    -0.390 OA
ATOM     27  H   UNL     1      -1.291   7.601   1.105  0.00  0.00    +0.210 HD
ENDBRANCH  25  26
BRANCH  25  28
ATOM     28  C   UNL     1      -0.493   5.082   1.313  0.00  0.00    +0.258 C 
BRANCH  28  29
ATOM     29  O   UNL     1       0.030   5.083   2.643  0.00  0.00    -0.489 OA
BRANCH  29  35
ATOM     30  C   UNL     1       4.026   3.042   0.723  0.00  0.00    +0.044 C 
ATOM     31  C   UNL     1       3.257   3.574   1.905  0.00  0.00    -0.047 A 
ATOM     32  C   UNL     1       3.822   3.545   3.166  0.00  0.00    +0.004 A 
ATOM     33  C   UNL     1       3.119   4.033   4.252  0.00  0.00    +0.008 A 
ATOM     34  C   UNL     1       1.850   4.550   4.080  0.00  0.00    -0.003 A 
ATOM     35  C   UNL     1       1.281   4.580   2.815  0.00  0.00    +0.124 A 
ATOM     36  C   UNL     1       1.988   4.090   1.726  0.00  0.00    +0.049 A 
BRANCH  34  37
ATOM     37  C   UNL     1       1.084   5.081   5.264  0.00  0.00    +0.016 C 
ATOM     38  C   UNL     1       0.891   3.962   6.289  0.00  0.00    +0.012 C 
ATOM     39  C   UNL     1       1.866   6.229   5.904  0.00  0.00    +0.012 C 
ENDBRANCH  34  37
ENDBRANCH  29  35
ENDBRANCH  28  29
ENDBRANCH  25  28
ENDBRANCH  24  25
ENDBRANCH  16  24
TORSDOF 8
