REMARK  Name = ZINC44872117
REMARK  8 active torsions:
REMARK  status: ('A' for Active; 'I' for Inactive)
REMARK    1  A    between atoms: C_1  and  C_2
REMARK    2  A    between atoms: C_2  and  C_3
REMARK    3  A    between atoms: C_3  and  C_4
REMARK    4  A    between atoms: C_4  and  C_6
REMARK    5  A    between atoms: C_4  and  C_10
REMARK    6  A    between atoms: N_7  and  O_8
REMARK    7  A    between atoms: N_12  and  C_13
REMARK    8  A    between atoms: C_13  and  C_14
REMARK                            x       y       z     vdW  Elec       q    Type
REMARK                         _______ _______ _______ _____ _____    ______ ____
ROOT
ATOM      1  C   UNL     1       1.550  -2.512  -2.439  0.00  0.00    +0.224 C 
ATOM      2  O   UNL     1       2.060  -1.713  -3.195  0.00  0.00    -0.275 OA
ATOM      3  N   UNL     1       1.707  -3.834  -2.650  0.00  0.00    -0.311 N 
ATOM      4  H   UNL     1       1.298  -4.473  -2.045  0.00  0.00    +0.149 HD
ENDROOT
BRANCH   1   5
ATOM      5  C   UNL     1       0.739  -2.027  -1.265  0.00  0.00    +0.141 C 
BRANCH   5   6
ATOM      6  C   UNL     1      -0.671  -2.548  -1.378  0.00  0.00    +0.144 C 
ATOM      7  N   UNL     1      -1.588  -1.817  -1.919  0.00  0.00    -0.076 NA
ATOM      8  N   UNL     1      -0.981  -3.804  -0.905  0.00  0.00    -0.343 N 
ATOM      9  H   UNL     1      -0.292  -4.353  -0.499  0.00  0.00    +0.144 HD
ATOM     10  H   UNL     1      -1.888  -4.139  -0.978  0.00  0.00    +0.144 HD
BRANCH   7  11
ATOM     11  O   UNL     1      -2.912  -2.306  -2.026  0.00  0.00    -0.408 OA
ATOM     12  H   UNL     1      -3.528  -1.689  -2.444  0.00  0.00    +0.328 HD
ENDBRANCH   7  11
ENDBRANCH   5   6
BRANCH   5  13
ATOM     13  C   UNL     1       0.718  -0.497  -1.257  0.00  0.00    +0.020 C 
BRANCH  13  15
ATOM     14  C   UNL     1      -0.019   1.526   0.010  0.00  0.00    +0.004 C 
ATOM     15  C   UNL     1       0.002  -0.004   0.002  0.00  0.00    -0.002 C 
ENDBRANCH  13  15
ENDBRANCH   5  13
ENDBRANCH   1   5
BRANCH   3  16
ATOM     16  C   UNL     1       2.495  -4.306  -3.791  0.00  0.00    +0.140 C 
BRANCH  16  17
ATOM     17  C   UNL     1       2.515  -5.812  -3.800  0.00  0.00    -0.016 A 
ATOM     18  C   UNL     1       3.612  -6.492  -3.303  0.00  0.00    +0.006 A 
ATOM     19  C   UNL     1       3.630  -7.874  -3.310  0.00  0.00    +0.000 A 
ATOM     20  C   UNL     1       2.552  -8.578  -3.814  0.00  0.00    +0.001 A 
ATOM     21  C   UNL     1       1.456  -7.899  -4.311  0.00  0.00    +0.015 A 
ATOM     22  C   UNL     1       1.434  -6.516  -4.299  0.00  0.00    +0.023 A 
ATOM     23 BR   UNL     1      -0.069  -5.588  -4.973  0.00  0.00    -0.050 Br
ENDBRANCH  16  17
ENDBRANCH   3  16
TORSDOF 7
