REMARK  Name = ZINC01864236
REMARK  6 active torsions:
REMARK  status: ('A' for Active; 'I' for Inactive)
REMARK    1  A    between atoms: C_6  and  C_7
REMARK    2  A    between atoms: C_10  and  C_21
REMARK    3  A    between atoms: C_11  and  C_19
REMARK    4  A    between atoms: C_12  and  N_18
REMARK    5  A    between atoms: C_13  and  C_14
REMARK    6  A    between atoms: C_13  and  C_16
REMARK                            x       y       z     vdW  Elec       q    Type
REMARK                         _______ _______ _______ _____ _____    ______ ____
ROOT
ATOM      1  C   UNL     1      -0.005   0.046  -0.014  0.00  0.00    +0.082 C 
ATOM      2  C   UNL     1      -0.719  -0.456  -1.240  0.00  0.00    -0.011 C 
ATOM      3  C   UNL     1      -2.031  -0.649  -1.224  0.00  0.00    -0.029 C 
ATOM      4  C   UNL     1      -2.798  -0.373   0.009  0.00  0.00    +0.074 C 
ATOM      5  C   UNL     1      -2.141  -0.312   1.202  0.00  0.00    +0.054 C 
ATOM      6  C   UNL     1      -0.650  -0.528   1.246  0.00  0.00    +0.191 C 
ENDROOT
BRANCH   1  12
ATOM      7  C   UNL     1      -1.312   2.179   0.069  0.00  0.00    +0.007 A 
ATOM      8  C   UNL     1      -1.383   3.558   0.112  0.00  0.00    +0.038 A 
ATOM      9  C   UNL     1      -0.221   4.311   0.102  0.00  0.00    +0.123 A 
ATOM     10  C   UNL     1       1.011   3.681   0.055  0.00  0.00    +0.038 A 
ATOM     11  C   UNL     1       1.080   2.301   0.017  0.00  0.00    +0.007 A 
ATOM     12  C   UNL     1      -0.081   1.550   0.027  0.00  0.00    -0.037 A 
ATOM     13  F   UNL     1      -0.289   5.660   0.138  0.00  0.00    -0.205 F 
ENDBRANCH   1  12
BRANCH   5  14
ATOM     14  N   UNL     1      -2.831  -0.055   2.354  0.00  0.00    -0.358 N 
ATOM     15  H   UNL     1      -2.298  -0.007   3.315  0.00  0.00    +0.142 HD
ATOM     16  H   UNL     1      -3.919   0.102   2.319  0.00  0.00    +0.142 HD
ENDBRANCH   5  14
BRANCH   3  17
ATOM     17  C   UNL     1      -2.738  -1.146  -2.458  0.00  0.00    +0.020 C 
ATOM     18  C   UNL     1      -2.268  -0.603  -3.809  0.00  0.00    +0.009 C 
ATOM     19  C   UNL     1      -3.607  -0.148  -3.226  0.00  0.00    +0.009 C 
ENDBRANCH   3  17
BRANCH   6  20
ATOM     20  C   UNL     1      -0.368  -1.971   1.326  0.00  0.00    +0.091 C 
ATOM     21  N   UNL     1      -0.150  -3.084   1.387  0.00  0.00    -0.194 NA
ENDBRANCH   6  20
BRANCH   6  22
ATOM     22  C   UNL     1      -0.093   0.144   2.431  0.00  0.00    +0.091 C 
ATOM     23  N   UNL     1       0.338   0.662   3.345  0.00  0.00    -0.194 NA
ENDBRANCH   6  22
BRANCH   4  24
ATOM     24  C   UNL     1      -4.214  -0.171  -0.049  0.00  0.00    +0.101 C 
ATOM     25  N   UNL     1      -5.338  -0.011  -0.095  0.00  0.00    -0.191 NA
ENDBRANCH   4  24
TORSDOF 6
