REMARK  Name = ZINC09344735
REMARK  9 active torsions:
REMARK  status: ('A' for Active; 'I' for Inactive)
REMARK    1  A    between atoms: C_1  and  C_2
REMARK    2  A    between atoms: C_2  and  O_3
REMARK    3  A    between atoms: O_3  and  C_4
REMARK    4  A    between atoms: C_7  and  C_10
REMARK    5  A    between atoms: C_24  and  S_37
REMARK    6  A    between atoms: C_27  and  C_29
REMARK    7  A    between atoms: C_32  and  O_35
REMARK    8  A    between atoms: O_35  and  C_36
REMARK    9  A    between atoms: S_37  and  C_38
REMARK                            x       y       z     vdW  Elec       q    Type
REMARK                         _______ _______ _______ _____ _____    ______ ____
ROOT
ATOM      1  C   UNL     1       1.109  -6.040  -1.847  0.00  0.00    +0.234 C 
ATOM      2  C   UNL     1       2.429  -6.503  -1.304  0.00  0.00    +0.025 C 
ATOM      3  C   UNL     1       3.520  -6.549  -2.096  0.00  0.00    +0.058 C 
ATOM      4  C   UNL     1       3.355  -6.136  -3.513  0.00  0.00    +0.040 A 
ATOM      5  C   UNL     1       4.449  -5.836  -4.314  0.00  0.00    +0.013 A 
ATOM      6  C   UNL     1       4.248  -5.455  -5.627  0.00  0.00    +0.001 A 
ATOM      7  C   UNL     1       2.966  -5.372  -6.141  0.00  0.00    +0.004 A 
ATOM      8  C   UNL     1       1.872  -5.670  -5.350  0.00  0.00    +0.046 A 
ATOM      9  C   UNL     1       2.057  -6.054  -4.033  0.00  0.00    +0.131 A 
ATOM     10  O   UNL     1       1.006  -6.357  -3.237  0.00  0.00    -0.479 OA
ATOM     11  N   UNL     1       4.723  -6.957  -1.623  0.00  0.00    -0.326 N 
ATOM     12  C   UNL     1       4.940  -7.345  -0.385  0.00  0.00    +0.216 C 
ATOM     13  N   UNL     1       6.055  -7.775   0.235  0.00  0.00    -0.192 NA
ATOM     14  C   UNL     1       5.797  -8.061   1.495  0.00  0.00    +0.174 C 
ATOM     15  N   UNL     1       4.471  -7.820   1.747  0.00  0.00    -0.239 N 
ATOM     16  N   UNL     1       3.921  -7.361   0.548  0.00  0.00    -0.209 N 
ATOM     17  C   UNL     1       2.578  -6.931   0.139  0.00  0.00    +0.159 C 
ATOM     18  H   UNL     1       5.473  -6.963  -2.238  0.00  0.00    +0.169 HD
ATOM     19  H   UNL     1       4.008  -7.944   2.590  0.00  0.00    +0.172 HD
ENDROOT
BRANCH   1  23
ATOM     20  C   UNL     1       0.777  -1.810  -1.336  0.00  0.00    +0.121 A 
ATOM     21  C   UNL     1       0.243  -2.669  -0.386  0.00  0.00    +0.046 A 
ATOM     22  C   UNL     1       0.351  -4.036  -0.554  0.00  0.00    +0.011 A 
ATOM     23  C   UNL     1       0.992  -4.548  -1.667  0.00  0.00    -0.003 A 
ATOM     24  C   UNL     1       1.525  -3.694  -2.615  0.00  0.00    +0.011 A 
ATOM     25  C   UNL     1       1.414  -2.327  -2.455  0.00  0.00    +0.046 A 
BRANCH  20  26
ATOM     26  O   UNL     1       0.671  -0.465  -1.174  0.00  0.00    -0.492 OA
BRANCH  26  28
ATOM     27  C   UNL     1      -0.019   1.526   0.010  0.00  0.00    +0.048 C 
ATOM     28  C   UNL     1       0.002  -0.004   0.002  0.00  0.00    +0.225 C 
ENDBRANCH  26  28
ENDBRANCH  20  26
ENDBRANCH   1  23
BRANCH  17  29
ATOM     29  C   UNL     1       1.623  -8.069   0.393  0.00  0.00    -0.021 A 
ATOM     30  C   UNL     1       1.958  -9.352   0.002  0.00  0.00    +0.009 A 
ATOM     31  C   UNL     1       1.084 -10.396   0.233  0.00  0.00    +0.046 A 
ATOM     32  C   UNL     1      -0.131 -10.157   0.858  0.00  0.00    +0.120 A 
ATOM     33  C   UNL     1      -0.465  -8.869   1.250  0.00  0.00    +0.046 A 
ATOM     34  C   UNL     1       0.415  -7.828   1.021  0.00  0.00    +0.009 A 
BRANCH  32  35
ATOM     35  O   UNL     1      -0.993 -11.183   1.086  0.00  0.00    -0.495 OA
ATOM     36  C   UNL     1      -2.225 -10.863   1.735  0.00  0.00    +0.277 C 
ENDBRANCH  32  35
ENDBRANCH  17  29
BRANCH  14  37
ATOM     37  S   UNL     1       6.968  -8.657   2.669  0.00  0.00    -0.092 S 
ATOM     38  C   UNL     1       8.517  -8.760   1.730  0.00  0.00    +0.093 C 
ENDBRANCH  14  37
TORSDOF 6
