REMARK  Name = ZINC18709430
REMARK  14 active torsions:
REMARK  status: ('A' for Active; 'I' for Inactive)
REMARK    1  A    between atoms: C_1  and  C_2
REMARK    2  A    between atoms: C_2  and  C_3
REMARK    3  A    between atoms: C_3  and  C_4
REMARK    4  A    between atoms: C_4  and  N_5
REMARK    5  A    between atoms: N_5  and  C_6
REMARK    6  A    between atoms: C_7  and  N_18
REMARK    7  A    between atoms: N_8  and  C_15
REMARK    8  A    between atoms: C_15  and  C_16
REMARK    9  A    between atoms: C_16  and  C_17
REMARK   10  A    between atoms: C_19  and  C_21
REMARK   11  A    between atoms: C_21  and  N_72
REMARK   12  A    between atoms: N_24  and  C_27
REMARK   13  A    between atoms: C_31  and  C_34
REMARK   14  A    between atoms: C_32  and  C_33
REMARK                            x       y       z     vdW  Elec       q    Type
REMARK                         _______ _______ _______ _____ _____    ______ ____
ROOT
ATOM      1  N   UNL     1       4.483   4.202   1.645  0.00  0.00    -0.266 N 
ATOM      2  C   UNL     1       3.333   3.505   1.760  0.00  0.00    +0.203 C 
ATOM      3  O   UNL     1       2.309   4.072   2.080  0.00  0.00    -0.277 OA
ENDROOT
BRANCH   1   4
ATOM      4  C   UNL     1       4.476   5.605   1.802  0.00  0.00    +0.140 A 
ATOM      5  C   UNL     1       3.771   6.405   0.926  0.00  0.00    +0.127 A 
ATOM      6  N   UNL     1       3.783   7.769   1.105  0.00  0.00    -0.280 N 
ATOM      7  C   UNL     1       4.474   8.316   2.121  0.00  0.00    +0.331 A 
ATOM      8  O   UNL     1       4.473   9.524   2.262  0.00  0.00    -0.246 OA
ATOM      9  N   UNL     1       5.168   7.552   2.983  0.00  0.00    -0.273 N 
ATOM     10  H   UNL     1       5.677   7.984   3.728  0.00  0.00    +0.173 HD
ATOM     11  C   UNL     1       5.184   6.211   2.856  0.00  0.00    +0.277 A 
ATOM     12  O   UNL     1       5.812   5.527   3.647  0.00  0.00    -0.266 OA
BRANCH   5  13
ATOM     13  N   UNL     1       3.064   5.846  -0.112  0.00  0.00    -0.343 N 
ATOM     14  H   UNL     1       3.147   4.898  -0.300  0.00  0.00    +0.144 HD
ATOM     15  H   UNL     1       2.483   6.400  -0.656  0.00  0.00    +0.144 HD
ENDBRANCH   5  13
BRANCH   6  16
ATOM     16  C   UNL     1       3.038   8.631   0.184  0.00  0.00    +0.128 C 
BRANCH  16  17
ATOM     17  C   UNL     1       1.615   8.830   0.710  0.00  0.00    +0.018 C 
ATOM     18  C   UNL     1       0.837   9.730  -0.252  0.00  0.00    +0.005 C 
ENDBRANCH  16  17
ENDBRANCH   6  16
ENDBRANCH   1   4
BRANCH   1  19
ATOM     19  C   UNL     1       5.738   3.503   1.358  0.00  0.00    +0.114 C 
BRANCH  19  20
ATOM     20  C   UNL     1       5.968   3.470  -0.154  0.00  0.00    +0.019 C 
BRANCH  20  22
ATOM     21  C   UNL     1       7.510   2.707  -1.967  0.00  0.00    +0.004 C 
ATOM     22  C   UNL     1       7.279   2.740  -0.455  0.00  0.00    -0.002 C 
ENDBRANCH  20  22
ENDBRANCH  19  20
ENDBRANCH   1  19
BRANCH   2  23
ATOM     23  C   UNL     1       3.321   2.022   1.492  0.00  0.00    +0.019 C 
BRANCH  23  29
ATOM     24  C   UNL     1       1.042   2.044   0.673  0.00  0.00    -0.059 C 
ATOM     25  C   UNL     1      -0.376   1.540   0.955  0.00  0.00    +0.086 C 
ATOM     26  N   UNL     1      -0.384   0.071   0.935  0.00  0.00    -0.333 N 
ATOM     27  C   UNL     1       0.535  -0.472   1.945  0.00  0.00    +0.086 C 
ATOM     28  C   UNL     1       1.953   0.032   1.664  0.00  0.00    -0.059 C 
ATOM     29  N   UNL     1       1.952   1.509   1.708  0.00  0.00    +0.387 N 
ATOM     30  H   UNL     1       1.623   1.815   2.632  0.00  0.00    -0.081 HD
BRANCH  26  31
ATOM     31  C   UNL     1      -1.677  -0.425   1.118  0.00  0.00    +0.033 A 
ATOM     32  C   UNL     1      -2.381  -0.125   2.278  0.00  0.00    +0.023 A 
ATOM     33  C   UNL     1      -3.659  -0.616   2.455  0.00  0.00    +0.002 A 
ATOM     34  C   UNL     1      -4.239  -1.406   1.479  0.00  0.00    +0.004 A 
ATOM     35  C   UNL     1      -3.541  -1.707   0.324  0.00  0.00    -0.046 A 
ATOM     36  C   UNL     1      -2.264  -1.214   0.138  0.00  0.00    -0.027 A 
ATOM     37  C   UNL     1      -1.508  -1.537  -1.125  0.00  0.00    +0.046 C 
ATOM     38  C   UNL     1      -4.177  -2.569  -0.737  0.00  0.00    +0.044 C 
ENDBRANCH  26  31
ENDBRANCH  23  29
ENDBRANCH   2  23
TORSDOF 10
