REMARK  Name = ZINC32710209
REMARK  8 active torsions:
REMARK  status: ('A' for Active; 'I' for Inactive)
REMARK    1  A    between atoms: C_4  and  C_7
REMARK    2  A    between atoms: C_7  and  N_8
REMARK    3  A    between atoms: N_11  and  C_14
REMARK    4  A    between atoms: C_17  and  N_20
REMARK    5  A    between atoms: C_21  and  C_23
REMARK    6  A    between atoms: C_23  and  C_24
REMARK    7  A    between atoms: C_27  and  S_29
REMARK    8  A    between atoms: S_29  and  N_32
REMARK                            x       y       z     vdW  Elec       q    Type
REMARK                         _______ _______ _______ _____ _____    ______ ____
ROOT
ATOM      1  C   UNL     1       1.041  -2.543   4.865  0.00  0.00    +0.030 A 
ATOM      2  C   UNL     1      -0.110  -3.086   5.422  0.00  0.00    +0.025 A 
ATOM      3  C   UNL     1      -0.094  -3.554   6.720  0.00  0.00    +0.025 A 
ATOM      4  C   UNL     1       1.070  -3.473   7.474  0.00  0.00    +0.034 A 
ATOM      5  C   UNL     1       2.219  -2.925   6.919  0.00  0.00    +0.025 A 
ATOM      6  C   UNL     1       2.205  -2.462   5.619  0.00  0.00    +0.025 A 
ENDROOT
BRANCH   1  10
ATOM      7  N   UNL     1       0.166  -0.395   1.415  0.00  0.00    +0.384 N 
ATOM      8  C   UNL     1       1.490  -0.213   2.025  0.00  0.00    -0.059 C 
ATOM      9  C   UNL     1       1.443  -0.665   3.486  0.00  0.00    +0.086 C 
ATOM     10  N   UNL     1       1.027  -2.073   3.548  0.00  0.00    -0.333 N 
ATOM     11  C   UNL     1      -0.298  -2.255   2.938  0.00  0.00    +0.086 C 
ATOM     12  C   UNL     1      -0.250  -1.804   1.477  0.00  0.00    -0.059 C 
ATOM     13  H   UNL     1      -0.558   0.198   1.992  0.00  0.00    -0.081 HD
BRANCH   7  14
ATOM     14  C   UNL     1       0.150   0.098   0.031  0.00  0.00    -0.043 C 
BRANCH  14  18
ATOM     15  C   UNL     1       0.689   4.336   0.024  0.00  0.00    +0.000 A 
ATOM     16  C   UNL     1       1.787   3.499  -0.041  0.00  0.00    +0.000 A 
ATOM     17  C   UNL     1       1.613   2.128  -0.039  0.00  0.00    +0.002 A 
ATOM     18  C   UNL     1       0.340   1.593   0.029  0.00  0.00    -0.064 A 
ATOM     19  C   UNL     1      -0.759   2.429   0.089  0.00  0.00    +0.002 A 
ATOM     20  C   UNL     1      -0.584   3.801   0.092  0.00  0.00    +0.000 A 
ENDBRANCH  14  18
ENDBRANCH   7  14
ENDBRANCH   1  10
BRANCH   4  21
ATOM     21  N   UNL     1       1.084  -3.943   8.794  0.00  0.00    -0.285 N 
ATOM     22  C   UNL     1       1.854  -3.334   9.718  0.00  0.00    +0.222 C 
ATOM     23  O   UNL     1       2.459  -2.323   9.432  0.00  0.00    -0.275 OA
ATOM     24  H   UNL     1       0.467  -4.809   9.076  0.00  0.00    +0.155 HD
BRANCH  22  25
ATOM     25  C   UNL     1       1.962  -3.910  11.106  0.00  0.00    +0.138 C 
BRANCH  25  26
ATOM     26  C   UNL     1       2.876  -3.047  11.938  0.00  0.00    +0.000 A 
ATOM     27  C   UNL     1       2.569  -1.979  12.714  0.00  0.00    +0.013 A 
ATOM     28  C   UNL     1       3.583  -1.333  13.396  0.00  0.00    +0.036 A 
ATOM     29  C   UNL     1       4.853  -1.786  13.269  0.00  0.00    +0.142 A 
ATOM     30  S   UNL     1       4.642  -3.172  12.164  0.00  0.00    -0.073 S 
BRANCH  29  31
ATOM     31  S   UNL     1       6.330  -1.172  14.009  0.00  0.00    +0.062 S 
ATOM     32  O   UNL     1       7.404  -1.584  13.175  0.00  0.00    -0.153 OA
ATOM     33  O   UNL     1       6.090   0.193  14.322  0.00  0.00    -0.153 OA
BRANCH  31  34
ATOM     34  N   UNL     1       6.520  -1.962  15.451  0.00  0.00    -0.203 NA
ATOM     35  H   UNL     1       7.435  -1.606  15.947  0.00  0.00    +0.144 HD
ATOM     36  H   UNL     1       6.600  -3.044  15.269  0.00  0.00    +0.144 HD
ENDBRANCH  31  34
ENDBRANCH  29  31
ENDBRANCH  25  26
ENDBRANCH  22  25
ENDBRANCH   4  21
TORSDOF 8
