REMARK  Name = ZINC67239892
REMARK  6 active torsions:
REMARK  status: ('A' for Active; 'I' for Inactive)
REMARK    1  A    between atoms: C_4  and  C_8
REMARK    2  A    between atoms: C_8  and  C_9
REMARK    3  A    between atoms: C_9  and  C_10
REMARK    4  A    between atoms: N_12  and  C_13
REMARK    5  A    between atoms: C_16  and  C_19
REMARK    6  A    between atoms: C_19  and  N_20
REMARK                            x       y       z     vdW  Elec       q    Type
REMARK                         _______ _______ _______ _____ _____    ______ ____
ROOT
ATOM      1  C   UNL     1       5.489  -1.700   1.381  0.00  0.00    +0.218 C 
ATOM      2  O   UNL     1       6.004  -1.998   0.323  0.00  0.00    -0.275 OA
ATOM      3  N   UNL     1       6.091  -2.034   2.540  0.00  0.00    -0.285 N 
ATOM      4  H   UNL     1       5.715  -1.738   3.384  0.00  0.00    +0.155 HD
ENDROOT
BRANCH   3   5
ATOM      5  C   UNL     1       7.257  -2.807   2.526  0.00  0.00    +0.033 A 
ATOM      6  C   UNL     1       7.487  -3.738   3.530  0.00  0.00    +0.023 A 
ATOM      7  C   UNL     1       8.639  -4.499   3.514  0.00  0.00    +0.007 A 
ATOM      8  C   UNL     1       9.563  -4.335   2.499  0.00  0.00    -0.030 A 
ATOM      9  C   UNL     1       9.338  -3.408   1.497  0.00  0.00    +0.007 A 
ATOM     10  C   UNL     1       8.185  -2.648   1.505  0.00  0.00    +0.023 A 
BRANCH   8  11
ATOM     11  C   UNL     1      10.820  -5.167   2.484  0.00  0.00    +0.141 C 
BRANCH  11  12
ATOM     12  N   UNL     1      10.579  -6.401   1.733  0.00  0.00    -0.295 N 
ATOM     13  C   UNL     1      11.568  -7.305   1.587  0.00  0.00    +0.297 C 
ATOM     14  O   UNL     1      12.660  -7.096   2.078  0.00  0.00    -0.253 OA
ATOM     15  N   UNL     1      11.346  -8.441   0.896  0.00  0.00    -0.313 N 
ATOM     16  H   UNL     1       9.707  -6.568   1.341  0.00  0.00    +0.151 HD
ATOM     17  H   UNL     1      10.475  -8.608   0.504  0.00  0.00    +0.146 HD
ATOM     18  H   UNL     1      12.058  -9.091   0.791  0.00  0.00    +0.146 HD
ENDBRANCH  11  12
ENDBRANCH   8  11
ENDBRANCH   3   5
BRANCH   1  19
ATOM     19  C   UNL     1       4.178  -0.958   1.398  0.00  0.00    +0.101 C 
BRANCH  19  20
ATOM     20  C   UNL     1       3.716  -0.705  -0.038  0.00  0.00    +0.050 C 
BRANCH  20  24
ATOM     21  C   UNL     1      -0.004   1.402   0.010  0.00  0.00    +0.006 A 
ATOM     22  C   UNL     1       1.187   2.103  -0.003  0.00  0.00    +0.039 A 
ATOM     23  C   UNL     1       2.393   1.422  -0.019  0.00  0.00    +0.129 A 
ATOM     24  C   UNL     1       2.405   0.038  -0.021  0.00  0.00    +0.023 A 
ATOM     25  C   UNL     1       1.212  -0.664  -0.007  0.00  0.00    +0.129 A 
ATOM     26  C   UNL     1       0.007   0.020   0.009  0.00  0.00    +0.039 A 
ATOM     27  F   UNL     1       1.222  -2.015  -0.009  0.00  0.00    -0.205 F 
ATOM     28  F   UNL     1       3.556   2.108  -0.033  0.00  0.00    -0.205 F 
ENDBRANCH  20  24
ENDBRANCH  19  20
ENDBRANCH   1  19
TORSDOF 6
