REMARK  Name = ZINC35668877
REMARK  5 active torsions:
REMARK  status: ('A' for Active; 'I' for Inactive)
REMARK    1  A    between atoms: C_3  and  C_15
REMARK    2  A    between atoms: C_5  and  O_7
REMARK    3  A    between atoms: O_7  and  C_8
REMARK    4  A    between atoms: C_8  and  C_10
REMARK    5  A    between atoms: C_27  and  O_29
REMARK                            x       y       z     vdW  Elec       q    Type
REMARK                         _______ _______ _______ _____ _____    ______ ____
ROOT
ATOM      1  C   UNL     1       3.705   2.165  -0.246  0.00  0.00    +0.224 C 
ATOM      2  N   UNL     1       3.565   3.460   0.444  0.00  0.00    -0.313 N 
ATOM      3  C   UNL     1       3.770   3.451   1.805  0.00  0.00    +0.080 A 
ATOM      4  C   UNL     1       4.557   2.475   2.429  0.00  0.00    +0.068 A 
ATOM      5  C   UNL     1       4.671   2.587   3.871  0.00  0.00    -0.023 A 
ATOM      6  C   UNL     1       3.999   3.632   4.408  0.00  0.00    -0.005 A 
ATOM      7  S   UNL     1       3.239   4.439   3.026  0.00  0.00    -0.078 S 
ATOM      8  C   UNL     1       3.926   4.007   5.856  0.00  0.00    +0.043 C 
ATOM      9  C   UNL     1       4.420   2.816   6.689  0.00  0.00    +0.005 C 
ATOM     10  C   UNL     1       5.736   2.306   6.094  0.00  0.00    +0.005 C 
ATOM     11  C   UNL     1       5.471   1.633   4.746  0.00  0.00    +0.037 C 
ATOM     12  C   UNL     1       5.190   1.448   1.562  0.00  0.00    +0.220 C 
ATOM     13  N   UNL     1       4.781   1.366   0.326  0.00  0.00    -0.223 NA
ATOM     14  H   UNL     1       3.342   4.274  -0.035  0.00  0.00    +0.149 HD
ENDROOT
BRANCH   1  17
ATOM     15  C   UNL     1       0.024   1.390   0.090  0.00  0.00    +0.004 A 
ATOM     16  C   UNL     1       1.214   2.086  -0.018  0.00  0.00    +0.007 A 
ATOM     17  C   UNL     1       2.410   1.403  -0.128  0.00  0.00    -0.002 A 
ATOM     18  C   UNL     1       2.420   0.021  -0.129  0.00  0.00    +0.053 A 
ATOM     19  C   UNL     1       1.228  -0.680  -0.020  0.00  0.00    +0.132 A 
ATOM     20  C   UNL     1       0.028   0.009   0.089  0.00  0.00    +0.046 A 
BRANCH  19  21
ATOM     21  O   UNL     1       1.235  -2.039  -0.021  0.00  0.00    -0.422 OA
BRANCH  21  22
ATOM     22  C   UNL     1       1.758  -2.670   1.051  0.00  0.00    +0.351 C 
ATOM     23  O   UNL     1       2.110  -2.029   2.023  0.00  0.00    -0.244 OA
BRANCH  22  24
ATOM     24  C   UNL     1       1.904  -4.127   1.043  0.00  0.00    +0.097 A 
ATOM     25  C   UNL     1       2.406  -4.961   2.032  0.00  0.00    +0.022 A 
ATOM     26  C   UNL     1       2.417  -6.302   1.733  0.00  0.00    +0.008 A 
ATOM     27  C   UNL     1       1.949  -6.712   0.527  0.00  0.00    +0.046 A 
ATOM     28  S   UNL     1       1.474  -5.293  -0.235  0.00  0.00    -0.090 S 
ENDBRANCH  22  24
ENDBRANCH  21  22
ENDBRANCH  19  21
ENDBRANCH   1  17
BRANCH  12  29
ATOM     29  O   UNL     1       6.156   0.629   2.037  0.00  0.00    -0.492 OA
ATOM     30  H   UNL     1       6.495   0.001   1.385  0.00  0.00    +0.294 HD
ENDBRANCH  12  29
TORSDOF 5
