REMARK  Name = ZINC00678973
REMARK  7 active torsions:
REMARK  status: ('A' for Active; 'I' for Inactive)
REMARK    1  A    between atoms: C_1  and  C_2
REMARK    2  A    between atoms: N_4  and  S_5
REMARK    3  A    between atoms: S_5  and  C_8
REMARK    4  A    between atoms: C_11  and  N_14
REMARK    5  A    between atoms: N_14  and  C_15
REMARK    6  A    between atoms: C_15  and  N_17
REMARK    7  A    between atoms: C_18  and  C_20
REMARK                            x       y       z     vdW  Elec       q    Type
REMARK                         _______ _______ _______ _____ _____    ______ ____
ROOT
ATOM      1  N   UNL     1      -3.076   3.043   4.820  0.00  0.00    -0.297 N 
ATOM      2  H   UNL     1      -3.587   3.868   4.814  0.00  0.00    +0.154 HD
ENDROOT
BRANCH   1   6
ATOM      3  C   UNL     1      -0.954   1.883   1.428  0.00  0.00    +0.109 A 
ATOM      4  C   UNL     1      -0.940   3.205   1.832  0.00  0.00    +0.030 A 
ATOM      5  C   UNL     1      -1.646   3.594   2.953  0.00  0.00    +0.025 A 
ATOM      6  C   UNL     1      -2.363   2.653   3.681  0.00  0.00    +0.033 A 
ATOM      7  C   UNL     1      -2.371   1.325   3.276  0.00  0.00    +0.025 A 
ATOM      8  C   UNL     1      -1.667   0.944   2.151  0.00  0.00    +0.030 A 
BRANCH   3   9
ATOM      9  S   UNL     1      -0.056   1.393  -0.006  0.00  0.00    +0.074 S 
ATOM     10  O   UNL     1       0.220   0.006   0.141  0.00  0.00    -0.150 OA
ATOM     11  O   UNL     1       0.971   2.357  -0.193  0.00  0.00    -0.150 OA
BRANCH   9  15
ATOM     12  C   UNL     1      -2.470   2.881  -2.842  0.00  0.00    +0.111 C 
ATOM     13  C   UNL     1      -1.537   2.750  -1.665  0.00  0.00    +0.229 C 
ATOM     14  O   UNL     1      -1.196   3.738  -1.049  0.00  0.00    -0.275 OA
ATOM     15  N   UNL     1      -1.081   1.536  -1.299  0.00  0.00    -0.186 N 
ATOM     16  H   UNL     1      -1.353   0.747  -1.792  0.00  0.00    +0.177 HD
ENDBRANCH   9  15
ENDBRANCH   3   9
ENDBRANCH   1   6
BRANCH   1  17
ATOM     17  C   UNL     1      -3.054   2.272   5.925  0.00  0.00    +0.141 C 
ATOM     18  S   UNL     1      -2.043   0.892   5.986  0.00  0.00    -0.018 S 
BRANCH  17  19
ATOM     19  N   UNL     1      -3.828   2.588   6.982  0.00  0.00    -0.264 N 
ATOM     20  C   UNL     1      -3.806   1.817   8.088  0.00  0.00    +0.250 C 
ATOM     21  O   UNL     1      -3.088   0.837   8.131  0.00  0.00    -0.270 OA
ATOM     22  H   UNL     1      -4.401   3.369   6.948  0.00  0.00    +0.157 HD
BRANCH  20  23
ATOM     23  C   UNL     1      -4.654   2.163   9.246  0.00  0.00    +0.039 A 
ATOM     24  C   UNL     1      -5.476   3.291   9.202  0.00  0.00    +0.014 A 
ATOM     25  C   UNL     1      -6.269   3.607  10.284  0.00  0.00    +0.022 A 
ATOM     26  C   UNL     1      -6.245   2.813  11.419  0.00  0.00    +0.059 A 
ATOM     27  C   UNL     1      -5.428   1.695  11.472  0.00  0.00    +0.060 A 
ATOM     28  C   UNL     1      -4.633   1.366  10.393  0.00  0.00    +0.034 A 
ATOM     29 CL   UNL     1      -5.405   0.706  12.899  0.00  0.00    -0.082 Cl
ATOM     30 CL   UNL     1      -7.242   3.221  12.781  0.00  0.00    -0.082 Cl
ENDBRANCH  20  23
ENDBRANCH  17  19
ENDBRANCH   1  17
TORSDOF 6
