REMARK  Name = ZINC00397831
REMARK  0 active torsions:
REMARK  status: ('A' for Active; 'I' for Inactive)
REMARK                            x       y       z     vdW  Elec       q    Type
REMARK                         _______ _______ _______ _____ _____    ______ ____
ROOT
ATOM      1  C   UNL     1       1.412   2.066  -0.000  0.00  0.00    +0.001 C 
ATOM      2  C   UNL     1      -0.019   1.527   0.010  0.00  0.00    +0.003 C 
ATOM      3  C   UNL     1       0.002  -0.004   0.002  0.00  0.00    +0.032 C 
ATOM      4  C   UNL     1       0.728  -0.486  -1.253  0.00  0.00    +0.126 C 
ATOM      5  C   UNL     1       2.170   0.035  -1.227  0.00  0.00    +0.044 C 
ATOM      6  C   UNL     1       2.148   1.563  -1.245  0.00  0.00    +0.008 C 
ATOM      7  C   UNL     1       2.905  -0.504  -2.456  0.00  0.00    +0.168 C 
ATOM      8  O   UNL     1       2.800  -1.933  -2.455  0.00  0.00    -0.354 OA
ATOM      9  C   UNL     1       1.457  -2.421  -2.447  0.00  0.00    +0.323 C 
ATOM     10  O   UNL     1       0.759  -1.912  -1.305  0.00  0.00    -0.350 OA
ENDROOT
TORSDOF 0
