REMARK  Name = ZINC43668535
REMARK  8 active torsions:
REMARK  status: ('A' for Active; 'I' for Inactive)
REMARK    1  A    between atoms: C_1  and  C_2
REMARK    2  A    between atoms: C_4  and  N_19
REMARK    3  A    between atoms: N_5  and  C_7
REMARK    4  A    between atoms: C_7  and  C_9
REMARK    5  A    between atoms: C_7  and  C_10
REMARK    6  A    between atoms: C_13  and  C_16
REMARK    7  A    between atoms: C_16  and  C_17
REMARK    8  A    between atoms: C_16  and  C_18
REMARK                            x       y       z     vdW  Elec       q    Type
REMARK                         _______ _______ _______ _____ _____    ______ ____
ROOT
ATOM      1  C   UNL     1       0.053  -3.291   1.500  0.00  0.00    +0.136 C 
ATOM      2  C   UNL     1      -1.192  -3.293   2.389  0.00  0.00    +0.038 C 
ENDROOT
BRANCH   1   7
ATOM      3  C   UNL     1      -0.018   1.503   0.010  0.00  0.00    +0.069 C 
ATOM      4  C   UNL     1       0.002  -0.004   0.002  0.00  0.00    +0.076 A 
ATOM      5  C   UNL     1       0.008  -0.815  -1.136  0.00  0.00    +0.080 A 
ATOM      6  C   UNL     1       0.027  -2.113  -0.724  0.00  0.00    +0.129 A 
ATOM      7  N   UNL     1       0.034  -2.109   0.634  0.00  0.00    -0.243 N 
ATOM      8  N   UNL     1       0.023  -0.775   1.059  0.00  0.00    -0.173 NA
ATOM      9 BR   UNL     1      -0.009  -0.216  -2.930  0.00  0.00    -0.045 Br
BRANCH   6  10
ATOM     10  N   UNL     1       0.039  -3.238  -1.545  0.00  0.00    -0.342 N 
ATOM     11  H   UNL     1       0.033  -3.135  -2.510  0.00  0.00    +0.144 HD
ATOM     12  H   UNL     1       0.052  -4.125  -1.152  0.00  0.00    +0.144 HD
ENDBRANCH   6  10
ENDBRANCH   1   7
BRANCH   1  13
ATOM     13  C   UNL     1       1.288  -3.259   2.365  0.00  0.00    -0.023 A 
ATOM     14  C   UNL     1       1.493  -2.207   3.238  0.00  0.00    +0.006 A 
ATOM     15  C   UNL     1       2.625  -2.178   4.030  0.00  0.00    +0.004 A 
ATOM     16  C   UNL     1       3.551  -3.201   3.951  0.00  0.00    -0.045 A 
ATOM     17  C   UNL     1       3.345  -4.254   3.078  0.00  0.00    +0.004 A 
ATOM     18  C   UNL     1       2.211  -4.285   2.288  0.00  0.00    +0.006 A 
BRANCH  16  19
ATOM     19  C   UNL     1       4.786  -3.169   4.814  0.00  0.00    +0.013 C 
ATOM     20  C   UNL     1       4.811  -4.406   5.715  0.00  0.00    +0.012 C 
ATOM     21  C   UNL     1       6.031  -3.161   3.925  0.00  0.00    +0.012 C 
ENDBRANCH  16  19
ENDBRANCH   1  13
TORSDOF 4
