REMARK  Name = ZINC29039854
REMARK  8 active torsions:
REMARK  status: ('A' for Active; 'I' for Inactive)
REMARK    1  A    between atoms: C_1  and  O_2
REMARK    2  A    between atoms: O_2  and  C_3
REMARK    3  A    between atoms: C_3  and  C_4
REMARK    4  A    between atoms: C_4  and  N_5
REMARK    5  A    between atoms: N_5  and  C_6
REMARK    6  A    between atoms: C_12  and  C_22
REMARK    7  A    between atoms: C_13  and  C_15
REMARK    8  A    between atoms: N_28  and  C_29
REMARK                            x       y       z     vdW  Elec       q    Type
REMARK                         _______ _______ _______ _____ _____    ______ ____
ROOT
ATOM      1  C   UNL     1       6.479   4.340  -0.925  0.00  0.00    +0.031 A 
ATOM      2  C   UNL     1       7.838   4.497  -0.580  0.00  0.00    +0.042 A 
ATOM      3  C   UNL     1       8.427   3.634   0.271  0.00  0.00    +0.115 A 
ATOM      4  N   UNL     1       7.727   2.596   0.816  0.00  0.00    -0.239 N 
ATOM      5  C   UNL     1       6.407   2.414   0.503  0.00  0.00    +0.078 A 
ATOM      6  C   UNL     1       5.763   3.293  -0.379  0.00  0.00    +0.051 A 
ATOM      7  C   UNL     1       5.967   1.282   1.207  0.00  0.00    +0.054 A 
ATOM      8  C   UNL     1       7.068   0.805   1.949  0.00  0.00    +0.103 A 
ATOM      9  N   UNL     1       8.104   1.583   1.707  0.00  0.00    -0.166 NA
ENDROOT
BRANCH   7  10
ATOM     10  C   UNL     1       4.611   0.704   1.181  0.00  0.00    +0.080 A 
ATOM     11  C   UNL     1       3.967   0.343   2.373  0.00  0.00    +0.048 A 
ATOM     12  C   UNL     1       2.697  -0.194   2.298  0.00  0.00    +0.116 A 
ATOM     13  N   UNL     1       2.126  -0.346   1.111  0.00  0.00    -0.223 NA
ATOM     14  C   UNL     1       2.758  -0.001  -0.002  0.00  0.00    +0.216 A 
ATOM     15  N   UNL     1       3.976   0.517   0.022  0.00  0.00    -0.214 NA
ATOM     16  N   UNL     1       2.126  -0.183  -1.220  0.00  0.00    -0.311 N 
ATOM     17  H   UNL     1       2.636   0.102  -2.151  0.00  0.00    +0.149 HD
BRANCH  16  18
ATOM     18  C   UNL     1       0.778  -0.755  -1.267  0.00  0.00    +0.073 C 
ATOM     19  C   UNL     1      -0.275   0.362  -1.115  0.00  0.00    +0.022 C 
ATOM     20  C   UNL     1      -0.668   0.714  -2.572  0.00  0.00    +0.002 C 
ATOM     21  C   UNL     1      -0.664  -0.668  -3.272  0.00  0.00    +0.002 C 
ATOM     22  C   UNL     1       0.532  -1.409  -2.638  0.00  0.00    +0.022 C 
ENDBRANCH  16  18
ENDBRANCH   7  10
BRANCH   8  23
ATOM     23  C   UNL     1       7.062  -0.375   2.847  0.00  0.00    +0.003 A 
ATOM     24  C   UNL     1       7.708  -0.318   4.081  0.00  0.00    +0.013 A 
ATOM     25  C   UNL     1       7.696  -1.417   4.915  0.00  0.00    +0.039 A 
ATOM     26  C   UNL     1       7.052  -2.579   4.523  0.00  0.00    +0.123 A 
ATOM     27  C   UNL     1       6.413  -2.642   3.295  0.00  0.00    +0.039 A 
ATOM     28  C   UNL     1       6.416  -1.547   2.457  0.00  0.00    +0.013 A 
ATOM     29  F   UNL     1       7.047  -3.655   5.340  0.00  0.00    -0.205 F 
ENDBRANCH   8  23
BRANCH   1  30
ATOM     30  N   UNL     1       5.868   5.229  -1.804  0.00  0.00    -0.342 N 
ATOM     31  H   UNL     1       4.808   5.101  -2.067  0.00  0.00    +0.146 HD
BRANCH  30  32
ATOM     32  C   UNL     1       6.636   6.337  -2.377  0.00  0.00    +0.129 C 
BRANCH  32  33
ATOM     33  C   UNL     1       5.735   7.157  -3.303  0.00  0.00    +0.178 C 
BRANCH  33  35
ATOM     34  C   UNL     1       3.797   8.567  -3.309  0.00  0.00    +0.194 C 
ATOM     35  O   UNL     1       4.699   7.773  -2.535  0.00  0.00    -0.381 OA
ENDBRANCH  33  35
ENDBRANCH  32  33
ENDBRANCH  30  32
ENDBRANCH   1  30
TORSDOF 7
