REMARK  Name = ZINC40701809
REMARK  5 active torsions:
REMARK  status: ('A' for Active; 'I' for Inactive)
REMARK    1  A    between atoms: C_1  and  C_2
REMARK    2  A    between atoms: C_13  and  N_29
REMARK    3  A    between atoms: C_14  and  N_18
REMARK    4  A    between atoms: N_18  and  C_19
REMARK    5  A    between atoms: C_24  and  C_25
REMARK                            x       y       z     vdW  Elec       q    Type
REMARK                         _______ _______ _______ _____ _____    ______ ____
ROOT
ATOM      1  C   UNL     1      -0.141   1.505   0.013  0.00  0.00    +0.046 C 
ATOM      2  C   UNL     1      -0.102  -0.002   0.004  0.00  0.00    -0.024 A 
ATOM      3  C   UNL     1      -0.100  -0.672  -1.191  0.00  0.00    +0.005 A 
ATOM      4  C   UNL     1      -0.064  -2.058  -1.245  0.00  0.00    +0.001 A 
ATOM      5  C   UNL     1      -0.029  -2.781  -0.066  0.00  0.00    +0.017 A 
ATOM      6  C   UNL     1      -0.031  -2.118   1.135  0.00  0.00    +0.041 A 
ATOM      7  C   UNL     1      -0.062  -0.707   1.228  0.00  0.00    +0.083 A 
ATOM      8  N   UNL     1      -0.053  -0.203   2.482  0.00  0.00    -0.224 NA
ATOM      9  C   UNL     1      -0.014  -0.968   3.549  0.00  0.00    +0.165 A 
ATOM     10  S   UNL     1       0.004  -2.609   2.842  0.00  0.00    -0.052 S 
ATOM     11  N   UNL     1       0.001  -0.598   4.880  0.00  0.00    -0.277 N 
ATOM     12  C   UNL     1       0.044  -1.571   5.873  0.00  0.00    +0.150 A 
ATOM     13  C   UNL     1       0.053  -1.210   7.221  0.00  0.00    +0.106 A 
ATOM     14  C   UNL     1       0.097  -2.227   8.177  0.00  0.00    +0.149 A 
ATOM     15  N   UNL     1       0.128  -3.493   7.769  0.00  0.00    -0.219 NA
ATOM     16  C   UNL     1       0.118  -3.792   6.486  0.00  0.00    +0.225 A 
ATOM     17  N   UNL     1       0.072  -2.863   5.552  0.00  0.00    -0.219 NA
ATOM     18  H   UNL     1      -0.019   0.342   5.123  0.00  0.00    +0.156 HD
ENDROOT
BRANCH  13  19
ATOM     19  N   UNL     1       0.019   0.140   7.606  0.00  0.00    -0.353 N 
ATOM     20  H   UNL     1      -0.011   0.836   6.931  0.00  0.00    +0.143 HD
ATOM     21  H   UNL     1       0.026   0.376   8.547  0.00  0.00    +0.143 HD
ENDBRANCH  13  19
BRANCH  14  22
ATOM     22  N   UNL     1       0.108  -1.922   9.533  0.00  0.00    -0.297 N 
ATOM     23  H   UNL     1       0.173  -0.998   9.822  0.00  0.00    +0.154 HD
BRANCH  22  24
ATOM     24  C   UNL     1       0.026  -2.946  10.481  0.00  0.00    +0.044 A 
ATOM     25  C   UNL     1      -0.562  -4.159  10.145  0.00  0.00    +0.024 A 
ATOM     26  C   UNL     1      -0.641  -5.169  11.084  0.00  0.00    +0.002 A 
ATOM     27  C   UNL     1      -0.136  -4.974  12.356  0.00  0.00    +0.001 A 
ATOM     28  C   UNL     1       0.450  -3.768  12.693  0.00  0.00    +0.014 A 
ATOM     29  C   UNL     1       0.537  -2.755  11.758  0.00  0.00    +0.076 A 
BRANCH  29  30
ATOM     30  C   UNL     1       1.181  -1.443  12.124  0.00  0.00    +0.419 C 
ATOM     31  F   UNL     1       1.615  -1.492  13.454  0.00  0.00    -0.166 F 
ATOM     32  F   UNL     1       2.276  -1.210  11.285  0.00  0.00    -0.166 F 
ATOM     33  F   UNL     1       0.251  -0.409  11.976  0.00  0.00    -0.166 F 
ENDBRANCH  29  30
ENDBRANCH  22  24
ENDBRANCH  14  22
TORSDOF 4
