REMARK  Name = ZINC35779134
REMARK  3 active torsions:
REMARK  status: ('A' for Active; 'I' for Inactive)
REMARK    1  A    between atoms: C_4  and  C_7
REMARK    2  A    between atoms: C_9  and  N_19
REMARK    3  A    between atoms: N_10  and  C_12
REMARK                            x       y       z     vdW  Elec       q    Type
REMARK                         _______ _______ _______ _____ _____    ______ ____
ROOT
ATOM      1  C   UNL     1       3.721  -0.673   0.108  0.00  0.00    +0.095 A 
ATOM      2  C   UNL     1       3.873  -2.073   0.137  0.00  0.00    +0.073 A 
ATOM      3  C   UNL     1       5.183  -2.353  -0.096  0.00  0.00    +0.120 A 
ATOM      4  N   UNL     1       5.835  -1.169  -0.267  0.00  0.00    -0.217 N 
ATOM      5  N   UNL     1       4.897  -0.137  -0.140  0.00  0.00    -0.165 NA
ENDROOT
BRANCH   4   6
ATOM      6  C   UNL     1       7.202  -1.013  -0.528  0.00  0.00    +0.081 A 
ATOM      7  C   UNL     1       7.809  -1.760  -1.529  0.00  0.00    +0.029 A 
ATOM      8  C   UNL     1       9.157  -1.604  -1.785  0.00  0.00    +0.002 A 
ATOM      9  C   UNL     1       9.903  -0.704  -1.045  0.00  0.00    +0.001 A 
ATOM     10  C   UNL     1       9.303   0.042  -0.048  0.00  0.00    +0.017 A 
ATOM     11  C   UNL     1       7.953  -0.105   0.209  0.00  0.00    +0.043 A 
ATOM     12 BR   UNL     1       7.130   0.921   1.567  0.00  0.00    -0.048 Br
ENDBRANCH   4   6
BRANCH   1  16
ATOM     13  C   UNL     1       0.085   1.452   0.698  0.00  0.00    +0.000 A 
ATOM     14  C   UNL     1       1.255   2.145   0.446  0.00  0.00    +0.001 A 
ATOM     15  C   UNL     1       2.438   1.460   0.254  0.00  0.00    +0.010 A 
ATOM     16  C   UNL     1       2.452   0.068   0.314  0.00  0.00    +0.002 A 
ATOM     17  C   UNL     1       1.270  -0.625   0.569  0.00  0.00    +0.010 A 
ATOM     18  C   UNL     1       0.093   0.070   0.760  0.00  0.00    +0.001 A 
ENDBRANCH   1  16
BRANCH   3  19
ATOM     19  N   UNL     1       5.754  -3.621  -0.151  0.00  0.00    -0.343 N 
ATOM     20  H   UNL     1       5.191  -4.409  -0.102  0.00  0.00    +0.144 HD
ATOM     21  H   UNL     1       6.716  -3.716  -0.237  0.00  0.00    +0.144 HD
ENDBRANCH   3  19
TORSDOF 3
