REMARK  Name = ZINC32975015
REMARK  11 active torsions:
REMARK  status: ('A' for Active; 'I' for Inactive)
REMARK    1  A    between atoms: C_1  and  N_2
REMARK    2  A    between atoms: N_2  and  C_3
REMARK    3  A    between atoms: N_2  and  C_30
REMARK    4  A    between atoms: C_3  and  C_4
REMARK    5  A    between atoms: C_4  and  N_5
REMARK    6  A    between atoms: C_6  and  C_8
REMARK    7  A    between atoms: C_8  and  C_9
REMARK    8  A    between atoms: C_9  and  C_10
REMARK    9  A    between atoms: N_12  and  C_24
REMARK   10  A    between atoms: C_14  and  C_15
REMARK   11  A    between atoms: C_30  and  C_31
REMARK                            x       y       z     vdW  Elec       q    Type
REMARK                         _______ _______ _______ _____ _____    ______ ____
ROOT
ATOM      1  C   UNL     1      -2.463  -0.343   0.597  0.00  0.00    -0.001 A 
ATOM      2  C   UNL     1      -1.288  -0.834   0.148  0.00  0.00    +0.118 A 
ATOM      3  N   UNL     1      -1.537  -2.024  -0.457  0.00  0.00    -0.239 N 
ATOM      4  N   UNL     1      -2.913  -2.275  -0.370  0.00  0.00    -0.166 NA
ATOM      5  C   UNL     1      -3.474  -1.267   0.267  0.00  0.00    +0.096 A 
ENDROOT
BRANCH   5   6
ATOM      6  C   UNL     1      -4.918  -1.127   0.575  0.00  0.00    +0.006 A 
ATOM      7  C   UNL     1      -5.323  -0.668   1.827  0.00  0.00    +0.014 A 
ATOM      8  C   UNL     1      -6.666  -0.539   2.114  0.00  0.00    +0.050 A 
ATOM      9  C   UNL     1      -7.618  -0.865   1.159  0.00  0.00    +0.166 A 
ATOM     10  C   UNL     1      -7.218  -1.324  -0.095  0.00  0.00    +0.167 A 
ATOM     11  C   UNL     1      -5.872  -1.455  -0.386  0.00  0.00    +0.059 A 
ATOM     12  O   UNL     1      -8.332  -1.573  -0.844  0.00  0.00    -0.453 OA
ATOM     13  C   UNL     1      -9.419  -1.651   0.098  0.00  0.00    +0.466 C 
ATOM     14  O   UNL     1      -8.982  -0.825   1.194  0.00  0.00    -0.453 OA
ENDBRANCH   5   6
BRANCH   3  15
ATOM     15  C   UNL     1      -0.586  -2.856  -1.062  0.00  0.00    +0.065 A 
ATOM     16  C   UNL     1       0.751  -2.483  -1.083  0.00  0.00    +0.028 A 
ATOM     17  C   UNL     1       1.688  -3.307  -1.676  0.00  0.00    +0.002 A 
ATOM     18  C   UNL     1       1.293  -4.498  -2.258  0.00  0.00    +0.000 A 
ATOM     19  C   UNL     1      -0.039  -4.870  -2.242  0.00  0.00    +0.002 A 
ATOM     20  C   UNL     1      -0.979  -4.053  -1.646  0.00  0.00    +0.028 A 
ENDBRANCH   3  15
BRANCH   1  21
ATOM     21  C   UNL     1      -2.659   0.962   1.326  0.00  0.00    +0.048 C 
BRANCH  21  22
ATOM     22  C   UNL     1      -3.186   2.017   0.352  0.00  0.00    +0.100 C 
BRANCH  22  24
ATOM     23  N   UNL     1      -3.710   4.434   0.383  0.00  0.00    -0.317 N 
ATOM     24  C   UNL     1      -3.269   3.349   1.050  0.00  0.00    +0.213 C 
ATOM     25  O   UNL     1      -2.940   3.446   2.214  0.00  0.00    -0.276 OA
ATOM     26  H   UNL     1      -4.009   4.346  -0.672  0.00  0.00    +0.149 HD
BRANCH  23  27
ATOM     27  C   UNL     1      -3.792   5.729   1.062  0.00  0.00    +0.085 C 
BRANCH  27  28
ATOM     28  C   UNL     1      -4.319   6.784   0.087  0.00  0.00    -0.060 C 
BRANCH  28  30
ATOM     29  C   UNL     1      -3.062   8.575   1.126  0.00  0.00    -0.096 C 
ATOM     30  N   UNL     1      -4.400   8.083   0.768  0.00  0.00    +0.382 N 
ATOM     31  H   UNL     1      -4.968   7.942   1.700  0.00  0.00    -0.082 HD
BRANCH  30  32
ATOM     32  C   UNL     1      -5.119   9.065  -0.054  0.00  0.00    -0.043 C 
BRANCH  32  33
ATOM     33  C   UNL     1      -5.398  10.299   0.765  0.00  0.00    -0.064 A 
ATOM     34  C   UNL     1      -6.572  10.398   1.488  0.00  0.00    +0.002 A 
ATOM     35  C   UNL     1      -6.825  11.527   2.243  0.00  0.00    +0.000 A 
ATOM     36  C   UNL     1      -5.909  12.562   2.267  0.00  0.00    +0.000 A 
ATOM     37  C   UNL     1      -4.738  12.466   1.540  0.00  0.00    +0.000 A 
ATOM     38  C   UNL     1      -4.482  11.334   0.789  0.00  0.00    +0.002 A 
ENDBRANCH  32  33
ENDBRANCH  30  32
ENDBRANCH  28  30
ENDBRANCH  27  28
ENDBRANCH  23  27
ENDBRANCH  22  24
ENDBRANCH  21  22
ENDBRANCH   1  21
TORSDOF 10
