REMARK  Name = ZINC02524652
REMARK  5 active torsions:
REMARK  status: ('A' for Active; 'I' for Inactive)
REMARK    1  A    between atoms: C_1  and  O_2
REMARK    2  A    between atoms: O_2  and  C_3
REMARK    3  A    between atoms: C_7  and  C_10
REMARK    4  A    between atoms: C_8  and  O_9
REMARK    5  A    between atoms: C_11  and  C_12
REMARK                            x       y       z     vdW  Elec       q    Type
REMARK                         _______ _______ _______ _____ _____    ______ ____
ROOT
ATOM      1  C   UNL     1       0.606  -0.608  -1.056  0.00  0.00    +0.163 A 
ATOM      2  C   UNL     1       1.172   0.160  -2.061  0.00  0.00    +0.063 A 
ATOM      3  C   UNL     1       1.790  -0.446  -3.143  0.00  0.00    +0.018 A 
ATOM      4  C   UNL     1       1.848  -1.819  -3.233  0.00  0.00    +0.026 A 
ATOM      5  C   UNL     1       1.281  -2.610  -2.225  0.00  0.00    +0.021 A 
ATOM      6  C   UNL     1       0.661  -1.995  -1.127  0.00  0.00    +0.166 A 
ATOM      7  I   UNL     1       2.639   0.733  -4.653  0.00  0.00    -0.044 I 
ENDROOT
BRANCH   1   9
ATOM      8  C   UNL     1      -0.017   1.425   0.010  0.00  0.00    +0.277 C 
ATOM      9  O   UNL     1       0.002  -0.004   0.002  0.00  0.00    -0.491 OA
ENDBRANCH   1   9
BRANCH   6  10
ATOM     10  O   UNL     1       0.112  -2.751  -0.142  0.00  0.00    -0.503 OA
ATOM     11  H   UNL     1      -0.816  -2.978  -0.291  0.00  0.00    +0.292 HD
ENDBRANCH   6  10
BRANCH   5  12
ATOM     12  C   UNL     1       1.340  -4.074  -2.316  0.00  0.00    +0.019 C 
ATOM     13  C   UNL     1       1.943  -4.664  -3.374  0.00  0.00    +0.096 C 
BRANCH  13  14
ATOM     14  C   UNL     1       2.000  -6.073  -3.461  0.00  0.00    +0.380 C 
ATOM     15  O   UNL     1       1.503  -6.762  -2.578  0.00  0.00    -0.241 OA
ATOM     16  O   UNL     1       2.546  -6.607  -4.420  0.00  0.00    -0.241 OA
ENDBRANCH  13  14
ENDBRANCH   5  12
TORSDOF 4
