REMARK  Name = ZINC09674402
REMARK  10 active torsions:
REMARK  status: ('A' for Active; 'I' for Inactive)
REMARK    1  A    between atoms: C_1  and  C_2
REMARK    2  A    between atoms: C_7  and  N_8
REMARK    3  A    between atoms: C_9  and  C_11
REMARK    4  A    between atoms: C_11  and  S_12
REMARK    5  A    between atoms: S_12  and  C_13
REMARK    6  A    between atoms: C_23  and  C_28
REMARK    7  A    between atoms: C_28  and  C_29
REMARK    8  A    between atoms: C_29  and  C_30
REMARK    9  A    between atoms: N_32  and  C_33
REMARK   10  A    between atoms: C_33  and  C_34
REMARK                            x       y       z     vdW  Elec       q    Type
REMARK                         _______ _______ _______ _____ _____    ______ ____
ROOT
ATOM      1  C   UNL     1      -5.197   1.368   0.280  0.00  0.00    +0.169 C 
ATOM      2  N   UNL     1      -5.048   0.074   0.365  0.00  0.00    -0.225 NA
ATOM      3  C   UNL     1      -6.104  -0.768   0.488  0.00  0.00    +0.077 A 
ATOM      4  C   UNL     1      -5.923  -2.151   0.577  0.00  0.00    +0.028 A 
ATOM      5  C   UNL     1      -7.019  -2.976   0.699  0.00  0.00    +0.002 A 
ATOM      6  C   UNL     1      -8.303  -2.451   0.737  0.00  0.00    +0.001 A 
ATOM      7  C   UNL     1      -8.505  -1.089   0.650  0.00  0.00    +0.013 A 
ATOM      8  C   UNL     1      -7.410  -0.240   0.526  0.00  0.00    +0.041 A 
ATOM      9  C   UNL     1      -7.578   1.226   0.430  0.00  0.00    +0.139 C 
ATOM     10  N   UNL     1      -8.658   1.955   0.440  0.00  0.00    -0.255 NA
ATOM     11  C   UNL     1      -8.253   3.362   0.315  0.00  0.00    +0.194 C 
ATOM     12  C   UNL     1      -6.742   3.302   0.232  0.00  0.00    +0.251 C 
ATOM     13  O   UNL     1      -5.976   4.234   0.119  0.00  0.00    -0.272 OA
ATOM     14  N   UNL     1      -6.428   1.989   0.313  0.00  0.00    -0.200 N 
ENDROOT
BRANCH   1  15
ATOM     15  S   UNL     1      -3.756   2.370   0.124  0.00  0.00    -0.080 S 
BRANCH  15  16
ATOM     16  C   UNL     1      -2.478   1.089   0.142  0.00  0.00    +0.173 C 
BRANCH  16  18
ATOM     17  N   UNL     1      -0.011   0.966   0.007  0.00  0.00    -0.285 N 
ATOM     18  C   UNL     1      -1.121   1.731   0.017  0.00  0.00    +0.227 C 
ATOM     19  O   UNL     1      -1.026   2.937  -0.076  0.00  0.00    -0.275 OA
ATOM     20  H   UNL     1      -0.089  -0.001   0.016  0.00  0.00    +0.155 HD
BRANCH  17  27
ATOM     21  C   UNL     1       2.108  -0.297   1.425  0.00  0.00    +0.045 C 
ATOM     22  C   UNL     1       2.315   0.983   0.657  0.00  0.00    -0.029 A 
ATOM     23  C   UNL     1       3.562   1.575   0.624  0.00  0.00    +0.005 A 
ATOM     24  C   UNL     1       3.751   2.753  -0.075  0.00  0.00    +0.000 A 
ATOM     25  C   UNL     1       2.694   3.339  -0.748  0.00  0.00    +0.002 A 
ATOM     26  C   UNL     1       1.446   2.749  -0.722  0.00  0.00    +0.023 A 
ATOM     27  C   UNL     1       1.253   1.566  -0.021  0.00  0.00    +0.036 A 
ENDBRANCH  17  27
ENDBRANCH  16  18
ENDBRANCH  15  16
ENDBRANCH   1  15
BRANCH  11  28
ATOM     28  C   UNL     1      -8.694   4.159   1.545  0.00  0.00    +0.045 C 
BRANCH  28  29
ATOM     29  C   UNL     1     -10.222   4.226   1.588  0.00  0.00    +0.098 C 
BRANCH  29  30
ATOM     30  C   UNL     1     -10.656   5.011   2.799  0.00  0.00    +0.213 C 
ATOM     31  O   UNL     1      -9.825   5.471   3.553  0.00  0.00    -0.276 OA
ATOM     32  N   UNL     1     -11.967   5.201   3.044  0.00  0.00    -0.308 N 
ATOM     33  H   UNL     1     -12.632   4.833   2.441  0.00  0.00    +0.149 HD
BRANCH  32  34
ATOM     34  C   UNL     1     -12.390   5.964   4.221  0.00  0.00    +0.178 C 
BRANCH  34  35
ATOM     35  C   UNL     1     -13.895   6.030   4.264  0.00  0.00    +0.122 A 
ATOM     36  C   UNL     1     -14.704   5.142   4.869  0.00  0.00    +0.046 A 
ATOM     37  C   UNL     1     -16.029   5.590   4.663  0.00  0.00    +0.041 A 
ATOM     38  C   UNL     1     -15.951   6.721   3.938  0.00  0.00    +0.195 A 
ATOM     39  O   UNL     1     -14.655   6.982   3.699  0.00  0.00    -0.466 OA
ENDBRANCH  34  35
ENDBRANCH  32  34
ENDBRANCH  29  30
ENDBRANCH  28  29
ENDBRANCH  11  28
TORSDOF 9
