REMARK  Name = ZINC59121134
REMARK  12 active torsions:
REMARK  status: ('A' for Active; 'I' for Inactive)
REMARK    1  A    between atoms: C_1  and  C_2
REMARK    2  A    between atoms: C_2  and  C_3
REMARK    3  A    between atoms: C_4  and  C_29
REMARK    4  A    between atoms: C_9  and  C_11
REMARK    5  A    between atoms: C_11  and  S_12
REMARK    6  A    between atoms: S_12  and  C_13
REMARK    7  A    between atoms: C_16  and  C_19
REMARK    8  A    between atoms: N_17  and  N_18
REMARK    9  A    between atoms: C_22  and  C_25
REMARK   10  A    between atoms: C_25  and  C_26
REMARK   11  A    between atoms: C_25  and  C_27
REMARK   12  A    between atoms: C_25  and  C_28
REMARK                            x       y       z     vdW  Elec       q    Type
REMARK                         _______ _______ _______ _____ _____    ______ ____
ROOT
ATOM      1  C   UNL     1       7.890  -2.994  -5.688  0.00  0.00    +0.209 A 
ATOM      2  N   UNL     1       8.748  -2.846  -4.703  0.00  0.00    -0.121 NA
ATOM      3  N   UNL     1       9.931  -3.156  -5.099  0.00  0.00    -0.127 NA
ATOM      4  C   UNL     1       9.901  -3.520  -6.360  0.00  0.00    +0.182 A 
ATOM      5  N   UNL     1       8.592  -3.433  -6.774  0.00  0.00    -0.224 N 
ENDROOT
BRANCH   4   6
ATOM      6  C   UNL     1      11.056  -3.949  -7.178  0.00  0.00    +0.021 A 
ATOM      7  C   UNL     1      10.948  -4.002  -8.569  0.00  0.00    +0.012 A 
ATOM      8  C   UNL     1      12.029  -4.402  -9.327  0.00  0.00    +0.005 A 
ATOM      9  C   UNL     1      13.218  -4.750  -8.711  0.00  0.00    -0.042 A 
ATOM     10  C   UNL     1      13.331  -4.701  -7.333  0.00  0.00    +0.005 A 
ATOM     11  C   UNL     1      12.260  -4.296  -6.564  0.00  0.00    +0.012 A 
BRANCH   9  12
ATOM     12  C   UNL     1      14.394  -5.187  -9.546  0.00  0.00    -0.013 C 
ATOM     13  C   UNL     1      14.787  -4.059 -10.502  0.00  0.00    +0.015 C 
ATOM     14  C   UNL     1      15.576  -5.514  -8.630  0.00  0.00    +0.015 C 
ATOM     15  C   UNL     1      14.015  -6.431 -10.352  0.00  0.00    +0.015 C 
ENDBRANCH   9  12
ENDBRANCH   4   6
BRANCH   5  16
ATOM     16  N   UNL     1       8.098  -3.722  -8.014  0.00  0.00    -0.295 N 
ATOM     17  H   UNL     1       8.114  -2.907  -8.609  0.00  0.00    +0.163 HD
ATOM     18  H   UNL     1       8.604  -4.487  -8.436  0.00  0.00    +0.163 HD
ENDBRANCH   5  16
BRANCH   1  19
ATOM     19  S   UNL     1       6.156  -2.689  -5.618  0.00  0.00    -0.075 S 
BRANCH  19  20
ATOM     20  C   UNL     1       5.877  -2.135  -3.914  0.00  0.00    +0.173 C 
BRANCH  20  27
ATOM     21  C   UNL     1       0.707  -0.490  -1.238  0.00  0.00    +0.053 A 
ATOM     22  C   UNL     1       0.033  -0.724  -2.390  0.00  0.00    +0.011 A 
ATOM     23  S   UNL     1       1.365  -1.259  -3.453  0.00  0.00    -0.057 S 
ATOM     24  C   UNL     1       2.618  -1.130  -2.337  0.00  0.00    +0.165 A 
ATOM     25  N   UNL     1       2.010  -0.702  -1.252  0.00  0.00    -0.229 NA
ATOM     26  N   UNL     1       3.968  -1.406  -2.519  0.00  0.00    -0.264 N 
ATOM     27  C   UNL     1       4.413  -1.836  -3.716  0.00  0.00    +0.229 C 
ATOM     28  O   UNL     1       3.635  -1.983  -4.635  0.00  0.00    -0.275 OA
ATOM     29  C   UNL     1      -1.436  -0.574  -2.692  0.00  0.00    +0.053 C 
ATOM     30  H   UNL     1       4.591  -1.288  -1.784  0.00  0.00    +0.157 HD
BRANCH  21  32
ATOM     31  C   UNL     1      -0.019   1.526   0.010  0.00  0.00    +0.010 C 
ATOM     32  C   UNL     1       0.002  -0.004   0.002  0.00  0.00    +0.053 C 
ENDBRANCH  21  32
ENDBRANCH  20  27
ENDBRANCH  19  20
ENDBRANCH   1  19
TORSDOF 7
