REMARK  Name = ZINC04890368
REMARK  9 active torsions:
REMARK  status: ('A' for Active; 'I' for Inactive)
REMARK    1  A    between atoms: C_1  and  C_2
REMARK    2  A    between atoms: C_2  and  C_3
REMARK    3  A    between atoms: C_2  and  C_4
REMARK    4  A    between atoms: C_2  and  N_5
REMARK    5  A    between atoms: C_6  and  C_8
REMARK    6  A    between atoms: C_8  and  C_10
REMARK    7  A    between atoms: C_8  and  N_15
REMARK    8  A    between atoms: N_15  and  C_16
REMARK    9  A    between atoms: C_19  and  C_21
REMARK                            x       y       z     vdW  Elec       q    Type
REMARK                         _______ _______ _______ _____ _____    ______ ____
ROOT
ATOM      1  C   UNL     1       2.403  -1.382   0.119  0.00  0.00    +0.199 C 
ENDROOT
BRANCH   1   2
ATOM      2  C   UNL     1       1.747  -0.108   0.587  0.00  0.00    +0.019 A 
ATOM      3  C   UNL     1       2.285   1.128   0.727  0.00  0.00    +0.013 A 
ATOM      4  C   UNL     1       1.485   2.161   1.178  0.00  0.00    +0.008 A 
ATOM      5  C   UNL     1       0.185   1.907   1.467  0.00  0.00    +0.045 A 
ATOM      6  S   UNL     1       0.059   0.165   1.100  0.00  0.00    -0.099 S 
ENDBRANCH   1   2
BRANCH   1   8
ATOM      7  N   UNL     1       2.400  -0.718  -2.263  0.00  0.00    -0.309 N 
ATOM      8  C   UNL     1       2.056  -1.624  -1.327  0.00  0.00    +0.239 C 
ATOM      9  O   UNL     1       1.467  -2.634  -1.649  0.00  0.00    -0.273 OA
ATOM     10  H   UNL     1       2.872   0.090  -2.006  0.00  0.00    +0.149 HD
BRANCH   7  12
ATOM     11  C   UNL     1       0.545  -1.077  -3.816  0.00  0.00    +0.031 C 
ATOM     12  C   UNL     1       2.063  -0.953  -3.670  0.00  0.00    +0.026 C 
ATOM     13  C   UNL     1       2.563   0.219  -4.517  0.00  0.00    +0.031 C 
ATOM     14  C   UNL     1       2.729  -2.246  -4.144  0.00  0.00    +0.031 C 
ENDBRANCH   7  12
ENDBRANCH   1   8
BRANCH   1  15
ATOM     15  N   UNL     1       1.924  -2.504   0.931  0.00  0.00    -0.277 N 
ATOM     16  C   UNL     1       2.768  -3.139   1.767  0.00  0.00    +0.268 C 
ATOM     17  O   UNL     1       2.392  -4.117   2.384  0.00  0.00    -0.268 OA
BRANCH  16  18
ATOM     18  C   UNL     1       4.149  -2.649   1.934  0.00  0.00    +0.156 A 
ATOM     19  C   UNL     1       5.032  -3.159   2.874  0.00  0.00    +0.101 A 
ATOM     20  S   UNL     1       6.437  -2.193   2.567  0.00  0.00    +0.029 S 
ATOM     21  N   UNL     1       5.880  -1.291   1.399  0.00  0.00    -0.110 NA
ATOM     22  N   UNL     1       4.670  -1.671   1.203  0.00  0.00    -0.136 NA
ENDBRANCH  16  18
BRANCH  15  23
ATOM     23  C   UNL     1       0.527  -2.935   0.833  0.00  0.00    +0.078 C 
ATOM     24  C   UNL     1      -0.042  -3.754   1.993  0.00  0.00    +0.024 C 
ATOM     25  C   UNL     1       0.261  -4.431   0.655  0.00  0.00    +0.024 C 
ENDBRANCH  15  23
ENDBRANCH   1  15
TORSDOF 6
