REMARK  Name = ZINC34959314
REMARK  5 active torsions:
REMARK  status: ('A' for Active; 'I' for Inactive)
REMARK    1  A    between atoms: C_1  and  S_2
REMARK    2  A    between atoms: S_2  and  N_5
REMARK    3  A    between atoms: N_5  and  C_6
REMARK    4  A    between atoms: C_9  and  S_13
REMARK    5  A    between atoms: S_13  and  N_16
REMARK                            x       y       z     vdW  Elec       q    Type
REMARK                         _______ _______ _______ _____ _____    ______ ____
ROOT
ATOM      1  C   UNL     1       0.992  -1.757  -1.719  0.00  0.00    +0.109 A 
ATOM      2  C   UNL     1       0.519  -2.753  -0.875  0.00  0.00    +0.031 A 
ATOM      3  C   UNL     1       0.716  -4.082  -1.199  0.00  0.00    +0.030 A 
ATOM      4  C   UNL     1       1.383  -4.421  -2.361  0.00  0.00    +0.108 A 
ATOM      5  C   UNL     1       1.856  -3.433  -3.205  0.00  0.00    +0.068 A 
ATOM      6  C   UNL     1       1.658  -2.101  -2.890  0.00  0.00    +0.150 A 
ATOM      7  F   UNL     1       2.115  -1.135  -3.717  0.00  0.00    -0.203 F 
ENDROOT
BRANCH   4   8
ATOM      8  S   UNL     1       1.631  -6.117  -2.769  0.00  0.00    +0.056 S 
ATOM      9  O   UNL     1       2.758  -6.167  -3.632  0.00  0.00    -0.153 OA
ATOM     10  O   UNL     1       1.574  -6.841  -1.548  0.00  0.00    -0.153 OA
BRANCH   8  11
ATOM     11  N   UNL     1       0.326  -6.601  -3.667  0.00  0.00    -0.204 NA
ATOM     12  H   UNL     1       0.428  -7.296  -4.335  0.00  0.00    +0.144 HD
ATOM     13  H   UNL     1      -0.541  -6.189  -3.524  0.00  0.00    +0.144 HD
ENDBRANCH   8  11
ENDBRANCH   4   8
BRANCH   1  14
ATOM     14  N   UNL     1       0.795  -0.411  -1.394  0.00  0.00    -0.100 NA
BRANCH  14  16
ATOM     15  C   UNL     1      -0.022   1.810   0.012  0.00  0.00    +0.220 C 
ATOM     16  S   UNL     1       0.002  -0.004   0.002  0.00  0.00    +0.060 S 
ATOM     17  O   UNL     1       0.835  -0.488   1.046  0.00  0.00    -0.154 OA
ATOM     18  O   UNL     1      -1.315  -0.510  -0.168  0.00  0.00    -0.154 OA
ENDBRANCH  14  16
ENDBRANCH   1  14
TORSDOF 4
