REMARK  Name = ZINC35193237
REMARK  14 active torsions:
REMARK  status: ('A' for Active; 'I' for Inactive)
REMARK    1  A    between atoms: C_1  and  C_2
REMARK    2  A    between atoms: C_2  and  C_3
REMARK    3  A    between atoms: C_3  and  C_4
REMARK    4  A    between atoms: C_4  and  C_5
REMARK    5  A    between atoms: C_5  and  C_6
REMARK    6  A    between atoms: C_9  and  C_13
REMARK    7  A    between atoms: N_15  and  C_16
REMARK    8  A    between atoms: N_19  and  C_22
REMARK    9  A    between atoms: C_22  and  C_23
REMARK   10  A    between atoms: C_29  and  C_31
REMARK   11  A    between atoms: C_33  and  O_39
REMARK   12  A    between atoms: C_35  and  O_37
REMARK   13  A    between atoms: O_37  and  C_38
REMARK   14  A    between atoms: O_39  and  C_40
REMARK                            x       y       z     vdW  Elec       q    Type
REMARK                         _______ _______ _______ _____ _____    ______ ____
ROOT
ATOM      1  C   UNL     1       1.320  -4.557   2.473  0.00  0.00    +0.135 C 
ATOM      2  N   UNL     1       2.169  -4.853   3.642  0.00  0.00    -0.273 N 
ATOM      3  C   UNL     1       3.391  -5.606   3.373  0.00  0.00    +0.173 C 
ATOM      4  C   UNL     1       3.189  -6.579   2.174  0.00  0.00    +0.103 C 
ATOM      5  S   UNL     1       2.141  -5.484   1.108  0.00  0.00    -0.136 S 
ATOM      6  C   UNL     1       1.837  -4.452   4.885  0.00  0.00    +0.248 C 
ATOM      7  O   UNL     1       2.631  -4.577   5.797  0.00  0.00    -0.270 OA
ENDROOT
BRANCH   6   8
ATOM      8  C   UNL     1       0.507  -3.859   5.140  0.00  0.00    +0.044 A 
ATOM      9  C   UNL     1      -0.337  -3.548   4.073  0.00  0.00    +0.059 A 
ATOM     10  C   UNL     1      -1.582  -2.993   4.316  0.00  0.00    +0.124 A 
ATOM     11  C   UNL     1      -1.991  -2.746   5.618  0.00  0.00    +0.091 A 
ATOM     12  C   UNL     1      -1.156  -3.053   6.682  0.00  0.00    +0.124 A 
ATOM     13  C   UNL     1       0.089  -3.614   6.448  0.00  0.00    +0.059 A 
BRANCH  12  14
ATOM     14  O   UNL     1      -1.561  -2.809   7.956  0.00  0.00    -0.495 OA
ATOM     15  C   UNL     1      -2.859  -2.235   8.125  0.00  0.00    +0.277 C 
ENDBRANCH  12  14
BRANCH  10  16
ATOM     16  O   UNL     1      -2.405  -2.690   3.277  0.00  0.00    -0.495 OA
ATOM     17  C   UNL     1      -3.675  -2.120   3.600  0.00  0.00    +0.277 C 
ENDBRANCH  10  16
ENDBRANCH   6   8
BRANCH   3  18
ATOM     18  C   UNL     1       4.505  -4.645   3.048  0.00  0.00    +0.235 C 
ATOM     19  O   UNL     1       4.293  -3.451   3.043  0.00  0.00    -0.274 OA
ATOM     20  N   UNL     1       5.737  -5.113   2.763  0.00  0.00    -0.311 N 
ATOM     21  H   UNL     1       5.906  -6.068   2.767  0.00  0.00    +0.149 HD
BRANCH  20  22
ATOM     22  C   UNL     1       6.820  -4.178   2.447  0.00  0.00    +0.069 C 
ATOM     23  C   UNL     1       6.777  -3.830   0.956  0.00  0.00    +0.003 C 
ATOM     24  C   UNL     1       7.957  -2.917   0.617  0.00  0.00    -0.077 C 
ATOM     25  N   UNL     1       9.217  -3.606   0.924  0.00  0.00    +0.382 N 
ATOM     26  C   UNL     1       9.297  -3.878   2.364  0.00  0.00    -0.077 C 
ATOM     27  C   UNL     1       8.168  -4.828   2.771  0.00  0.00    +0.003 C 
ATOM     28  H   UNL     1       9.256  -4.476   0.415  0.00  0.00    -0.081 HD
BRANCH  25  29
ATOM     29  C   UNL     1      10.347  -2.757   0.525  0.00  0.00    -0.043 C 
BRANCH  29  30
ATOM     30  C   UNL     1      11.637  -3.510   0.726  0.00  0.00    -0.064 A 
ATOM     31  C   UNL     1      12.300  -3.434   1.936  0.00  0.00    +0.002 A 
ATOM     32  C   UNL     1      13.483  -4.125   2.121  0.00  0.00    +0.000 A 
ATOM     33  C   UNL     1      14.003  -4.892   1.095  0.00  0.00    +0.000 A 
ATOM     34  C   UNL     1      13.339  -4.969  -0.115  0.00  0.00    +0.000 A 
ATOM     35  C   UNL     1      12.154  -4.281  -0.298  0.00  0.00    +0.002 A 
ENDBRANCH  29  30
ENDBRANCH  25  29
ENDBRANCH  20  22
ENDBRANCH   3  18
BRANCH   1  36
ATOM     36  C   UNL     1       1.312  -3.056   2.177  0.00  0.00    +0.033 C 
BRANCH  36  37
ATOM     37  C   UNL     1       0.418  -2.779   0.967  0.00  0.00    +0.003 C 
BRANCH  37  38
ATOM     38  C   UNL     1       0.409  -1.278   0.671  0.00  0.00    -0.000 C 
BRANCH  38  40
ATOM     39  C   UNL     1      -0.493   0.500  -0.835  0.00  0.00    +0.004 C 
ATOM     40  C   UNL     1      -0.484  -1.001  -0.539  0.00  0.00    -0.003 C 
ENDBRANCH  38  40
ENDBRANCH  37  38
ENDBRANCH  36  37
ENDBRANCH   1  36
TORSDOF 11
