REMARK  Name = ZINC44872347
REMARK  8 active torsions:
REMARK  status: ('A' for Active; 'I' for Inactive)
REMARK    1  A    between atoms: C_3  and  C_30
REMARK    2  A    between atoms: C_6  and  C_7
REMARK    3  A    between atoms: C_7  and  N_8
REMARK    4  A    between atoms: C_9  and  C_11
REMARK    5  A    between atoms: N_16  and  S_18
REMARK    6  A    between atoms: S_18  and  C_21
REMARK    7  A    between atoms: C_21  and  C_22
REMARK    8  A    between atoms: C_30  and  N_31
REMARK                            x       y       z     vdW  Elec       q    Type
REMARK                         _______ _______ _______ _____ _____    ______ ____
ROOT
ATOM      1  N   UNL     1      -1.726  -1.018  -1.368  0.00  0.00    -0.311 N 
ATOM      2  C   UNL     1      -2.867  -1.694  -1.606  0.00  0.00    +0.218 C 
ATOM      3  O   UNL     1      -3.535  -2.103  -0.680  0.00  0.00    -0.275 OA
ATOM      4  H   UNL     1      -1.192  -0.691  -2.108  0.00  0.00    +0.149 HD
ENDROOT
BRANCH   2   5
ATOM      5  C   UNL     1      -3.312  -1.944  -3.024  0.00  0.00    +0.091 C 
ATOM      6  C   UNL     1      -3.522  -0.606  -3.736  0.00  0.00    +0.015 C 
ATOM      7  C   UNL     1      -3.943  -0.858  -5.186  0.00  0.00    +0.018 C 
ATOM      8  C   UNL     1      -5.268  -1.628  -5.202  0.00  0.00    +0.109 C 
ATOM      9  N   UNL     1      -5.116  -2.847  -4.397  0.00  0.00    -0.180 NA
ATOM     10  C   UNL     1      -4.629  -2.727  -3.016  0.00  0.00    +0.121 C 
BRANCH   9  11
ATOM     11  S   UNL     1      -5.487  -4.330  -5.034  0.00  0.00    +0.036 S 
ATOM     12  O   UNL     1      -5.824  -5.133  -3.911  0.00  0.00    -0.158 OA
ATOM     13  O   UNL     1      -6.447  -4.061  -6.046  0.00  0.00    -0.158 OA
BRANCH  11  14
ATOM     14  C   UNL     1      -3.941  -4.917  -5.780  0.00  0.00    +0.220 C 
BRANCH  14  15
ATOM     15  C   UNL     1      -4.164  -6.274  -6.396  0.00  0.00    -0.024 A 
ATOM     16  C   UNL     1      -3.969  -7.416  -5.642  0.00  0.00    +0.007 A 
ATOM     17  C   UNL     1      -4.173  -8.661  -6.206  0.00  0.00    +0.022 A 
ATOM     18  C   UNL     1      -4.573  -8.765  -7.526  0.00  0.00    +0.059 A 
ATOM     19  C   UNL     1      -4.768  -7.622  -8.282  0.00  0.00    +0.060 A 
ATOM     20  C   UNL     1      -4.569  -6.376  -7.714  0.00  0.00    +0.026 A 
ATOM     21 CL   UNL     1      -5.269  -7.750  -9.939  0.00  0.00    -0.082 Cl
ATOM     22 CL   UNL     1      -4.828 -10.329  -8.236  0.00  0.00    -0.082 Cl
ENDBRANCH  14  15
ENDBRANCH  11  14
ENDBRANCH   9  11
ENDBRANCH   2   5
BRANCH   1  23
ATOM     23  C   UNL     1      -1.293  -0.775   0.011  0.00  0.00    +0.139 C 
BRANCH  23  29
ATOM     24  C   UNL     1      -0.017   1.378   0.010  0.00  0.00    +0.005 A 
ATOM     25  C   UNL     1       1.171   2.086   0.002  0.00  0.00    +0.002 A 
ATOM     26  C   UNL     1       2.377   1.411  -0.013  0.00  0.00    -0.064 A 
ATOM     27  C   UNL     1       2.396   0.029  -0.020  0.00  0.00    +0.002 A 
ATOM     28  C   UNL     1       1.208  -0.679  -0.012  0.00  0.00    +0.005 A 
ATOM     29  C   UNL     1       0.002  -0.004   0.002  0.00  0.00    -0.030 A 
BRANCH  26  30
ATOM     30  C   UNL     1       3.672   2.182  -0.022  0.00  0.00    -0.043 C 
BRANCH  30  31
ATOM     31  N   UNL     1       4.106   2.426   1.360  0.00  0.00    +0.382 N 
ATOM     32  C   UNL     1       4.512   1.150   2.002  0.00  0.00    -0.078 C 
ATOM     33  C   UNL     1       5.433   1.612   3.159  0.00  0.00    -0.020 C 
ATOM     34  C   UNL     1       6.195   2.806   2.538  0.00  0.00    -0.020 C 
ATOM     35  C   UNL     1       5.311   3.284   1.372  0.00  0.00    -0.078 C 
ATOM     36  H   UNL     1       3.364   2.861   1.887  0.00  0.00    -0.081 HD
ENDBRANCH  30  31
ENDBRANCH  26  30
ENDBRANCH  23  29
ENDBRANCH   1  23
TORSDOF 8
