REMARK  Name = ZINC04662618
REMARK  4 active torsions:
REMARK  status: ('A' for Active; 'I' for Inactive)
REMARK    1  A    between atoms: C_6  and  C_7
REMARK    2  A    between atoms: C_9  and  C_13
REMARK    3  A    between atoms: N_15  and  N_16
REMARK    4  A    between atoms: C_17  and  C_18
REMARK                            x       y       z     vdW  Elec       q    Type
REMARK                         _______ _______ _______ _____ _____    ______ ____
ROOT
ATOM      1  C   UNL     1       5.931   3.380  -0.034  0.00  0.00    +0.281 C 
ATOM      2  O   UNL     1       5.953   2.164  -0.041  0.00  0.00    -0.267 OA
ATOM      3  N   UNL     1       4.752   4.033  -0.020  0.00  0.00    -0.202 N 
ATOM      4  H   UNL     1       4.734   5.003  -0.015  0.00  0.00    +0.178 HD
ENDROOT
BRANCH   1   7
ATOM      5  C   UNL     1       9.328   4.733  -0.058  0.00  0.00    +0.093 A 
ATOM      6  C   UNL     1       8.472   3.617  -0.050  0.00  0.00    +0.062 A 
ATOM      7  C   UNL     1       7.192   4.139  -0.042  0.00  0.00    +0.122 A 
ATOM      8  N   UNL     1       7.328   5.499  -0.036  0.00  0.00    -0.272 N 
ATOM      9  H   UNL     1       6.571   6.152  -0.025  0.00  0.00    +0.189 HD
ATOM     10  N   UNL     1       8.574   5.812  -0.045  0.00  0.00    -0.173 NA
BRANCH   5  16
ATOM     11  C   UNL     1      11.483   3.480  -0.078  0.00  0.00    +0.013 A 
ATOM     12  C   UNL     1      12.863   3.454  -0.096  0.00  0.00    +0.039 A 
ATOM     13  C   UNL     1      13.580   4.639  -0.097  0.00  0.00    +0.123 A 
ATOM     14  C   UNL     1      12.916   5.855  -0.085  0.00  0.00    +0.039 A 
ATOM     15  C   UNL     1      11.537   5.890  -0.073  0.00  0.00    +0.013 A 
ATOM     16  C   UNL     1      10.812   4.701  -0.072  0.00  0.00    +0.002 A 
ATOM     17  F   UNL     1      14.931   4.609  -0.109  0.00  0.00    -0.205 F 
ENDBRANCH   5  16
ENDBRANCH   1   7
BRANCH   3  18
ATOM     18  N   UNL     1       3.551   3.311  -0.013  0.00  0.00    -0.187 NA
ATOM     19  C   UNL     1       2.416   3.939   0.000  0.00  0.00    +0.139 C 
BRANCH  19  20
ATOM     20  C   UNL     1       1.153   3.179   0.008  0.00  0.00    +0.013 A 
ATOM     21  C   UNL     1      -0.071   3.852   0.022  0.00  0.00    +0.012 A 
ATOM     22  C   UNL     1      -1.249   3.135   0.030  0.00  0.00    +0.021 A 
ATOM     23  C   UNL     1      -1.222   1.750   0.017  0.00  0.00    +0.042 A 
ATOM     24  C   UNL     1      -0.013   1.076   0.008  0.00  0.00    +0.040 A 
ATOM     25  C   UNL     1       1.174   1.781   0.000  0.00  0.00    +0.051 A 
ATOM     26 CL   UNL     1       2.690   0.934  -0.018  0.00  0.00    -0.083 Cl
ATOM     27 CL   UNL     1      -2.710   0.856   0.019  0.00  0.00    -0.083 Cl
ENDBRANCH  19  20
ENDBRANCH   3  18
TORSDOF 4
