REMARK  Name = ZINC06884421
REMARK  5 active torsions:
REMARK  status: ('A' for Active; 'I' for Inactive)
REMARK    1  A    between atoms: C_5  and  C_7
REMARK    2  A    between atoms: N_8  and  N_9
REMARK    3  A    between atoms: C_10  and  C_12
REMARK    4  A    between atoms: C_15  and  N_18
REMARK    5  A    between atoms: C_19  and  C_21
REMARK                            x       y       z     vdW  Elec       q    Type
REMARK                         _______ _______ _______ _____ _____    ______ ____
ROOT
ATOM      1  C   UNL     1       0.217  -2.769   0.055  0.00  0.00    +0.038 A 
ATOM      2  C   UNL     1      -1.024  -2.135   0.171  0.00  0.00    +0.015 A 
ATOM      3  C   UNL     1      -1.097  -0.761   0.155  0.00  0.00    +0.024 A 
ATOM      4  C   UNL     1       0.061  -0.002   0.025  0.00  0.00    +0.033 A 
ATOM      5  C   UNL     1       1.298  -0.629  -0.096  0.00  0.00    +0.024 A 
ATOM      6  C   UNL     1       1.379  -2.003  -0.076  0.00  0.00    +0.015 A 
ENDROOT
BRANCH   1   8
ATOM      7  N   UNL     1       1.497  -4.850  -0.040  0.00  0.00    -0.203 N 
ATOM      8  C   UNL     1       0.300  -4.242   0.072  0.00  0.00    +0.263 C 
ATOM      9  O   UNL     1      -0.712  -4.906   0.186  0.00  0.00    -0.268 OA
ATOM     10  H   UNL     1       2.304  -4.320  -0.131  0.00  0.00    +0.178 HD
BRANCH   7  12
ATOM     11  C   UNL     1       2.729  -6.835  -0.131  0.00  0.00    +0.139 C 
ATOM     12  N   UNL     1       1.576  -6.249  -0.024  0.00  0.00    -0.187 NA
BRANCH  11  17
ATOM     13  C   UNL     1       4.121 -10.319  -0.214  0.00  0.00    +0.001 A 
ATOM     14  C   UNL     1       2.968 -11.073  -0.085  0.00  0.00    +0.001 A 
ATOM     15  C   UNL     1       1.737 -10.453   0.031  0.00  0.00    +0.020 A 
ATOM     16  C   UNL     1       1.651  -9.075   0.017  0.00  0.00    +0.050 A 
ATOM     17  C   UNL     1       2.812  -8.307  -0.114  0.00  0.00    +0.013 A 
ATOM     18  C   UNL     1       4.051  -8.942  -0.235  0.00  0.00    +0.011 A 
ATOM     19 CL   UNL     1       0.105  -8.298   0.161  0.00  0.00    -0.083 Cl
ENDBRANCH  11  17
ENDBRANCH   7  12
ENDBRANCH   1   8
BRANCH   4  20
ATOM     20  N   UNL     1      -0.017   1.390   0.010  0.00  0.00    -0.285 N 
ATOM     21  C   UNL     1       0.961   2.127   0.573  0.00  0.00    +0.220 C 
ATOM     22  O   UNL     1       1.949   1.583   1.020  0.00  0.00    -0.275 OA
ATOM     23  H   UNL     1      -0.773   1.829  -0.410  0.00  0.00    +0.155 HD
BRANCH  21  24
ATOM     24  C   UNL     1       0.828   3.626   0.649  0.00  0.00    +0.075 C 
ATOM     25  C   UNL     1       0.702   4.198  -0.764  0.00  0.00    +0.013 C 
ATOM     26  C   UNL     1       0.566   5.720  -0.687  0.00  0.00    +0.001 C 
ATOM     27  C   UNL     1       1.803   6.309  -0.007  0.00  0.00    +0.000 C 
ATOM     28  C   UNL     1       1.929   5.736   1.406  0.00  0.00    +0.001 C 
ATOM     29  C   UNL     1       2.065   4.214   1.329  0.00  0.00    +0.013 C 
ENDBRANCH  21  24
ENDBRANCH   4  20
TORSDOF 5
