REMARK  Name = ZINC12149701
REMARK  8 active torsions:
REMARK  status: ('A' for Active; 'I' for Inactive)
REMARK    1  A    between atoms: C_1  and  C_2
REMARK    2  A    between atoms: C_2  and  C_4
REMARK    3  A    between atoms: C_2  and  N_9
REMARK    4  A    between atoms: C_16  and  N_20
REMARK    5  A    between atoms: C_25  and  C_26
REMARK    6  A    between atoms: C_25  and  N_68
REMARK    7  A    between atoms: C_26  and  C_27
REMARK    8  A    between atoms: C_26  and  C_33
REMARK                            x       y       z     vdW  Elec       q    Type
REMARK                         _______ _______ _______ _____ _____    ______ ____
ROOT
ATOM      1  N   UNL     1       1.252   0.870  -0.970  0.00  0.00    -0.333 N 
ATOM      2  C   UNL     1       0.708   1.403  -2.227  0.00  0.00    +0.086 C 
ATOM      3  C   UNL     1       0.146   2.806  -1.981  0.00  0.00    -0.060 C 
ATOM      4  C   UNL     1       1.757   3.140  -0.206  0.00  0.00    -0.060 C 
ATOM      5  C   UNL     1       2.319   1.738  -0.451  0.00  0.00    +0.086 C 
ATOM      6  N   UNL     1       1.233   3.674  -1.481  0.00  0.00    +0.382 N 
ATOM      7  H   UNL     1       1.992   3.691  -2.173  0.00  0.00    -0.082 HD
ENDROOT
BRANCH   1  15
ATOM      8  N   UNL     1      -0.154  -2.861   0.878  0.00  0.00    -0.225 N 
ATOM      9  C   UNL     1       0.731  -3.648   0.239  0.00  0.00    +0.254 C 
ATOM     10  O   UNL     1       0.827  -4.853   0.361  0.00  0.00    -0.270 OA
ATOM     11  C   UNL     1       1.576  -2.797  -0.625  0.00  0.00    +0.051 A 
ATOM     12  C   UNL     1       2.633  -3.040  -1.484  0.00  0.00    +0.014 A 
ATOM     13  C   UNL     1       3.227  -1.987  -2.167  0.00  0.00    +0.003 A 
ATOM     14  C   UNL     1       2.773  -0.697  -2.000  0.00  0.00    +0.024 A 
ATOM     15  C   UNL     1       1.707  -0.430  -1.137  0.00  0.00    +0.043 A 
ATOM     16  C   UNL     1       1.107  -1.478  -0.442  0.00  0.00    +0.070 A 
ATOM     17  C   UNL     1       0.000  -1.573   0.524  0.00  0.00    +0.256 C 
ATOM     18  O   UNL     1      -0.664  -0.641   0.934  0.00  0.00    -0.269 OA
BRANCH   8  20
ATOM     19  C   UNL     1      -2.078  -4.350   1.127  0.00  0.00    +0.036 C 
ATOM     20  C   UNL     1      -1.160  -3.346   1.826  0.00  0.00    +0.137 C 
BRANCH  20  21
ATOM     21  C   UNL     1      -0.474  -4.017   2.988  0.00  0.00    +0.099 A 
ATOM     22  N   UNL     1      -0.715  -3.893   4.273  0.00  0.00    -0.250 NA
ATOM     23  C   UNL     1      -0.018  -4.556   5.170  0.00  0.00    +0.119 A 
ATOM     24  C   UNL     1       0.969  -5.383   4.739  0.00  0.00    +0.066 A 
ATOM     25  S   UNL     1       0.834  -5.159   2.971  0.00  0.00    -0.079 S 
ENDBRANCH  20  21
ENDBRANCH   8  20
ENDBRANCH   1  15
BRANCH   6  26
ATOM     26  C   UNL     1       0.731   5.051  -1.285  0.00  0.00    -0.066 C 
BRANCH  26  27
ATOM     27  C   UNL     1       1.919   5.975  -1.014  0.00  0.00    +0.032 C 
BRANCH  27  28
ATOM     28  C   UNL     1       2.846   5.964  -2.202  0.00  0.00    -0.042 A 
ATOM     29  C   UNL     1       4.195   5.718  -2.025  0.00  0.00    +0.004 A 
ATOM     30  C   UNL     1       5.044   5.702  -3.115  0.00  0.00    +0.000 A 
ATOM     31  C   UNL     1       4.546   5.944  -4.382  0.00  0.00    +0.000 A 
ATOM     32  C   UNL     1       3.199   6.197  -4.559  0.00  0.00    +0.000 A 
ATOM     33  C   UNL     1       2.348   6.206  -3.469  0.00  0.00    +0.004 A 
ENDBRANCH  27  28
BRANCH  27  34
ATOM     34  C   UNL     1       1.421   7.378  -0.779  0.00  0.00    -0.042 A 
ATOM     35  C   UNL     1       0.561   7.967  -1.686  0.00  0.00    +0.004 A 
ATOM     36  C   UNL     1       0.100   9.252  -1.468  0.00  0.00    +0.000 A 
ATOM     37  C   UNL     1       0.507   9.951  -0.347  0.00  0.00    +0.000 A 
ATOM     38  C   UNL     1       1.371   9.364   0.557  0.00  0.00    +0.000 A 
ATOM     39  C   UNL     1       1.828   8.078   0.342  0.00  0.00    +0.004 A 
ENDBRANCH  27  34
ENDBRANCH  26  27
ENDBRANCH   6  26
TORSDOF 7
