REMARK  Name = ZINC40342148
REMARK  5 active torsions:
REMARK  status: ('A' for Active; 'I' for Inactive)
REMARK    1  A    between atoms: C_6  and  C_7
REMARK    2  A    between atoms: C_7  and  N_8
REMARK    3  A    between atoms: C_9  and  C_26
REMARK    4  A    between atoms: C_12  and  C_19
REMARK    5  A    between atoms: C_29  and  O_32
REMARK                            x       y       z     vdW  Elec       q    Type
REMARK                         _______ _______ _______ _____ _____    ______ ____
ROOT
ATOM      1  N   UNL     1      -1.726  -1.017  -1.368  0.00  0.00    -0.281 N 
ATOM      2  C   UNL     1      -2.584  -0.134  -2.168  0.00  0.00    +0.142 C 
ATOM      3  C   UNL     1      -2.744  -0.807  -3.503  0.00  0.00    +0.035 A 
ATOM      4  C   UNL     1      -3.304  -0.766  -4.785  0.00  0.00    +0.099 A 
ATOM      5  N   UNL     1      -2.922  -1.858  -5.417  0.00  0.00    -0.173 NA
ATOM      6  N   UNL     1      -2.176  -2.583  -4.663  0.00  0.00    -0.272 N 
ATOM      7  H   UNL     1      -1.780  -3.431  -4.920  0.00  0.00    +0.189 HD
ATOM      8  C   UNL     1      -2.022  -1.983  -3.445  0.00  0.00    +0.126 A 
ATOM      9  C   UNL     1      -1.401  -2.084  -2.120  0.00  0.00    +0.266 C 
ATOM     10  O   UNL     1      -0.695  -3.004  -1.752  0.00  0.00    -0.268 OA
ENDROOT
BRANCH   4  11
ATOM     11  C   UNL     1      -4.171   0.308  -5.332  0.00  0.00    +0.003 A 
ATOM     12  C   UNL     1      -5.066   0.975  -4.499  0.00  0.00    +0.011 A 
ATOM     13  C   UNL     1      -5.870   1.974  -5.012  0.00  0.00    +0.020 A 
ATOM     14  C   UNL     1      -5.786   2.312  -6.351  0.00  0.00    +0.041 A 
ATOM     15  C   UNL     1      -4.898   1.652  -7.183  0.00  0.00    +0.020 A 
ATOM     16  C   UNL     1      -4.087   0.656  -6.678  0.00  0.00    +0.011 A 
ATOM     17 CL   UNL     1      -6.800   3.568  -6.991  0.00  0.00    -0.084 Cl
ENDBRANCH   4  11
BRANCH   2  18
ATOM     18  C   UNL     1      -1.928   1.212  -2.338  0.00  0.00    -0.022 A 
ATOM     19  C   UNL     1      -0.563   1.293  -2.541  0.00  0.00    +0.009 A 
ATOM     20  C   UNL     1       0.041   2.526  -2.697  0.00  0.00    +0.046 A 
ATOM     21  C   UNL     1      -0.724   3.682  -2.651  0.00  0.00    +0.117 A 
ATOM     22  C   UNL     1      -2.093   3.598  -2.448  0.00  0.00    +0.046 A 
ATOM     23  C   UNL     1      -2.693   2.363  -2.298  0.00  0.00    +0.009 A 
BRANCH  21  24
ATOM     24  O   UNL     1      -0.132   4.896  -2.804  0.00  0.00    -0.507 OA
ATOM     25  H   UNL     1      -0.086   5.199  -3.721  0.00  0.00    +0.292 HD
ENDBRANCH  21  24
ENDBRANCH   2  18
BRANCH   1  26
ATOM     26  C   UNL     1      -1.293  -0.775   0.011  0.00  0.00    +0.144 C 
BRANCH  26  32
ATOM     27  C   UNL     1      -0.017   1.378   0.010  0.00  0.00    +0.006 A 
ATOM     28  C   UNL     1       1.171   2.086   0.002  0.00  0.00    +0.020 A 
ATOM     29  C   UNL     1       2.378   1.410  -0.013  0.00  0.00    +0.041 A 
ATOM     30  C   UNL     1       2.396   0.027  -0.021  0.00  0.00    +0.020 A 
ATOM     31  C   UNL     1       1.208  -0.679  -0.013  0.00  0.00    +0.006 A 
ATOM     32  C   UNL     1       0.002  -0.004   0.002  0.00  0.00    -0.030 A 
ATOM     33 CL   UNL     1       3.870   2.298  -0.023  0.00  0.00    -0.084 Cl
ENDBRANCH  26  32
ENDBRANCH   1  26
TORSDOF 5
