REMARK  Name = ZINC43737286
REMARK  8 active torsions:
REMARK  status: ('A' for Active; 'I' for Inactive)
REMARK    1  A    between atoms: C_1  and  C_2
REMARK    2  A    between atoms: C_2  and  C_8
REMARK    3  A    between atoms: N_3  and  N_4
REMARK    4  A    between atoms: N_4  and  C_5
REMARK    5  A    between atoms: C_5  and  N_7
REMARK    6  A    between atoms: C_14  and  C_33
REMARK    7  A    between atoms: C_25  and  C_32
REMARK    8  A    between atoms: C_28  and  O_31
REMARK                            x       y       z     vdW  Elec       q    Type
REMARK                         _______ _______ _______ _____ _____    ______ ____
ROOT
ATOM      1  C   UNL     1      -0.133  -0.679  -1.339  0.00  0.00    +0.041 C 
ATOM      2  C   UNL     1       1.195  -0.554  -2.128  0.00  0.00    +0.010 C 
ATOM      3  C   UNL     1       1.752  -1.995  -2.279  0.00  0.00    +0.005 C 
ATOM      4  C   UNL     1       1.105  -2.737  -1.105  0.00  0.00    -0.001 C 
ATOM      5  C   UNL     1      -0.345  -2.176  -1.138  0.00  0.00    -0.021 C 
ATOM      6  C   UNL     1      -1.027  -2.596   0.149  0.00  0.00    +0.008 C 
ATOM      7  C   UNL     1      -1.121  -4.131   0.137  0.00  0.00    +0.005 C 
ATOM      8  C   UNL     1       0.256  -4.771  -0.007  0.00  0.00    -0.001 C 
ATOM      9  C   UNL     1       1.017  -4.246  -1.242  0.00  0.00    -0.004 C 
ATOM     10  C   UNL     1       2.418  -4.858  -1.289  0.00  0.00    +0.004 C 
ATOM     11  C   UNL     1       2.306  -6.382  -1.373  0.00  0.00    +0.004 C 
ATOM     12  C   UNL     1       1.562  -6.909  -0.145  0.00  0.00    -0.002 C 
ATOM     13  C   UNL     1       0.121  -6.290  -0.106  0.00  0.00    -0.026 C 
ATOM     14  C   UNL     1      -0.620  -6.816   1.125  0.00  0.00    +0.010 C 
ATOM     15  C   UNL     1      -0.752  -8.338   1.032  0.00  0.00    +0.032 C 
ATOM     16  C   UNL     1       0.642  -8.967   0.969  0.00  0.00    +0.115 C 
ATOM     17  C   UNL     1       1.450  -8.432  -0.230  0.00  0.00    +0.035 C 
ATOM     18  C   UNL     1      -0.663  -6.652  -1.369  0.00  0.00    +0.012 C 
ATOM     19  C   UNL     1      -1.098  -2.757  -2.336  0.00  0.00    +0.012 C 
ENDROOT
BRANCH   1  21
ATOM     20  C   UNL     1       1.168  -0.261   0.885  0.00  0.00    +0.062 C 
ATOM     21  C   UNL     1      -0.015   0.015  -0.007  0.00  0.00    +0.037 C 
ATOM     22  N   UNL     1      -0.920   0.840   0.367  0.00  0.00    -0.190 NA
BRANCH  22  23
ATOM     23  N   UNL     1      -0.877   1.390   1.655  0.00  0.00    -0.219 N 
ATOM     24  H   UNL     1      -0.126   1.202   2.239  0.00  0.00    +0.176 HD
BRANCH  23  25
ATOM     25  C   UNL     1      -1.881   2.182   2.083  0.00  0.00    +0.147 C 
ATOM     26  S   UNL     1      -1.894   2.749   3.699  0.00  0.00    -0.017 S 
BRANCH  25  27
ATOM     27  N   UNL     1      -2.874   2.527   1.240  0.00  0.00    -0.339 N 
ATOM     28  H   UNL     1      -2.906   2.148   0.348  0.00  0.00    +0.144 HD
ATOM     29  H   UNL     1      -3.556   3.154   1.525  0.00  0.00    +0.144 HD
ENDBRANCH  25  27
ENDBRANCH  23  25
ENDBRANCH  22  23
ENDBRANCH   1  21
BRANCH  16  30
ATOM     30  O   UNL     1       1.374  -8.623   2.146  0.00  0.00    -0.392 OA
ATOM     31  H   UNL     1       0.962  -8.924   2.968  0.00  0.00    +0.210 HD
ENDBRANCH  16  30
TORSDOF 5
