REMARK  Name = ZINC66481509
REMARK  9 active torsions:
REMARK  status: ('A' for Active; 'I' for Inactive)
REMARK    1  A    between atoms: C_1  and  C_2
REMARK    2  A    between atoms: N_5  and  C_11
REMARK    3  A    between atoms: C_7  and  C_10
REMARK    4  A    between atoms: C_11  and  C_12
REMARK    5  A    between atoms: C_12  and  C_14
REMARK    6  A    between atoms: C_12  and  O_26
REMARK    7  A    between atoms: C_14  and  S_15
REMARK    8  A    between atoms: S_15  and  C_16
REMARK    9  A    between atoms: C_19  and  C_21
REMARK                            x       y       z     vdW  Elec       q    Type
REMARK                         _______ _______ _______ _____ _____    ______ ____
ROOT
ATOM      1  C   UNL     1      -2.695  -4.075  -0.135  0.00  0.00    +0.139 C 
ENDROOT
BRANCH   1   2
ATOM      2  O   UNL     1      -2.018  -4.380  -1.355  0.00  0.00    -0.390 OA
ATOM      3  H   UNL     1      -2.447  -4.022  -2.144  0.00  0.00    +0.210 HD
ENDBRANCH   1   2
BRANCH   1   4
ATOM      4  C   UNL     1      -2.768  -2.557   0.042  0.00  0.00    +0.116 C 
BRANCH   4   8
ATOM      5  C   UNL     1      -0.019   1.526   0.010  0.00  0.00    +0.039 C 
ATOM      6  C   UNL     1       0.002  -0.004   0.002  0.00  0.00    +0.130 C 
ATOM      7  C   UNL     1      -1.434  -0.535   0.015  0.00  0.00    +0.115 C 
ATOM      8  N   UNL     1      -1.407  -2.003   0.085  0.00  0.00    -0.295 NA
ATOM      9  C   UNL     1      -0.692  -2.455   1.287  0.00  0.00    +0.115 C 
ATOM     10  C   UNL     1       0.736  -1.905   1.261  0.00  0.00    +0.130 C 
ATOM     11  O   UNL     1       0.692  -0.479   1.161  0.00  0.00    -0.371 OA
ATOM     12  C   UNL     1       1.461  -2.305   2.548  0.00  0.00    +0.039 C 
ENDBRANCH   4   8
ENDBRANCH   1   4
BRANCH   1  13
ATOM     13  C   UNL     1      -4.111  -4.651  -0.179  0.00  0.00    +0.111 C 
BRANCH  13  14
ATOM     14  S   UNL     1      -4.025  -6.462  -0.239  0.00  0.00    -0.063 S 
BRANCH  14  15
ATOM     15  C   UNL     1      -5.713  -6.968  -0.286  0.00  0.00    +0.278 A 
ATOM     16  N   UNL     1      -6.760  -6.177  -0.283  0.00  0.00    -0.101 NA
ATOM     17  N   UNL     1      -7.833  -6.886  -0.324  0.00  0.00    -0.106 NA
ATOM     18  C   UNL     1      -7.513  -8.159  -0.355  0.00  0.00    +0.256 A 
ATOM     19  O   UNL     1      -6.163  -8.237  -0.338  0.00  0.00    -0.410 OA
BRANCH  18  20
ATOM     20  C   UNL     1      -8.450  -9.292  -0.405  0.00  0.00    +0.076 A 
ATOM     21  C   UNL     1      -9.832  -9.279  -0.437  0.00  0.00    +0.021 A 
ATOM     22  C   UNL     1     -10.497 -10.483  -0.483  0.00  0.00    +0.008 A 
ATOM     23  C   UNL     1      -9.781 -11.637  -0.496  0.00  0.00    +0.046 A 
ATOM     24  S   UNL     1      -8.099 -11.042  -0.450  0.00  0.00    -0.092 S 
ENDBRANCH  18  20
ENDBRANCH  14  15
ENDBRANCH  13  14
ENDBRANCH   1  13
TORSDOF 7
