REMARK  Name = ZINC66726646
REMARK  11 active torsions:
REMARK  status: ('A' for Active; 'I' for Inactive)
REMARK    1  A    between atoms: C_1  and  C_2
REMARK    2  A    between atoms: C_2  and  N_3
REMARK    3  A    between atoms: N_3  and  C_4
REMARK    4  A    between atoms: C_4  and  C_5
REMARK    5  A    between atoms: C_8  and  C_11
REMARK    6  A    between atoms: C_11  and  N_12
REMARK    7  A    between atoms: N_12  and  C_13
REMARK    8  A    between atoms: N_12  and  C_14
REMARK    9  A    between atoms: C_15  and  C_17
REMARK   10  A    between atoms: C_20  and  C_23
REMARK   11  A    between atoms: C_23  and  N_24
REMARK                            x       y       z     vdW  Elec       q    Type
REMARK                         _______ _______ _______ _____ _____    ______ ____
ROOT
ATOM      1  N   UNL     1      -1.288  -0.719   0.164  0.00  0.00    -0.293 N 
ATOM      2  C   UNL     1      -1.918  -0.655   1.354  0.00  0.00    +0.247 C 
ATOM      3  O   UNL     1      -3.088  -0.974   1.440  0.00  0.00    -0.270 OA
ENDROOT
BRANCH   2   4
ATOM      4  C   UNL     1      -1.186  -0.197   2.554  0.00  0.00    +0.037 A 
ATOM      5  C   UNL     1      -0.230   0.815   2.448  0.00  0.00    +0.013 A 
ATOM      6  C   UNL     1       0.449   1.238   3.572  0.00  0.00    +0.006 A 
ATOM      7  C   UNL     1       0.184   0.662   4.802  0.00  0.00    -0.030 A 
ATOM      8  C   UNL     1      -0.762  -0.341   4.914  0.00  0.00    +0.006 A 
ATOM      9  C   UNL     1      -1.453  -0.769   3.799  0.00  0.00    +0.013 A 
BRANCH   7  10
ATOM     10  C   UNL     1       0.930   1.129   6.026  0.00  0.00    +0.141 C 
BRANCH  10  11
ATOM     11  N   UNL     1       0.195   2.229   6.655  0.00  0.00    -0.295 N 
ATOM     12  C   UNL     1       0.677   2.809   7.772  0.00  0.00    +0.297 C 
ATOM     13  O   UNL     1       1.722   2.419   8.258  0.00  0.00    -0.253 OA
ATOM     14  N   UNL     1       0.001   3.821   8.352  0.00  0.00    -0.313 N 
ATOM     15  H   UNL     1      -0.638   2.540   6.268  0.00  0.00    +0.151 HD
ATOM     16  H   UNL     1      -0.832   4.131   7.965  0.00  0.00    +0.146 HD
ATOM     17  H   UNL     1       0.348   4.238   9.156  0.00  0.00    +0.146 HD
ENDBRANCH  10  11
ENDBRANCH   7  10
ENDBRANCH   2   4
BRANCH   1  19
ATOM     18  C   UNL     1       0.343   0.977  -0.504  0.00  0.00    +0.024 C 
ATOM     19  C   UNL     1       0.145  -0.425   0.077  0.00  0.00    +0.105 C 
ENDBRANCH   1  19
BRANCH   1  20
ATOM     20  C   UNL     1      -2.036  -1.082  -1.042  0.00  0.00    +0.143 C 
BRANCH  20  21
ATOM     21  C   UNL     1      -1.997  -2.578  -1.225  0.00  0.00    -0.030 A 
ATOM     22  C   UNL     1      -0.977  -3.158  -1.956  0.00  0.00    +0.005 A 
ATOM     23  C   UNL     1      -0.942  -4.530  -2.124  0.00  0.00    +0.002 A 
ATOM     24  C   UNL     1      -1.926  -5.321  -1.562  0.00  0.00    -0.064 A 
ATOM     25  C   UNL     1      -2.945  -4.740  -0.830  0.00  0.00    +0.002 A 
ATOM     26  C   UNL     1      -2.978  -3.369  -0.658  0.00  0.00    +0.005 A 
BRANCH  24  27
ATOM     27  C   UNL     1      -1.888  -6.816  -1.746  0.00  0.00    -0.044 C 
BRANCH  27  28
ATOM     28  N   UNL     1      -1.117  -7.425  -0.653  0.00  0.00    +0.379 N 
ATOM     29  C   UNL     1      -1.818  -7.208   0.620  0.00  0.00    -0.096 C 
ATOM     30  C   UNL     1      -0.978  -8.867  -0.896  0.00  0.00    -0.096 C 
ATOM     31  H   UNL     1      -0.203  -7.001  -0.610  0.00  0.00    -0.082 HD
ENDBRANCH  27  28
ENDBRANCH  24  27
ENDBRANCH  20  21
ENDBRANCH   1  20
TORSDOF 8
