REMARK  Name = ZINC39658006
REMARK  5 active torsions:
REMARK  status: ('A' for Active; 'I' for Inactive)
REMARK    1  A    between atoms: C_1  and  C_2
REMARK    2  A    between atoms: C_2  and  C_8
REMARK    3  A    between atoms: C_12  and  C_21
REMARK    4  A    between atoms: N_23  and  C_24
REMARK    5  A    between atoms: C_27  and  C_30
REMARK                            x       y       z     vdW  Elec       q    Type
REMARK                         _______ _______ _______ _____ _____    ______ ____
ROOT
ATOM      1  C   UNL     1      -1.507  -0.428  -0.027  0.00  0.00    +0.222 C 
ATOM      2  O   UNL     1      -1.990  -1.082   0.873  0.00  0.00    -0.275 OA
ATOM      3  N   UNL     1      -2.256  -0.100  -1.099  0.00  0.00    -0.300 N 
ATOM      4  C   UNL     1      -1.819   0.594  -2.334  0.00  0.00    +0.121 C 
ATOM      5  C   UNL     1      -2.579  -0.123  -3.473  0.00  0.00    +0.100 C 
ATOM      6  C   UNL     1      -3.813  -0.739  -2.795  0.00  0.00    -0.004 C 
ATOM      7  C   UNL     1      -3.700  -0.357  -1.312  0.00  0.00    +0.115 C 
ATOM      8  C   UNL     1      -3.796  -2.258  -2.945  0.00  0.00    -0.010 C 
ATOM      9  C   UNL     1      -5.061  -2.843  -2.312  0.00  0.00    -0.082 C 
ATOM     10  N   UNL     1      -6.246  -2.280  -2.971  0.00  0.00    +0.379 N 
ATOM     11  C   UNL     1      -6.304  -0.831  -2.744  0.00  0.00    -0.082 C 
ATOM     12  C   UNL     1      -5.091  -0.160  -3.394  0.00  0.00    -0.010 C 
ATOM     13  H   UNL     1      -6.195  -2.461  -3.963  0.00  0.00    -0.086 HD
ATOM     14  H   UNL     1      -7.076  -2.712  -2.595  0.00  0.00    -0.086 HD
ENDROOT
BRANCH   1  16
ATOM     15  C   UNL     1       0.750  -0.708  -1.016  0.00  0.00    +0.021 C 
ATOM     16  C   UNL     1      -0.070   0.018   0.053  0.00  0.00    +0.044 C 
ATOM     17  C   UNL     1       0.491  -0.312   1.438  0.00  0.00    +0.016 C 
ATOM     18  C   UNL     1      -0.329   0.415   2.506  0.00  0.00    +0.001 C 
ATOM     19  C   UNL     1      -0.250   1.924   2.270  0.00  0.00    +0.000 C 
ATOM     20  C   UNL     1      -0.810   2.255   0.885  0.00  0.00    +0.001 C 
ATOM     21  C   UNL     1       0.010   1.528  -0.183  0.00  0.00    +0.016 C 
ENDBRANCH   1  16
BRANCH   5  22
ATOM     22  C   UNL     1      -2.997   0.868  -4.529  0.00  0.00    +0.218 C 
ATOM     23  O   UNL     1      -3.293   2.001  -4.214  0.00  0.00    -0.275 OA
ATOM     24  N   UNL     1      -3.042   0.495  -5.823  0.00  0.00    -0.312 N 
ATOM     25  H   UNL     1      -2.806  -0.411  -6.075  0.00  0.00    +0.149 HD
BRANCH  24  26
ATOM     26  C   UNL     1      -3.450   1.458  -6.849  0.00  0.00    +0.073 C 
ATOM     27  C   UNL     1      -2.237   2.284  -7.282  0.00  0.00    +0.023 C 
ATOM     28  C   UNL     1      -2.662   3.290  -8.354  0.00  0.00    +0.016 C 
ATOM     29  C   UNL     1      -3.226   2.540  -9.563  0.00  0.00    +0.102 C 
ATOM     30  C   UNL     1      -4.438   1.713  -9.130  0.00  0.00    +0.016 C 
ATOM     31  C   UNL     1      -4.013   0.707  -8.058  0.00  0.00    +0.023 C 
BRANCH  29  32
ATOM     32  C   UNL     1      -3.644   3.530 -10.618  0.00  0.00    +0.359 C 
ATOM     33  O   UNL     1      -3.429   3.295 -11.795  0.00  0.00    -0.246 OA
ATOM     34  O   UNL     1      -4.198   4.568 -10.296  0.00  0.00    -0.246 OA
ENDBRANCH  29  32
ENDBRANCH  24  26
ENDBRANCH   5  22
TORSDOF 4
