REMARK  Name = ZINC12568528
REMARK  11 active torsions:
REMARK  status: ('A' for Active; 'I' for Inactive)
REMARK    1  A    between atoms: C_1  and  C_2
REMARK    2  A    between atoms: C_2  and  C_4
REMARK    3  A    between atoms: C_2  and  N_58
REMARK    4  A    between atoms: C_7  and  S_10
REMARK    5  A    between atoms: S_10  and  N_13
REMARK    6  A    between atoms: C_14  and  C_15
REMARK    7  A    between atoms: C_14  and  N_58
REMARK    8  A    between atoms: N_17  and  C_28
REMARK    9  A    between atoms: C_19  and  C_20
REMARK   10  A    between atoms: C_23  and  O_26
REMARK   11  A    between atoms: O_26  and  C_27
REMARK                            x       y       z     vdW  Elec       q    Type
REMARK                         _______ _______ _______ _____ _____    ______ ____
ROOT
ATOM      1  C   UNL     1      -5.434   1.385   2.330  0.00  0.00    -0.019 A 
ATOM      2  C   UNL     1      -5.407   1.367   3.681  0.00  0.00    +0.116 A 
ATOM      3  N   UNL     1      -6.440   2.128   4.128  0.00  0.00    -0.239 N 
ATOM      4  N   UNL     1      -7.129   2.622   3.014  0.00  0.00    -0.166 NA
ATOM      5  C   UNL     1      -6.528   2.178   1.930  0.00  0.00    +0.094 A 
ENDROOT
BRANCH   5   6
ATOM      6  C   UNL     1      -6.932   2.463   0.531  0.00  0.00    +0.003 A 
ATOM      7  C   UNL     1      -5.963   2.613  -0.459  0.00  0.00    +0.013 A 
ATOM      8  C   UNL     1      -6.342   2.871  -1.760  0.00  0.00    +0.046 A 
ATOM      9  C   UNL     1      -7.687   2.994  -2.081  0.00  0.00    +0.120 A 
ATOM     10  C   UNL     1      -8.654   2.851  -1.096  0.00  0.00    +0.046 A 
ATOM     11  C   UNL     1      -8.282   2.586   0.205  0.00  0.00    +0.013 A 
BRANCH   9  12
ATOM     12  O   UNL     1      -8.057   3.255  -3.362  0.00  0.00    -0.495 OA
ATOM     13  C   UNL     1      -7.010   3.390  -4.325  0.00  0.00    +0.277 C 
ENDBRANCH   9  12
ENDBRANCH   5   6
BRANCH   3  14
ATOM     14  C   UNL     1      -6.763   2.370   5.470  0.00  0.00    +0.065 A 
ATOM     15  C   UNL     1      -5.994   1.811   6.483  0.00  0.00    +0.028 A 
ATOM     16  C   UNL     1      -6.311   2.056   7.804  0.00  0.00    +0.002 A 
ATOM     17  C   UNL     1      -7.400   2.849   8.120  0.00  0.00    +0.000 A 
ATOM     18  C   UNL     1      -8.170   3.403   7.114  0.00  0.00    +0.002 A 
ATOM     19  C   UNL     1      -7.855   3.166   5.790  0.00  0.00    +0.028 A 
ENDBRANCH   3  14
BRANCH   1  20
ATOM     20  C   UNL     1      -4.470   0.677   1.414  0.00  0.00    -0.042 C 
BRANCH  20  21
ATOM     21  N   UNL     1      -3.473   1.646   0.920  0.00  0.00    +0.386 N 
ATOM     22  H   UNL     1      -3.953   2.396   0.409  0.00  0.00    -0.085 HD
ATOM     23  H   UNL     1      -2.966   2.047   1.718  0.00  0.00    -0.085 HD
BRANCH  21  25
ATOM     24  C   UNL     1      -3.087   0.941  -1.399  0.00  0.00    -0.009 C 
ATOM     25  C   UNL     1      -2.514   0.980   0.019  0.00  0.00    -0.044 C 
BRANCH  25  26
ATOM     26  C   UNL     1      -1.219   1.751   0.017  0.00  0.00    -0.062 A 
ATOM     27  C   UNL     1      -0.013   1.076   0.008  0.00  0.00    +0.004 A 
ATOM     28  C   UNL     1       1.175   1.783   0.000  0.00  0.00    +0.029 A 
ATOM     29  C   UNL     1       1.156   3.165   0.008  0.00  0.00    +0.105 A 
ATOM     30  C   UNL     1      -0.050   3.840   0.022  0.00  0.00    +0.029 A 
ATOM     31  C   UNL     1      -1.238   3.133   0.030  0.00  0.00    +0.004 A 
BRANCH  29  32
ATOM     32  S   UNL     1       2.670   4.067  -0.003  0.00  0.00    +0.056 S 
ATOM     33  O   UNL     1       2.387   5.342   0.557  0.00  0.00    -0.153 OA
ATOM     34  O   UNL     1       3.662   3.202   0.534  0.00  0.00    -0.153 OA
BRANCH  32  35
ATOM     35  N   UNL     1       3.075   4.326  -1.587  0.00  0.00    -0.204 NA
ATOM     36  H   UNL     1       3.578   5.117  -1.836  0.00  0.00    +0.144 HD
ATOM     37  H   UNL     1       2.810   3.686  -2.266  0.00  0.00    +0.144 HD
ENDBRANCH  32  35
ENDBRANCH  29  32
ENDBRANCH  25  26
ENDBRANCH  21  25
ENDBRANCH  20  21
ENDBRANCH   1  20
TORSDOF 9
