REMARK  Name = ZINC16489262
REMARK  5 active torsions:
REMARK  status: ('A' for Active; 'I' for Inactive)
REMARK    1  A    between atoms: C_4  and  N_7
REMARK    2  A    between atoms: C_8  and  C_10
REMARK    3  A    between atoms: C_12  and  S_18
REMARK    4  A    between atoms: S_18  and  N_21
REMARK    5  A    between atoms: N_21  and  C_22
REMARK                            x       y       z     vdW  Elec       q    Type
REMARK                         _______ _______ _______ _____ _____    ______ ____
ROOT
ATOM      1  C   UNL     1      -1.038   3.773  -2.987  0.00  0.00    +0.057 A 
ATOM      2  C   UNL     1      -0.400   3.294  -1.842  0.00  0.00    +0.044 A 
ATOM      3  C   UNL     1      -0.931   2.222  -1.157  0.00  0.00    +0.128 A 
ATOM      4  C   UNL     1      -2.094   1.617  -1.606  0.00  0.00    +0.069 A 
ATOM      5  C   UNL     1      -2.736   2.090  -2.737  0.00  0.00    +0.042 A 
ATOM      6  C   UNL     1      -2.214   3.163  -3.432  0.00  0.00    +0.055 A 
ATOM      7 CL   UNL     1      -3.016   3.751  -4.855  0.00  0.00    -0.083 Cl
ATOM      8 CL   UNL     1      -2.753   0.263  -0.741  0.00  0.00    -0.081 Cl
ENDROOT
BRANCH   1  10
ATOM      9  N   UNL     1       0.660   5.508  -3.294  0.00  0.00    -0.281 N 
ATOM     10  C   UNL     1      -0.474   4.921  -3.726  0.00  0.00    +0.250 C 
ATOM     11  O   UNL     1      -1.032   5.336  -4.723  0.00  0.00    -0.270 OA
ATOM     12  H   UNL     1       1.147   5.130  -2.545  0.00  0.00    +0.155 HD
BRANCH   9  16
ATOM     13  C   UNL     1       2.077   8.941  -5.180  0.00  0.00    +0.000 A 
ATOM     14  C   UNL     1       0.715   8.719  -5.084  0.00  0.00    +0.002 A 
ATOM     15  C   UNL     1       0.242   7.581  -4.459  0.00  0.00    +0.023 A 
ATOM     16  C   UNL     1       1.136   6.660  -3.928  0.00  0.00    +0.034 A 
ATOM     17  C   UNL     1       2.502   6.890  -4.021  0.00  0.00    +0.023 A 
ATOM     18  C   UNL     1       2.969   8.027  -4.652  0.00  0.00    +0.002 A 
ENDBRANCH   9  16
ENDBRANCH   1  10
BRANCH   3  19
ATOM     19  S   UNL     1      -0.127   1.616   0.289  0.00  0.00    +0.074 S 
ATOM     20  O   UNL     1       1.054   2.390   0.451  0.00  0.00    -0.150 OA
ATOM     21  O   UNL     1      -1.122   1.524   1.299  0.00  0.00    -0.150 OA
BRANCH  19  22
ATOM     22  N   UNL     1       0.363   0.068  -0.036  0.00  0.00    -0.215 N 
ATOM     23  H   UNL     1      -0.004  -0.673   0.470  0.00  0.00    +0.174 HD
BRANCH  22  24
ATOM     24  C   UNL     1       1.307  -0.170  -1.039  0.00  0.00    +0.066 A 
ATOM     25  C   UNL     1       1.104  -1.183  -1.974  0.00  0.00    +0.027 A 
ATOM     26  C   UNL     1       2.065  -1.377  -2.952  0.00  0.00    +0.022 A 
ATOM     27  C   UNL     1       3.190  -0.573  -2.963  0.00  0.00    +0.111 A 
ATOM     28  N   UNL     1       3.355   0.374  -2.060  0.00  0.00    -0.261 NA
ATOM     29  C   UNL     1       2.463   0.596  -1.115  0.00  0.00    +0.135 A 
ENDBRANCH  22  24
ENDBRANCH  19  22
ENDBRANCH   3  19
TORSDOF 5
