REMARK  Name = ZINC08739162
REMARK  7 active torsions:
REMARK  status: ('A' for Active; 'I' for Inactive)
REMARK    1  A    between atoms: C_1  and  C_2
REMARK    2  A    between atoms: C_2  and  C_3
REMARK    3  A    between atoms: C_2  and  C_4
REMARK    4  A    between atoms: C_2  and  C_5
REMARK    5  A    between atoms: C_8  and  N_11
REMARK    6  A    between atoms: C_12  and  C_14
REMARK    7  A    between atoms: C_14  and  N_15
REMARK                            x       y       z     vdW  Elec       q    Type
REMARK                         _______ _______ _______ _____ _____    ______ ____
ROOT
ATOM      1  N   UNL     1       5.920  -1.239  -6.284  0.00  0.00    -0.290 N 
ATOM      2  C   UNL     1       6.700  -1.451  -7.362  0.00  0.00    +0.307 C 
ATOM      3  O   UNL     1       6.258  -2.045  -8.326  0.00  0.00    -0.252 OA
ATOM      4  N   UNL     1       7.972  -1.003  -7.372  0.00  0.00    -0.245 N 
ATOM      5  C   UNL     1       8.496  -0.183  -6.270  0.00  0.00    +0.211 C 
ATOM      6  C   UNL     1       9.329   0.935  -6.842  0.00  0.00    +0.235 C 
ATOM      7  O   UNL     1       9.417   1.985  -6.242  0.00  0.00    -0.274 OA
ATOM      8  N   UNL     1       9.977   0.782  -8.012  0.00  0.00    -0.283 N 
ATOM      9  C   UNL     1       9.853  -0.400  -8.751  0.00  0.00    +0.055 A 
ATOM     10  C   UNL     1       8.840  -1.311  -8.431  0.00  0.00    +0.059 A 
ATOM     11  C   UNL     1       8.702  -2.483  -9.151  0.00  0.00    +0.025 A 
ATOM     12  C   UNL     1       9.577  -2.760 -10.187  0.00  0.00    +0.002 A 
ATOM     13  C   UNL     1      10.585  -1.868 -10.502  0.00  0.00    +0.002 A 
ATOM     14  C   UNL     1      10.723  -0.681  -9.791  0.00  0.00    +0.025 A 
ATOM     15  H   UNL     1       6.248  -0.704  -5.545  0.00  0.00    +0.151 HD
ATOM     16  H   UNL     1      10.537   1.500  -8.348  0.00  0.00    +0.155 HD
ENDROOT
BRANCH   1  17
ATOM     17  C   UNL     1       4.575  -1.818  -6.229  0.00  0.00    +0.202 C 
BRANCH  17  19
ATOM     18  N   UNL     1       2.666  -1.858  -4.656  0.00  0.00    -0.284 N 
ATOM     19  C   UNL     1       3.916  -1.435  -4.929  0.00  0.00    +0.234 C 
ATOM     20  O   UNL     1       4.511  -0.746  -4.127  0.00  0.00    -0.274 OA
ATOM     21  H   UNL     1       2.218  -2.468  -5.263  0.00  0.00    +0.155 HD
BRANCH  18  25
ATOM     22  C   UNL     1       0.726  -0.545  -1.211  0.00  0.00    -0.042 A 
ATOM     23  C   UNL     1       1.602   0.296  -1.873  0.00  0.00    +0.006 A 
ATOM     24  C   UNL     1       2.247  -0.136  -3.015  0.00  0.00    +0.023 A 
ATOM     25  C   UNL     1       2.015  -1.417  -3.499  0.00  0.00    +0.033 A 
ATOM     26  C   UNL     1       1.135  -2.260  -2.832  0.00  0.00    +0.023 A 
ATOM     27  C   UNL     1       0.497  -1.823  -1.688  0.00  0.00    +0.006 A 
BRANCH  22  29
ATOM     28  C   UNL     1       0.401  -0.976   1.209  0.00  0.00    +0.015 C 
ATOM     29  C   UNL     1       0.024  -0.070   0.035  0.00  0.00    -0.013 C 
ATOM     30  C   UNL     1      -1.490  -0.119  -0.182  0.00  0.00    +0.015 C 
ATOM     31  C   UNL     1       0.449   1.367   0.343  0.00  0.00    +0.015 C 
ENDBRANCH  22  29
ENDBRANCH  18  25
ENDBRANCH  17  19
ENDBRANCH   1  17
TORSDOF 4
