REMARK  Name = ZINC20850922
REMARK  12 active torsions:
REMARK  status: ('A' for Active; 'I' for Inactive)
REMARK    1  A    between atoms: C_1  and  C_2
REMARK    2  A    between atoms: C_2  and  O_3
REMARK    3  A    between atoms: O_3  and  C_4
REMARK    4  A    between atoms: C_7  and  C_12
REMARK    5  A    between atoms: C_9  and  O_10
REMARK    6  A    between atoms: O_10  and  C_11
REMARK    7  A    between atoms: C_17  and  C_21
REMARK    8  A    between atoms: C_17  and  C_22
REMARK    9  A    between atoms: C_27  and  S_29
REMARK   10  A    between atoms: S_29  and  C_30
REMARK   11  A    between atoms: C_30  and  C_31
REMARK   12  A    between atoms: C_36  and  C_37
REMARK                            x       y       z     vdW  Elec       q    Type
REMARK                         _______ _______ _______ _____ _____    ______ ____
ROOT
ATOM      1  C   UNL     1       0.937   0.414  -6.244  0.00  0.00    +0.176 C 
ATOM      2  C   UNL     1       2.318  -0.124  -6.545  0.00  0.00    +0.041 C 
ATOM      3  C   UNL     1       3.100  -0.669  -5.589  0.00  0.00    +0.020 C 
ATOM      4  C   UNL     1       4.475  -1.200  -5.920  0.00  0.00    +0.058 C 
ATOM      5  C   UNL     1       4.493  -1.722  -7.358  0.00  0.00    -0.023 C 
ATOM      6  C   UNL     1       4.104  -0.573  -8.293  0.00  0.00    +0.086 C 
ATOM      7  C   UNL     1       2.761  -0.039  -7.878  0.00  0.00    +0.164 C 
ATOM      8  O   UNL     1       2.043   0.477  -8.711  0.00  0.00    -0.292 OA
ATOM      9  C   UNL     1       3.489  -2.868  -7.503  0.00  0.00    +0.011 C 
ATOM     10  C   UNL     1       5.897  -2.220  -7.709  0.00  0.00    +0.011 C 
ATOM     11  N   UNL     1       2.687  -0.761  -4.281  0.00  0.00    -0.287 N 
ATOM     12  C   UNL     1       1.587  -0.015  -3.893  0.00  0.00    +0.219 A 
ATOM     13  N   UNL     1       0.757   0.549  -4.804  0.00  0.00    -0.220 N 
ATOM     14  N   UNL     1      -0.225   1.227  -4.084  0.00  0.00    -0.141 NA
ATOM     15  C   UNL     1       0.045   1.043  -2.809  0.00  0.00    +0.211 A 
ATOM     16  N   UNL     1       1.150   0.291  -2.701  0.00  0.00    -0.187 NA
ATOM     17  H   UNL     1       3.227  -1.412  -3.578  0.00  0.00    +0.155 HD
ENDROOT
BRANCH   1  21
ATOM     18  C   UNL     1      -2.002  -2.279  -7.792  0.00  0.00    +0.162 A 
ATOM     19  C   UNL     1      -1.100  -2.711  -6.833  0.00  0.00    +0.050 A 
ATOM     20  C   UNL     1      -0.147  -1.839  -6.339  0.00  0.00    +0.010 A 
ATOM     21  C   UNL     1      -0.100  -0.533  -6.791  0.00  0.00    -0.015 A 
ATOM     22  C   UNL     1      -0.997  -0.097  -7.747  0.00  0.00    +0.055 A 
ATOM     23  C   UNL     1      -1.950  -0.967  -8.251  0.00  0.00    +0.162 A 
BRANCH  23  24
ATOM     24  O   UNL     1      -2.834  -0.539  -9.192  0.00  0.00    -0.491 OA
ATOM     25  C   UNL     1      -2.721   0.821  -9.617  0.00  0.00    +0.277 C 
ENDBRANCH  23  24
BRANCH  18  26
ATOM     26  O   UNL     1      -2.936  -3.137  -8.284  0.00  0.00    -0.489 OA
BRANCH  26  28
ATOM     27  C   UNL     1      -4.042  -5.280  -8.433  0.00  0.00    +0.048 C 
ATOM     28  C   UNL     1      -2.930  -4.469  -7.766  0.00  0.00    +0.226 C 
ENDBRANCH  26  28
ENDBRANCH  18  26
ENDBRANCH   1  21
BRANCH  15  29
ATOM     29  S   UNL     1      -0.890   1.687  -1.462  0.00  0.00    -0.080 S 
BRANCH  29  30
ATOM     30  C   UNL     1      -0.013   1.086   0.008  0.00  0.00    +0.112 C 
BRANCH  30  31
ATOM     31  C   UNL     1      -0.718   1.572   1.248  0.00  0.00    -0.034 A 
ATOM     32  C   UNL     1      -1.720   0.808   1.818  0.00  0.00    +0.005 A 
ATOM     33  C   UNL     1      -2.366   1.254   2.955  0.00  0.00    +0.000 A 
ATOM     34  C   UNL     1      -2.012   2.463   3.523  0.00  0.00    +0.000 A 
ATOM     35  C   UNL     1      -1.010   3.226   2.954  0.00  0.00    +0.003 A 
ATOM     36  C   UNL     1      -0.360   2.779   1.819  0.00  0.00    -0.046 A 
ATOM     37  C   UNL     1       0.736   3.608   1.201  0.00  0.00    +0.044 C 
ENDBRANCH  30  31
ENDBRANCH  29  30
ENDBRANCH  15  29
TORSDOF 7
