REMARK  Name = ZINC62040107
REMARK  8 active torsions:
REMARK  status: ('A' for Active; 'I' for Inactive)
REMARK    1  A    between atoms: C_1  and  C_2
REMARK    2  A    between atoms: C_6  and  C_11
REMARK    3  A    between atoms: C_14  and  O_17
REMARK    4  A    between atoms: O_17  and  C_18
REMARK    5  A    between atoms: N_19  and  C_20
REMARK    6  A    between atoms: C_22  and  C_27
REMARK    7  A    between atoms: C_27  and  O_29
REMARK    8  A    between atoms: O_29  and  C_30
REMARK                            x       y       z     vdW  Elec       q    Type
REMARK                         _______ _______ _______ _____ _____    ______ ____
ROOT
ATOM      1  C   UNL     1       3.232   0.657   0.120  0.00  0.00    +0.088 C 
ATOM      2  C   UNL     1       2.384  -0.589   0.099  0.00  0.00    +0.129 A 
ATOM      3  N   UNL     1       1.941  -1.049  -1.058  0.00  0.00    -0.217 NA
ATOM      4  C   UNL     1       1.193  -2.138  -1.142  0.00  0.00    +0.135 A 
ATOM      5  C   UNL     1       0.854  -2.840   0.046  0.00  0.00    +0.055 A 
ATOM      6  C   UNL     1       0.055  -4.049   0.217  0.00  0.00    +0.002 A 
ATOM      7  C   UNL     1      -0.131  -4.535   1.466  0.00  0.00    +0.056 A 
ATOM      8  S   UNL     1       0.763  -3.389   2.497  0.00  0.00    -0.076 S 
ATOM      9  C   UNL     1       1.363  -2.290   1.240  0.00  0.00    +0.114 A 
ATOM     10  N   UNL     1       2.106  -1.200   1.234  0.00  0.00    -0.225 NA
ATOM     11  N   UNL     1       0.747  -2.587  -2.373  0.00  0.00    -0.298 N 
ATOM     12  H   UNL     1       0.283  -3.437  -2.440  0.00  0.00    +0.154 HD
ENDROOT
BRANCH  11  13
ATOM     13  C   UNL     1       0.965  -1.817  -3.520  0.00  0.00    +0.052 A 
ATOM     14  C   UNL     1       1.215  -0.459  -3.405  0.00  0.00    +0.039 A 
ATOM     15  C   UNL     1       1.432   0.305  -4.553  0.00  0.00    +0.061 A 
ATOM     16  C   UNL     1       1.398  -0.304  -5.809  0.00  0.00    +0.016 A 
ATOM     17  C   UNL     1       1.149  -1.657  -5.913  0.00  0.00    +0.022 A 
ATOM     18  C   UNL     1       0.938  -2.416  -4.776  0.00  0.00    +0.062 A 
ATOM     19 CL   UNL     1       0.632  -4.119  -4.916  0.00  0.00    -0.082 Cl
BRANCH  15  20
ATOM     20  C   UNL     1       1.698   1.753  -4.439  0.00  0.00    +0.339 C 
ATOM     21  O   UNL     1       1.727   2.281  -3.345  0.00  0.00    -0.245 OA
BRANCH  20  22
ATOM     22  O   UNL     1       1.908   2.489  -5.548  0.00  0.00    -0.464 OA
ATOM     23  C   UNL     1       2.159   3.884  -5.364  0.00  0.00    +0.280 C 
ENDBRANCH  20  22
ENDBRANCH  15  20
ENDBRANCH  11  13
BRANCH   6  24
ATOM     24  C   UNL     1      -0.542  -4.731  -0.956  0.00  0.00    -0.016 A 
ATOM     25  C   UNL     1      -1.435  -4.049  -1.782  0.00  0.00    +0.012 A 
ATOM     26  C   UNL     1      -1.988  -4.687  -2.872  0.00  0.00    +0.046 A 
ATOM     27  C   UNL     1      -1.658  -6.007  -3.148  0.00  0.00    +0.120 A 
ATOM     28  C   UNL     1      -0.770  -6.689  -2.328  0.00  0.00    +0.046 A 
ATOM     29  C   UNL     1      -0.208  -6.055  -1.239  0.00  0.00    +0.012 A 
BRANCH  27  30
ATOM     30  O   UNL     1      -2.207  -6.633  -4.222  0.00  0.00    -0.495 OA
ATOM     31  C   UNL     1      -1.823  -7.991  -4.447  0.00  0.00    +0.277 C 
ENDBRANCH  27  30
ENDBRANCH   6  24
TORSDOF 5
