REMARK  Name = ZINC35106853
REMARK  10 active torsions:
REMARK  status: ('A' for Active; 'I' for Inactive)
REMARK    1  A    between atoms: C_1  and  C_2
REMARK    2  A    between atoms: C_2  and  C_3
REMARK    3  A    between atoms: C_3  and  N_4
REMARK    4  A    between atoms: N_4  and  C_5
REMARK    5  A    between atoms: C_5  and  C_6
REMARK    6  A    between atoms: C_6  and  C_8
REMARK    7  A    between atoms: C_9  and  C_21
REMARK    8  A    between atoms: N_11  and  C_14
REMARK    9  A    between atoms: C_12  and  O_13
REMARK   10  A    between atoms: C_27  and  C_29
REMARK                            x       y       z     vdW  Elec       q    Type
REMARK                         _______ _______ _______ _____ _____    ______ ____
ROOT
ATOM      1  C   UNL     1      -1.722  -3.886  -3.170  0.00  0.00    +0.108 A 
ATOM      2  C   UNL     1      -1.972  -4.254  -4.571  0.00  0.00    +0.107 A 
ATOM      3  N   UNL     1      -3.074  -4.965  -4.593  0.00  0.00    -0.162 NA
ATOM      4  N   UNL     1      -3.572  -5.092  -3.294  0.00  0.00    -0.199 N 
ATOM      5  C   UNL     1      -2.761  -4.450  -2.430  0.00  0.00    +0.227 A 
ENDROOT
BRANCH   4   6
ATOM      6  C   UNL     1      -4.736  -5.788  -2.941  0.00  0.00    +0.070 A 
ATOM      7  C   UNL     1      -4.800  -6.469  -1.733  0.00  0.00    +0.028 A 
ATOM      8  C   UNL     1      -5.949  -7.154  -1.387  0.00  0.00    +0.003 A 
ATOM      9  C   UNL     1      -7.035  -7.161  -2.243  0.00  0.00    +0.020 A 
ATOM     10  C   UNL     1      -6.975  -6.483  -3.448  0.00  0.00    +0.043 A 
ATOM     11  C   UNL     1      -5.830  -5.792  -3.797  0.00  0.00    +0.048 A 
ATOM     12 CL   UNL     1      -8.341  -6.496  -4.519  0.00  0.00    -0.083 Cl
ENDBRANCH   4   6
BRANCH   2  13
ATOM     13  C   UNL     1      -1.135  -3.890  -5.739  0.00  0.00    +0.003 A 
ATOM     14  C   UNL     1       0.250  -4.029  -5.678  0.00  0.00    +0.010 A 
ATOM     15  C   UNL     1       1.024  -3.688  -6.769  0.00  0.00    +0.001 A 
ATOM     16  C   UNL     1       0.427  -3.209  -7.921  0.00  0.00    +0.000 A 
ATOM     17  C   UNL     1      -0.948  -3.068  -7.987  0.00  0.00    +0.001 A 
ATOM     18  C   UNL     1      -1.732  -3.412  -6.905  0.00  0.00    +0.010 A 
ENDBRANCH   2  13
BRANCH   1  19
ATOM     19  C   UNL     1      -0.642  -3.119  -2.671  0.00  0.00    +0.188 C 
ATOM     20  O   UNL     1       0.139  -2.599  -3.441  0.00  0.00    -0.290 OA
BRANCH  19  21
ATOM     21  C   UNL     1      -0.463  -2.947  -1.185  0.00  0.00    +0.187 C 
BRANCH  21  22
ATOM     22  N   UNL     1       0.717  -2.118  -0.928  0.00  0.00    -0.290 N 
ATOM     23  C   UNL     1       1.902  -2.699  -0.653  0.00  0.00    +0.247 C 
ATOM     24  O   UNL     1       2.858  -2.013  -0.346  0.00  0.00    -0.270 OA
BRANCH  23  25
ATOM     25  C   UNL     1       2.039  -4.168  -0.726  0.00  0.00    +0.038 A 
ATOM     26  C   UNL     1       1.534  -4.862  -1.840  0.00  0.00    +0.013 A 
ATOM     27  C   UNL     1       1.648  -6.212  -1.929  0.00  0.00    +0.009 A 
ATOM     28  C   UNL     1       2.277  -6.935  -0.899  0.00  0.00    -0.018 A 
ATOM     29  C   UNL     1       2.406  -8.332  -0.970  0.00  0.00    +0.008 A 
ATOM     30  C   UNL     1       3.020  -9.005   0.042  0.00  0.00    +0.001 A 
ATOM     31  C   UNL     1       3.524  -8.329   1.152  0.00  0.00    +0.001 A 
ATOM     32  C   UNL     1       3.417  -6.976   1.256  0.00  0.00    +0.008 A 
ATOM     33  C   UNL     1       2.790  -6.247   0.230  0.00  0.00    -0.017 A 
ATOM     34  C   UNL     1       2.669  -4.851   0.302  0.00  0.00    +0.021 A 
ENDBRANCH  23  25
BRANCH  22  35
ATOM     35  C   UNL     1       0.609  -0.658  -0.970  0.00  0.00    +0.108 C 
BRANCH  35  37
ATOM     36  C   UNL     1       0.052   1.386   0.355  0.00  0.00    +0.005 C 
ATOM     37  C   UNL     1       0.165  -0.140   0.399  0.00  0.00    +0.016 C 
ENDBRANCH  35  37
ENDBRANCH  22  35
ENDBRANCH  21  22
ENDBRANCH  19  21
ENDBRANCH   1  19
BRANCH   5  38
ATOM     38  O   UNL     1      -2.926  -4.365  -1.091  0.00  0.00    -0.492 OA
ATOM     39  H   UNL     1      -3.450  -3.603  -0.807  0.00  0.00    +0.294 HD
ENDBRANCH   5  38
TORSDOF 9
