REMARK  Name = ZINC13542860
REMARK  5 active torsions:
REMARK  status: ('A' for Active; 'I' for Inactive)
REMARK    1  A    between atoms: N_7  and  C1*_8
REMARK    2  A    between atoms: C2*_10  and  O2*_20
REMARK    3  A    between atoms: C3*_12  and  O3*_19
REMARK    4  A    between atoms: C4*_14  and  C5*_17
REMARK    5  A    between atoms: C5*_17  and  O5*_18
REMARK                            x       y       z     vdW  Elec       q    Type
REMARK                         _______ _______ _______ _____ _____    ______ ____
ROOT
ATOM      1  C1* UNL     1       1.167   4.793   1.572  0.00  0.00    +0.255 C 
ATOM      2  C2* UNL     1       2.651   4.613   1.163  0.00  0.00    +0.195 C 
ATOM      3  C3* UNL     1       2.534   3.741  -0.110  0.00  0.00    +0.178 C 
ATOM      4  C4* UNL     1       1.145   3.085   0.008  0.00  0.00    +0.177 C 
ATOM      5  O4* UNL     1       0.574   3.515   1.255  0.00  0.00    -0.346 OA
ENDROOT
BRANCH   1  12
ATOM      6  C   UNL     1       0.496   6.240   3.429  0.00  0.00    +0.112 A 
ATOM      7  C   UNL     1       0.399   6.485   4.757  0.00  0.00    +0.074 A 
ATOM      8  C   UNL     1       0.883   5.522   5.667  0.00  0.00    +0.137 A 
ATOM      9  N   UNL     1       1.421   4.399   5.208  0.00  0.00    -0.177 NA
ATOM     10  C   UNL     1       1.504   4.170   3.899  0.00  0.00    +0.352 A 
ATOM     11  O   UNL     1       1.998   3.127   3.503  0.00  0.00    -0.244 OA
ATOM     12  N   UNL     1       1.057   5.071   3.006  0.00  0.00    -0.269 N 
ATOM     13  N   UNL     1       0.797   5.745   7.022  0.00  0.00    -0.342 N 
ATOM     14 BR   UNL     1      -0.372   8.094   5.383  0.00  0.00    -0.045 Br
ATOM     15  H   UNL     1       1.307   6.573   7.256  0.00  0.00    +0.144 HD
ATOM     16  H   UNL     1       1.130   5.080   7.645  0.00  0.00    +0.144 HD
ENDBRANCH   1  12
BRANCH   3  17
ATOM     17  O3* UNL     1       2.605   4.556  -1.282  0.00  0.00    -0.386 OA
ATOM     18  H3* UNL     1       2.479   4.068  -2.108  0.00  0.00    +0.210 HD
ENDBRANCH   3  17
BRANCH   2  19
ATOM     19  O2* UNL     1       3.254   5.874   0.865  0.00  0.00    -0.385 OA
ATOM     20  H2* UNL     1       4.184   5.814   0.604  0.00  0.00    +0.210 HD
ENDBRANCH   2  19
BRANCH   4  21
ATOM     21  C5* UNL     1       1.286   1.562  -0.002  0.00  0.00    +0.190 C 
BRANCH  21  22
ATOM     22  O5* UNL     1      -0.011   0.963   0.007  0.00  0.00    -0.392 OA
ATOM     23  H5* UNL     1       0.002  -0.004   0.002  0.00  0.00    +0.210 HD
ENDBRANCH  21  22
ENDBRANCH   4  21
TORSDOF 5
