REMARK  Name = ZINC08582662
REMARK  11 active torsions:
REMARK  status: ('A' for Active; 'I' for Inactive)
REMARK    1  A    between atoms: C_1  and  C_2
REMARK    2  A    between atoms: C_2  and  C_3
REMARK    3  A    between atoms: C_3  and  C_5
REMARK    4  A    between atoms: C_3  and  N_63
REMARK    5  A    between atoms: N_9  and  C_10
REMARK    6  A    between atoms: C_15  and  C_16
REMARK    7  A    between atoms: C_15  and  N_63
REMARK    8  A    between atoms: C_21  and  C_22
REMARK    9  A    between atoms: C_21  and  N_63
REMARK   10  A    between atoms: C_26  and  C_33
REMARK   11  A    between atoms: C_31  and  O_32
REMARK                            x       y       z     vdW  Elec       q    Type
REMARK                         _______ _______ _______ _____ _____    ______ ____
ROOT
ATOM      1  N   UNL     1      -0.912   0.139  -1.795  0.00  0.00    +0.392 N 
ATOM      2  H   UNL     1      -0.381  -0.545  -1.244  0.00  0.00    -0.080 HD
ENDROOT
BRANCH   1   3
ATOM      3  C   UNL     1      -0.856   1.450  -1.116  0.00  0.00    +0.003 C 
BRANCH   3   4
ATOM      4  C   UNL     1      -2.014   1.571  -0.158  0.00  0.00    +0.138 A 
ATOM      5  N   UNL     1      -2.448   0.647   0.665  0.00  0.00    -0.115 NA
ATOM      6  N   UNL     1      -3.450   1.132   1.314  0.00  0.00    -0.023 NA
ATOM      7  N   UNL     1      -3.671   2.338   0.920  0.00  0.00    -0.044 NA
ATOM      8  N   UNL     1      -2.807   2.645   0.013  0.00  0.00    -0.228 N 
BRANCH   8   9
ATOM      9  C   UNL     1      -2.707   3.922  -0.697  0.00  0.00    +0.111 C 
ATOM     10  C   UNL     1      -2.513   5.074   0.312  0.00  0.00    +0.027 C 
ATOM     11  C   UNL     1      -3.333   6.244  -0.287  0.00  0.00    +0.002 C 
ATOM     12  C   UNL     1      -4.576   5.528  -0.872  0.00  0.00    +0.002 C 
ATOM     13  C   UNL     1      -4.017   4.211  -1.449  0.00  0.00    +0.027 C 
ENDBRANCH   8   9
ENDBRANCH   3   4
BRANCH   3  15
ATOM     14  C   UNL     1       1.634   1.457  -1.315  0.00  0.00    +0.002 C 
ATOM     15  C   UNL     1       0.459   1.540  -0.339  0.00  0.00    -0.011 C 
ENDBRANCH   3  15
ENDBRANCH   1   3
BRANCH   1  16
ATOM     16  C   UNL     1      -2.315  -0.315  -1.901  0.00  0.00    -0.034 C 
BRANCH  16  17
ATOM     17  C   UNL     1      -2.324  -1.803  -2.143  0.00  0.00    -0.027 A 
ATOM     18  C   UNL     1      -2.475  -2.812  -1.251  0.00  0.00    +0.009 A 
ATOM     19  C   UNL     1      -2.450  -4.117  -1.706  0.00  0.00    +0.008 A 
ATOM     20  C   UNL     1      -2.275  -4.349  -3.029  0.00  0.00    +0.045 A 
ATOM     21  S   UNL     1      -2.144  -2.692  -3.681  0.00  0.00    -0.103 S 
ENDBRANCH  16  17
ENDBRANCH   1  16
BRANCH   1  22
ATOM     22  C   UNL     1      -0.312   0.241  -3.142  0.00  0.00    -0.036 C 
BRANCH  22  23
ATOM     23  C   UNL     1      -0.879   1.424  -3.884  0.00  0.00    -0.002 A 
ATOM     24  C   UNL     1      -0.251   2.632  -3.825  0.00  0.00    +0.017 A 
ATOM     25  C   UNL     1      -0.814   3.712  -4.533  0.00  0.00    +0.001 A 
ATOM     26  C   UNL     1      -0.220   4.984  -4.517  0.00  0.00    +0.013 A 
ATOM     27  C   UNL     1      -0.792   6.004  -5.214  0.00  0.00    -0.050 A 
ATOM     28  C   UNL     1      -1.961   5.802  -5.945  0.00  0.00    +0.005 A 
ATOM     29  C   UNL     1      -2.563   4.582  -5.983  0.00  0.00    +0.029 A 
ATOM     30  C   UNL     1      -2.002   3.505  -5.276  0.00  0.00    +0.075 A 
ATOM     31  N   UNL     1      -2.572   2.295  -5.296  0.00  0.00    -0.213 NA
ATOM     32  C   UNL     1      -2.048   1.282  -4.641  0.00  0.00    +0.214 A 
ATOM     33  C   UNL     1      -0.153   7.369  -5.196  0.00  0.00    +0.044 C 
BRANCH  32  34
ATOM     34  O   UNL     1      -2.658   0.072  -4.695  0.00  0.00    -0.492 OA
ATOM     35  H   UNL     1      -3.404  -0.020  -4.087  0.00  0.00    +0.294 HD
ENDBRANCH  32  34
ENDBRANCH  22  23
ENDBRANCH   1  22
TORSDOF 9
