REMARK  Name = ZINC66332644
REMARK  11 active torsions:
REMARK  status: ('A' for Active; 'I' for Inactive)
REMARK    1  A    between atoms: C_1  and  C_2
REMARK    2  A    between atoms: C_2  and  S_3
REMARK    3  A    between atoms: S_3  and  C_4
REMARK    4  A    between atoms: C_4  and  C_6
REMARK    5  A    between atoms: C_4  and  C_9
REMARK    6  A    between atoms: C_6  and  C_7
REMARK    7  A    between atoms: C_6  and  C_8
REMARK    8  A    between atoms: N_11  and  C_12
REMARK    9  A    between atoms: C_16  and  C_18
REMARK   10  A    between atoms: C_18  and  N_19
REMARK   11  A    between atoms: C_23  and  C_25
REMARK                            x       y       z     vdW  Elec       q    Type
REMARK                         _______ _______ _______ _____ _____    ______ ____
ROOT
ATOM      1  C   UNL     1      -4.344  -4.791  -0.162  0.00  0.00    +0.034 A 
ATOM      2  C   UNL     1      -5.391  -3.904   0.051  0.00  0.00    +0.023 A 
ATOM      3  C   UNL     1      -6.672  -4.383   0.241  0.00  0.00    +0.002 A 
ATOM      4  C   UNL     1      -6.913  -5.744   0.220  0.00  0.00    +0.002 A 
ATOM      5  C   UNL     1      -5.873  -6.630   0.009  0.00  0.00    -0.062 A 
ATOM      6  C   UNL     1      -4.590  -6.158  -0.189  0.00  0.00    +0.025 A 
ENDROOT
BRANCH   1   9
ATOM      7  C   UNL     1      -1.991  -5.002   0.121  0.00  0.00    +0.230 C 
ATOM      8  O   UNL     1      -2.162  -6.083   0.643  0.00  0.00    -0.274 OA
ATOM      9  N   UNL     1      -3.044  -4.309  -0.356  0.00  0.00    -0.285 N 
ATOM     10  H   UNL     1      -2.902  -3.477  -0.833  0.00  0.00    +0.155 HD
BRANCH   7  11
ATOM     11  C   UNL     1      -0.600  -4.433   0.005  0.00  0.00    +0.135 C 
BRANCH  11  12
ATOM     12  C   UNL     1      -0.068  -4.670  -1.409  0.00  0.00    +0.005 C 
ATOM     13  C   UNL     1      -0.981  -3.975  -2.421  0.00  0.00    +0.009 C 
ATOM     14  C   UNL     1       1.348  -4.101  -1.524  0.00  0.00    +0.009 C 
ENDBRANCH  11  12
BRANCH  11  15
ATOM     15  S   UNL     1       0.488  -5.248   1.206  0.00  0.00    -0.148 S 
BRANCH  15  17
ATOM     16  C   UNL     1       0.622  -5.407   3.933  0.00  0.00    +0.015 C 
ATOM     17  C   UNL     1      -0.141  -4.694   2.815  0.00  0.00    +0.066 C 
ENDBRANCH  15  17
ENDBRANCH  11  15
ENDBRANCH   7  11
ENDBRANCH   1   9
BRANCH   5  18
ATOM     18  C   UNL     1      -6.140  -8.113  -0.013  0.00  0.00    -0.042 C 
BRANCH  18  19
ATOM     19  N   UNL     1      -6.453  -8.535  -1.385  0.00  0.00    +0.390 N 
ATOM     20  C   UNL     1      -5.245  -8.427  -2.241  0.00  0.00    -0.077 C 
ATOM     21  C   UNL     1      -5.554  -9.392  -3.414  0.00  0.00    -0.020 C 
ATOM     22  C   UNL     1      -6.289 -10.559  -2.716  0.00  0.00    -0.008 C 
ATOM     23  C   UNL     1      -6.835  -9.964  -1.405  0.00  0.00    +0.019 C 
ATOM     24  H   UNL     1      -7.199  -7.970  -1.761  0.00  0.00    -0.080 HD
BRANCH  23  25
ATOM     25  C   UNL     1      -8.336 -10.094  -1.367  0.00  0.00    +0.197 C 
ATOM     26  O   UNL     1      -9.030  -9.101  -1.327  0.00  0.00    -0.278 OA
ATOM     27  N   UNL     1      -8.906 -11.315  -1.377  0.00  0.00    -0.331 N 
ATOM     28  H   UNL     1      -8.351 -12.110  -1.409  0.00  0.00    +0.145 HD
ATOM     29  H   UNL     1      -9.872 -11.399  -1.353  0.00  0.00    +0.145 HD
ENDBRANCH  23  25
ENDBRANCH  18  19
ENDBRANCH   5  18
TORSDOF 8
