REMARK  Name = ZINC04724005
REMARK  7 active torsions:
REMARK  status: ('A' for Active; 'I' for Inactive)
REMARK    1  A    between atoms: C_1  and  C_2
REMARK    2  A    between atoms: C_3  and  C_23
REMARK    3  A    between atoms: C_5  and  N_10
REMARK    4  A    between atoms: C_6  and  C_7
REMARK    5  A    between atoms: N_10  and  C_11
REMARK    6  A    between atoms: C_11  and  N_13
REMARK    7  A    between atoms: C_14  and  C_16
REMARK                            x       y       z     vdW  Elec       q    Type
REMARK                         _______ _______ _______ _____ _____    ______ ____
ROOT
ATOM      1  N   UNL     1      -4.017   2.546   2.739  0.00  0.00    -0.291 N 
ATOM      2  H   UNL     1      -4.693   2.446   2.051  0.00  0.00    +0.154 HD
ENDROOT
BRANCH   1   7
ATOM      3  C   UNL     1      -0.013   1.086   0.008  0.00  0.00    +0.045 C 
ATOM      4  C   UNL     1      -0.718   1.572   1.248  0.00  0.00    -0.027 A 
ATOM      5  C   UNL     1      -0.047   1.809   2.389  0.00  0.00    -0.008 A 
ATOM      6  S   UNL     1      -1.321   2.349   3.510  0.00  0.00    -0.078 S 
ATOM      7  C   UNL     1      -2.692   2.251   2.457  0.00  0.00    +0.084 A 
ATOM      8  C   UNL     1      -2.142   1.808   1.260  0.00  0.00    +0.068 A 
ATOM      9  C   UNL     1       1.429   1.655   2.655  0.00  0.00    +0.052 C 
BRANCH   8  10
ATOM     10  C   UNL     1      -2.968   1.588   0.069  0.00  0.00    +0.244 C 
ATOM     11  O   UNL     1      -3.474   0.499  -0.128  0.00  0.00    -0.270 OA
ATOM     12  N   UNL     1      -3.167   2.592  -0.808  0.00  0.00    -0.325 N 
ATOM     13  H   UNL     1      -2.763   3.460  -0.652  0.00  0.00    +0.145 HD
ATOM     14  H   UNL     1      -3.713   2.447  -1.596  0.00  0.00    +0.145 HD
ENDBRANCH   8  10
ENDBRANCH   1   7
BRANCH   1  15
ATOM     15  C   UNL     1      -4.365   2.972   3.970  0.00  0.00    +0.141 C 
ATOM     16  S   UNL     1      -3.171   3.148   5.184  0.00  0.00    -0.018 S 
BRANCH  15  17
ATOM     17  N   UNL     1      -5.653   3.259   4.244  0.00  0.00    -0.264 N 
ATOM     18  C   UNL     1      -6.001   3.685   5.474  0.00  0.00    +0.250 C 
ATOM     19  O   UNL     1      -5.154   3.810   6.336  0.00  0.00    -0.270 OA
ATOM     20  H   UNL     1      -6.329   3.159   3.556  0.00  0.00    +0.157 HD
BRANCH  18  21
ATOM     21  C   UNL     1      -7.413   3.999   5.775  0.00  0.00    +0.037 A 
ATOM     22  C   UNL     1      -8.388   3.862   4.784  0.00  0.00    +0.014 A 
ATOM     23  C   UNL     1      -9.705   4.151   5.073  0.00  0.00    +0.021 A 
ATOM     24  C   UNL     1     -10.060   4.589   6.338  0.00  0.00    +0.041 A 
ATOM     25  C   UNL     1      -9.096   4.733   7.323  0.00  0.00    +0.021 A 
ATOM     26  C   UNL     1      -7.777   4.441   7.048  0.00  0.00    +0.014 A 
ATOM     27 CL   UNL     1     -11.719   4.957   6.692  0.00  0.00    -0.084 Cl
ENDBRANCH  18  21
ENDBRANCH  15  17
ENDBRANCH   1  15
TORSDOF 5
