REMARK  Name = ZINC56019690
REMARK  11 active torsions:
REMARK  status: ('A' for Active; 'I' for Inactive)
REMARK    1  A    between atoms: C_1  and  C_2
REMARK    2  A    between atoms: C_2  and  C_3
REMARK    3  A    between atoms: C_2  and  C_4
REMARK    4  A    between atoms: C_2  and  C_18
REMARK    5  A    between atoms: C_4  and  N_5
REMARK    6  A    between atoms: C_6  and  C_8
REMARK    7  A    between atoms: C_8  and  C_10
REMARK    8  A    between atoms: C_8  and  N_14
REMARK    9  A    between atoms: C_10  and  C_11
REMARK   10  A    between atoms: C_11  and  S_12
REMARK   11  A    between atoms: S_12  and  C_13
REMARK                            x       y       z     vdW  Elec       q    Type
REMARK                         _______ _______ _______ _____ _____    ______ ____
ROOT
ATOM      1  N   UNL     1      -2.119  -0.061   1.218  0.00  0.00    -0.313 N 
ATOM      2  C   UNL     1      -3.403  -0.406   1.442  0.00  0.00    +0.233 C 
ATOM      3  O   UNL     1      -3.990  -1.106   0.645  0.00  0.00    -0.274 OA
ATOM      4  H   UNL     1      -1.649   0.499   1.855  0.00  0.00    +0.149 HD
ENDROOT
BRANCH   1   5
ATOM      5  C   UNL     1      -1.433  -0.534   0.013  0.00  0.00    +0.115 C 
BRANCH   5   7
ATOM      6  C   UNL     1      -0.019   1.526   0.010  0.00  0.00    +0.017 C 
ATOM      7  C   UNL     1       0.002  -0.004   0.002  0.00  0.00    +0.006 C 
ATOM      8  C   UNL     1       0.742  -0.511   1.242  0.00  0.00    +0.017 C 
BRANCH   7   9
ATOM      9  C   UNL     1       0.707  -0.490  -1.238  0.00  0.00    -0.040 A 
ATOM     10  C   UNL     1       0.036  -1.284  -2.148  0.00  0.00    +0.005 A 
ATOM     11  C   UNL     1       0.682  -1.730  -3.286  0.00  0.00    +0.020 A 
ATOM     12  C   UNL     1       2.002  -1.382  -3.513  0.00  0.00    +0.041 A 
ATOM     13  C   UNL     1       2.673  -0.587  -2.601  0.00  0.00    +0.020 A 
ATOM     14  C   UNL     1       2.024  -0.137  -1.467  0.00  0.00    +0.005 A 
ATOM     15 CL   UNL     1       2.814  -1.942  -4.941  0.00  0.00    -0.084 Cl
ENDBRANCH   7   9
ENDBRANCH   5   7
ENDBRANCH   1   5
BRANCH   2  16
ATOM     16  C   UNL     1      -4.108   0.081   2.682  0.00  0.00    +0.161 C 
BRANCH  16  17
ATOM     17  N   UNL     1      -5.557  -0.001   2.483  0.00  0.00    -0.288 N 
ATOM     18  C   UNL     1      -6.136  -1.191   2.224  0.00  0.00    +0.298 C 
ATOM     19  O   UNL     1      -5.455  -2.196   2.156  0.00  0.00    -0.253 OA
ATOM     20  N   UNL     1      -7.469  -1.266   2.042  0.00  0.00    -0.313 N 
ATOM     21  H   UNL     1      -6.100   0.800   2.538  0.00  0.00    +0.151 HD
ATOM     22  H   UNL     1      -8.012  -0.464   2.096  0.00  0.00    +0.146 HD
ATOM     23  H   UNL     1      -7.885  -2.122   1.855  0.00  0.00    +0.146 HD
ENDBRANCH  16  17
BRANCH  16  24
ATOM     24  C   UNL     1      -3.707  -0.792   3.872  0.00  0.00    +0.042 C 
BRANCH  24  25
ATOM     25  C   UNL     1      -4.323  -0.225   5.152  0.00  0.00    +0.071 C 
BRANCH  25  26
ATOM     26  S   UNL     1      -3.847  -1.260   6.564  0.00  0.00    -0.164 S 
ATOM     27  C   UNL     1      -4.648  -0.462   7.983  0.00  0.00    +0.084 C 
ENDBRANCH  25  26
ENDBRANCH  24  25
ENDBRANCH  16  24
ENDBRANCH   2  16
TORSDOF 8
