REMARK  Name = ZINC35664906
REMARK  14 active torsions:
REMARK  status: ('A' for Active; 'I' for Inactive)
REMARK    1  A    between atoms: C_1  and  C_2
REMARK    2  A    between atoms: C_2  and  O_3
REMARK    3  A    between atoms: O_3  and  C_4
REMARK    4  A    between atoms: C_4  and  C_6
REMARK    5  A    between atoms: C_7  and  C_24
REMARK    6  A    between atoms: N_8  and  C_21
REMARK    7  A    between atoms: C_12  and  C_14
REMARK    8  A    between atoms: C_18  and  C_20
REMARK    9  A    between atoms: C_21  and  C_22
REMARK   10  A    between atoms: C_24  and  N_25
REMARK   11  A    between atoms: C_32  and  C_34
REMARK   12  A    between atoms: C_34  and  C_35
REMARK   13  A    between atoms: C_35  and  C_36
REMARK   14  A    between atoms: C_35  and  C_37
REMARK                            x       y       z     vdW  Elec       q    Type
REMARK                         _______ _______ _______ _____ _____    ______ ____
ROOT
ATOM      1  C   UNL     1       0.792  -2.491  -2.410  0.00  0.00    +0.080 C 
ATOM      2  C   UNL     1       1.348  -3.719  -2.489  0.00  0.00    +0.041 C 
ATOM      3  N   UNL     1       2.228  -4.031  -3.485  0.00  0.00    -0.254 N 
ATOM      4  C   UNL     1       2.604  -3.171  -4.441  0.00  0.00    +0.307 C 
ATOM      5  O   UNL     1       3.394  -3.542  -5.287  0.00  0.00    -0.252 OA
ATOM      6  N   UNL     1       2.134  -1.909  -4.495  0.00  0.00    -0.288 N 
ATOM      7  C   UNL     1       1.173  -1.474  -3.467  0.00  0.00    +0.144 C 
ATOM      8  H   UNL     1       2.420  -1.303  -5.196  0.00  0.00    +0.151 HD
ENDROOT
BRANCH   7   9
ATOM      9  C   UNL     1      -0.089  -1.032  -4.163  0.00  0.00    -0.022 A 
ATOM     10  C   UNL     1      -0.652  -1.826  -5.144  0.00  0.00    +0.006 A 
ATOM     11  C   UNL     1      -1.809  -1.420  -5.782  0.00  0.00    +0.001 A 
ATOM     12  C   UNL     1      -2.403  -0.219  -5.438  0.00  0.00    +0.003 A 
ATOM     13  C   UNL     1      -1.840   0.574  -4.457  0.00  0.00    -0.050 A 
ATOM     14  C   UNL     1      -0.685   0.166  -3.816  0.00  0.00    +0.009 A 
ATOM     15  C   UNL     1      -2.487   1.883  -4.082  0.00  0.00    +0.044 C 
ENDBRANCH   7   9
BRANCH   1  16
ATOM     16  C   UNL     1      -0.121  -2.166  -1.379  0.00  0.00    +0.339 C 
ATOM     17  O   UNL     1      -0.462  -3.016  -0.579  0.00  0.00    -0.245 OA
BRANCH  16  18
ATOM     18  O   UNL     1      -0.612  -0.913  -1.283  0.00  0.00    -0.462 OA
BRANCH  18  20
ATOM     19  C   UNL     1      -1.975   0.807  -0.270  0.00  0.00    +0.048 C 
ATOM     20  C   UNL     1      -1.529  -0.655  -0.218  0.00  0.00    +0.229 C 
ENDBRANCH  18  20
ENDBRANCH  16  18
ENDBRANCH   1  16
BRANCH   3  21
ATOM     21  C   UNL     1       2.793  -5.383  -3.510  0.00  0.00    +0.141 C 
BRANCH  21  22
ATOM     22  C   UNL     1       1.893  -6.289  -4.309  0.00  0.00    -0.015 C 
ATOM     23  C   UNL     1       2.374  -6.958  -5.328  0.00  0.00    +0.005 C 
ENDBRANCH  21  22
ENDBRANCH   3  21
BRANCH   2  24
ATOM     24  C   UNL     1       0.992  -4.761  -1.461  0.00  0.00    +0.136 C 
BRANCH  24  25
ATOM     25  N   UNL     1       1.973  -4.726  -0.368  0.00  0.00    -0.295 NA
ATOM     26  C   UNL     1       1.937  -5.965   0.408  0.00  0.00    +0.086 C 
ATOM     27  C   UNL     1       3.339  -6.305   0.864  0.00  0.00    +0.034 C 
ATOM     28  C   UNL     1       3.588  -5.705   2.258  0.00  0.00    +0.109 C 
ATOM     29  N   UNL     1       3.002  -4.356   2.374  0.00  0.00    -0.300 N 
ATOM     30  C   UNL     1       3.088  -3.375   1.311  0.00  0.00    +0.123 C 
ATOM     31  C   UNL     1       1.872  -3.522   0.366  0.00  0.00    +0.103 C 
ATOM     32  C   UNL     1       2.362  -4.023   3.513  0.00  0.00    +0.216 C 
ATOM     33  O   UNL     1       1.872  -2.920   3.633  0.00  0.00    -0.276 OA
BRANCH  32  34
ATOM     34  C   UNL     1       2.255  -5.021   4.637  0.00  0.00    +0.099 C 
BRANCH  34  35
ATOM     35  C   UNL     1       1.487  -4.396   5.803  0.00  0.00    -0.008 C 
ATOM     36  C   UNL     1       0.046  -4.116   5.372  0.00  0.00    +0.008 C 
ATOM     37  C   UNL     1       1.486  -5.362   6.989  0.00  0.00    +0.008 C 
ENDBRANCH  34  35
ENDBRANCH  32  34
ENDBRANCH  24  25
ENDBRANCH   2  24
TORSDOF 10
