REMARK  Name = ZINC40685252
REMARK  6 active torsions:
REMARK  status: ('A' for Active; 'I' for Inactive)
REMARK    1  A    between atoms: C_1  and  C_2
REMARK    2  A    between atoms: C_6  and  N_8
REMARK    3  A    between atoms: C_10  and  N_26
REMARK    4  A    between atoms: C_11  and  N_15
REMARK    5  A    between atoms: N_15  and  C_16
REMARK    6  A    between atoms: C_21  and  C_22
REMARK                            x       y       z     vdW  Elec       q    Type
REMARK                         _______ _______ _______ _____ _____    ______ ____
ROOT
ATOM      1  N   UNL     1      -0.795  -2.655   2.405  0.00  0.00    -0.283 N 
ATOM      2  C   UNL     1      -0.641  -4.036   2.459  0.00  0.00    +0.150 A 
ATOM      3  C   UNL     1      -0.559  -4.692   3.689  0.00  0.00    +0.106 A 
ATOM      4  C   UNL     1      -0.405  -6.080   3.687  0.00  0.00    +0.149 A 
ATOM      5  N   UNL     1      -0.344  -6.720   2.521  0.00  0.00    -0.219 NA
ATOM      6  C   UNL     1      -0.426  -6.062   1.382  0.00  0.00    +0.225 A 
ATOM      7  N   UNL     1      -0.576  -4.753   1.341  0.00  0.00    -0.219 NA
ATOM      8  H   UNL     1      -0.786  -2.133   3.223  0.00  0.00    +0.155 HD
ENDROOT
BRANCH   1  14
ATOM      9  C   UNL     1      -0.864  -2.996  -2.370  0.00  0.00    +0.065 C 
ATOM     10  C   UNL     1      -1.001  -2.157  -1.126  0.00  0.00    +0.040 A 
ATOM     11  C   UNL     1      -1.283  -0.810  -1.240  0.00  0.00    +0.023 A 
ATOM     12  C   UNL     1      -1.408  -0.042  -0.090  0.00  0.00    +0.005 A 
ATOM     13  C   UNL     1      -1.245  -0.660   1.137  0.00  0.00    +0.044 A 
ATOM     14  C   UNL     1      -0.962  -2.021   1.178  0.00  0.00    +0.124 A 
ATOM     15  N   UNL     1      -0.856  -2.720   0.058  0.00  0.00    -0.237 NA
ENDBRANCH   1  14
BRANCH   3  16
ATOM     16  N   UNL     1      -0.628  -3.977   4.895  0.00  0.00    -0.353 N 
ATOM     17  H   UNL     1      -0.735  -3.012   4.881  0.00  0.00    +0.143 HD
ATOM     18  H   UNL     1      -0.570  -4.446   5.741  0.00  0.00    +0.143 HD
ENDBRANCH   3  16
BRANCH   4  19
ATOM     19  N   UNL     1      -0.318  -6.783   4.883  0.00  0.00    -0.297 N 
ATOM     20  H   UNL     1      -0.271  -6.303   5.725  0.00  0.00    +0.154 HD
BRANCH  19  21
ATOM     21  C   UNL     1      -0.296  -8.180   4.873  0.00  0.00    +0.044 A 
ATOM     22  C   UNL     1      -0.883  -8.877   3.825  0.00  0.00    +0.024 A 
ATOM     23  C   UNL     1      -0.861 -10.258   3.817  0.00  0.00    +0.002 A 
ATOM     24  C   UNL     1      -0.254 -10.947   4.853  0.00  0.00    +0.001 A 
ATOM     25  C   UNL     1       0.331 -10.255   5.897  0.00  0.00    +0.014 A 
ATOM     26  C   UNL     1       0.317  -8.874   5.908  0.00  0.00    +0.076 A 
BRANCH  26  27
ATOM     27  C   UNL     1       0.961  -8.122   7.043  0.00  0.00    +0.419 C 
ATOM     28  F   UNL     1       1.507  -9.032   7.955  0.00  0.00    -0.166 F 
ATOM     29  F   UNL     1       1.975  -7.299   6.542  0.00  0.00    -0.166 F 
ATOM     30  F   UNL     1      -0.001  -7.337   7.688  0.00  0.00    -0.166 F 
ENDBRANCH  26  27
ENDBRANCH  19  21
ENDBRANCH   4  19
TORSDOF 5
