REMARK  Name = ZINC36555614
REMARK  15 active torsions:
REMARK  status: ('A' for Active; 'I' for Inactive)
REMARK    1  A    between atoms: C_1  and  C_2
REMARK    2  A    between atoms: C_2  and  C_3
REMARK    3  A    between atoms: C_3  and  C_4
REMARK    4  A    between atoms: C_4  and  N_5
REMARK    5  A    between atoms: C_6  and  C_8
REMARK    6  A    between atoms: C_8  and  C_10
REMARK    7  A    between atoms: C_8  and  N_22
REMARK    8  A    between atoms: C_19  and  O_20
REMARK    9  A    between atoms: O_20  and  C_21
REMARK   10  A    between atoms: N_22  and  C_23
REMARK   11  A    between atoms: C_23  and  C_24
REMARK   12  A    between atoms: C_27  and  C_29
REMARK   13  A    between atoms: C_30  and  C_32
REMARK   14  A    between atoms: C_37  and  O_38
REMARK   15  A    between atoms: O_38  and  C_39
REMARK                            x       y       z     vdW  Elec       q    Type
REMARK                         _______ _______ _______ _____ _____    ______ ____
ROOT
ATOM      1  C   UNL     1       2.444  -4.424   4.126  0.00  0.00    +0.197 C 
ENDROOT
BRANCH   1   2
ATOM      2  C   UNL     1       1.534  -3.997   5.249  0.00  0.00    +0.031 A 
ATOM      3  C   UNL     1       2.027  -3.196   6.292  0.00  0.00    -0.009 A 
ATOM      4  C   UNL     1       3.369  -2.776   6.317  0.00  0.00    +0.009 A 
ATOM      5  C   UNL     1       3.812  -2.001   7.344  0.00  0.00    +0.001 A 
ATOM      6  C   UNL     1       2.957  -1.615   8.374  0.00  0.00    +0.001 A 
ATOM      7  C   UNL     1       1.652  -2.003   8.383  0.00  0.00    +0.008 A 
ATOM      8  C   UNL     1       1.157  -2.804   7.340  0.00  0.00    -0.017 A 
ATOM      9  C   UNL     1      -0.185  -3.222   7.316  0.00  0.00    +0.012 A 
ATOM     10  C   UNL     1      -0.632  -3.997   6.292  0.00  0.00    +0.046 A 
ATOM     11  C   UNL     1       0.223  -4.381   5.255  0.00  0.00    +0.126 A 
BRANCH  11  12
ATOM     12  O   UNL     1      -0.254  -5.151   4.242  0.00  0.00    -0.495 OA
ATOM     13  C   UNL     1      -1.605  -5.603   4.352  0.00  0.00    +0.277 C 
ENDBRANCH  11  12
ENDBRANCH   1   2
BRANCH   1  15
ATOM     14  N   UNL     1       2.630  -2.390   2.731  0.00  0.00    -0.313 N 
ATOM     15  C   UNL     1       2.121  -3.628   2.888  0.00  0.00    +0.238 C 
ATOM     16  O   UNL     1       1.403  -4.102   2.033  0.00  0.00    -0.273 OA
ATOM     17  H   UNL     1       3.204  -2.011   3.414  0.00  0.00    +0.149 HD
BRANCH  14  18
ATOM     18  C   UNL     1       2.316  -1.617   1.526  0.00  0.00    +0.104 C 
BRANCH  18  19
ATOM     19  C   UNL     1       3.014  -0.257   1.597  0.00  0.00    +0.018 C 
BRANCH  19  21
ATOM     20  C   UNL     1       3.384   1.911   0.411  0.00  0.00    +0.004 C 
ATOM     21  C   UNL     1       2.686   0.551   0.340  0.00  0.00    -0.002 C 
ENDBRANCH  19  21
ENDBRANCH  18  19
ENDBRANCH  14  18
ENDBRANCH   1  15
BRANCH   1  22
ATOM     22  N   UNL     1       2.248  -5.850   3.855  0.00  0.00    -0.274 N 
ATOM     23  C   UNL     1       2.572  -6.357   2.649  0.00  0.00    +0.251 C 
ATOM     24  O   UNL     1       2.288  -7.508   2.377  0.00  0.00    -0.270 OA
BRANCH  23  25
ATOM     25  C   UNL     1       3.270  -5.516   1.658  0.00  0.00    +0.078 A 
ATOM     26  C   UNL     1       3.938  -4.358   2.065  0.00  0.00    +0.017 A 
ATOM     27  C   UNL     1       4.588  -3.577   1.135  0.00  0.00    +0.001 A 
ATOM     28  C   UNL     1       4.584  -3.935  -0.203  0.00  0.00    +0.004 A 
ATOM     29  C   UNL     1       3.928  -5.076  -0.620  0.00  0.00    +0.046 A 
ATOM     30  C   UNL     1       3.272  -5.877   0.304  0.00  0.00    +0.132 A 
BRANCH  30  31
ATOM     31  O   UNL     1       2.631  -7.001  -0.103  0.00  0.00    -0.494 OA
ATOM     32  C   UNL     1       2.676  -7.305  -1.498  0.00  0.00    +0.277 C 
ENDBRANCH  30  31
ENDBRANCH  23  25
BRANCH  22  33
ATOM     33  C   UNL     1       1.702  -6.725   4.895  0.00  0.00    +0.183 C 
BRANCH  33  34
ATOM     34  C   UNL     1       2.786  -7.070   5.883  0.00  0.00    +0.122 A 
ATOM     35  C   UNL     1       3.039  -6.420   7.033  0.00  0.00    +0.046 A 
ATOM     36  C   UNL     1       4.133  -7.075   7.643  0.00  0.00    +0.045 A 
ATOM     37  C   UNL     1       4.484  -8.086   6.829  0.00  0.00    +0.102 A 
ATOM     38  O   UNL     1       3.662  -8.082   5.767  0.00  0.00    -0.463 OA
ATOM     39  C   UNL     1       5.607  -9.062   7.069  0.00  0.00    +0.086 C 
ENDBRANCH  33  34
ENDBRANCH  22  33
ENDBRANCH   1  22
TORSDOF 11
