REMARK  Name = ZINC42667327
REMARK  10 active torsions:
REMARK  status: ('A' for Active; 'I' for Inactive)
REMARK    1  A    between atoms: C_1  and  C_2
REMARK    2  A    between atoms: C_2  and  C_4
REMARK    3  A    between atoms: C_2  and  N_16
REMARK    4  A    between atoms: N_6  and  C_7
REMARK    5  A    between atoms: C_12  and  C_13
REMARK    6  A    between atoms: C_13  and  C_14
REMARK    7  A    between atoms: C_13  and  C_15
REMARK    8  A    between atoms: N_16  and  C_17
REMARK    9  A    between atoms: C_20  and  N_23
REMARK   10  A    between atoms: N_26  and  C_27
REMARK                            x       y       z     vdW  Elec       q    Type
REMARK                         _______ _______ _______ _____ _____    ______ ____
ROOT
ATOM      1  N   UNL     1       1.011  -0.217   0.596  0.00  0.00    -0.333 N 
ATOM      2  H   UNL     1       1.918  -0.530   0.734  0.00  0.00    +0.147 HD
ENDROOT
BRANCH   1   3
ATOM      3  C   UNL     1       0.076  -0.299   1.633  0.00  0.00    +0.028 A 
ATOM      4  C   UNL     1      -1.225   0.145   1.433  0.00  0.00    +0.025 A 
ATOM      5  C   UNL     1      -2.147   0.064   2.457  0.00  0.00    +0.025 A 
ATOM      6  C   UNL     1      -1.775  -0.461   3.687  0.00  0.00    +0.035 A 
ATOM      7  C   UNL     1      -0.474  -0.905   3.888  0.00  0.00    +0.025 A 
ATOM      8  C   UNL     1       0.447  -0.829   2.862  0.00  0.00    +0.025 A 
BRANCH   6   9
ATOM      9  N   UNL     1      -2.711  -0.543   4.727  0.00  0.00    -0.269 N 
ATOM     10  C   UNL     1      -4.027  -0.625   4.445  0.00  0.00    +0.304 C 
ATOM     11  O   UNL     1      -4.395  -0.733   3.291  0.00  0.00    -0.253 OA
ATOM     12  N   UNL     1      -4.933  -0.587   5.441  0.00  0.00    -0.296 N 
ATOM     13  H   UNL     1      -2.413  -0.541   5.650  0.00  0.00    +0.156 HD
ATOM     14  H   UNL     1      -4.639  -0.501   6.361  0.00  0.00    +0.151 HD
BRANCH  12  15
ATOM     15  C   UNL     1      -6.363  -0.676   5.134  0.00  0.00    +0.075 C 
ATOM     16  C   UNL     1      -7.304   0.280   5.869  0.00  0.00    +0.024 C 
ATOM     17  C   UNL     1      -7.289  -1.207   6.230  0.00  0.00    +0.024 C 
ENDBRANCH  12  15
ENDBRANCH   6   9
ENDBRANCH   1   3
BRANCH   1  19
ATOM     18  C   UNL     1       0.750   1.866  -0.659  0.00  0.00    +0.038 C 
ATOM     19  C   UNL     1       0.619   0.343  -0.701  0.00  0.00    +0.154 C 
BRANCH  19  20
ATOM     20  C   UNL     1       1.517  -0.209  -1.778  0.00  0.00    +0.237 C 
ATOM     21  O   UNL     1       2.397  -0.993  -1.491  0.00  0.00    -0.273 OA
ATOM     22  N   UNL     1       1.341   0.168  -3.060  0.00  0.00    -0.284 N 
ATOM     23  H   UNL     1       0.588   0.728  -3.302  0.00  0.00    +0.155 HD
BRANCH  22  24
ATOM     24  C   UNL     1       2.247  -0.249  -4.042  0.00  0.00    +0.037 A 
ATOM     25  C   UNL     1       3.548  -0.584  -3.691  0.00  0.00    +0.023 A 
ATOM     26  C   UNL     1       4.440  -0.995  -4.662  0.00  0.00    +0.002 A 
ATOM     27  C   UNL     1       4.038  -1.073  -5.984  0.00  0.00    +0.000 A 
ATOM     28  C   UNL     1       2.743  -0.740  -6.336  0.00  0.00    +0.006 A 
ATOM     29  C   UNL     1       1.845  -0.334  -5.368  0.00  0.00    -0.024 A 
BRANCH  29  30
ATOM     30  C   UNL     1       0.431   0.022  -5.752  0.00  0.00    +0.015 C 
ATOM     31  C   UNL     1       0.454   1.094  -6.843  0.00  0.00    +0.012 C 
ATOM     32  C   UNL     1      -0.284  -1.225  -6.277  0.00  0.00    +0.012 C 
ENDBRANCH  29  30
ENDBRANCH  22  24
ENDBRANCH  19  20
ENDBRANCH   1  19
TORSDOF 7
