REMARK  Name = ZINC23083248
REMARK  6 active torsions:
REMARK  status: ('A' for Active; 'I' for Inactive)
REMARK    1  A    between atoms: C_5  and  C_6
REMARK    2  A    between atoms: C_6  and  N_7
REMARK    3  A    between atoms: N_10  and  C_13
REMARK    4  A    between atoms: C_13  and  C_14
REMARK    5  A    between atoms: N_16  and  C_17
REMARK    6  A    between atoms: C_18  and  C_25
REMARK                            x       y       z     vdW  Elec       q    Type
REMARK                         _______ _______ _______ _____ _____    ______ ____
ROOT
ATOM      1  C   UNL     1       5.009  -3.085  -5.723  0.00  0.00    +0.201 C 
ATOM      2  O   UNL     1       4.059  -3.577  -5.152  0.00  0.00    -0.278 OA
ATOM      3  N   UNL     1       5.305  -3.459  -6.984  0.00  0.00    -0.281 N 
ATOM      4  H   UNL     1       6.167  -3.012  -7.502  0.00  0.00    +0.155 HD
ENDROOT
BRANCH   3   5
ATOM      5  C   UNL     1       4.523  -4.406  -7.628  0.00  0.00    +0.084 A 
ATOM      6  C   UNL     1       4.663  -4.909  -8.909  0.00  0.00    +0.068 A 
ATOM      7  C   UNL     1       3.697  -5.915  -9.351  0.00  0.00    -0.023 A 
ATOM      8  C   UNL     1       2.756  -6.238  -8.446  0.00  0.00    -0.004 A 
ATOM      9  S   UNL     1       3.132  -5.241  -7.026  0.00  0.00    -0.077 S 
ATOM     10  C   UNL     1       1.799  -7.274  -8.973  0.00  0.00    +0.043 C 
ATOM     11  C   UNL     1       2.522  -7.886 -10.194  0.00  0.00    +0.010 C 
ATOM     12  C   UNL     1       3.450  -6.731 -10.620  0.00  0.00    +0.037 C 
BRANCH   6  13
ATOM     13  C   UNL     1       5.742  -4.454  -9.791  0.00  0.00    +0.244 C 
ATOM     14  O   UNL     1       6.814  -5.030  -9.789  0.00  0.00    -0.270 OA
ATOM     15  N   UNL     1       5.547  -3.397 -10.604  0.00  0.00    -0.325 N 
ATOM     16  H   UNL     1       6.357  -3.055 -11.266  0.00  0.00    +0.145 HD
ATOM     17  H   UNL     1       4.578  -2.875 -10.606  0.00  0.00    +0.145 HD
ENDBRANCH   6  13
ENDBRANCH   3   5
BRANCH   1  18
ATOM     18  C   UNL     1       5.859  -2.055  -5.024  0.00  0.00    +0.019 C 
BRANCH  18  22
ATOM     19  N   UNL     1       5.803  -1.873  -0.804  0.00  0.00    -0.301 NA
ATOM     20  C   UNL     1       5.528  -0.637  -1.550  0.00  0.00    +0.066 C 
ATOM     21  C   UNL     1       6.063  -0.777  -2.977  0.00  0.00    -0.063 C 
ATOM     22  N   UNL     1       5.427  -1.933  -3.625  0.00  0.00    +0.387 N 
ATOM     23  C   UNL     1       5.702  -3.168  -2.879  0.00  0.00    -0.063 C 
ATOM     24  C   UNL     1       5.167  -3.029  -1.452  0.00  0.00    +0.066 C 
ATOM     25  H   UNL     1       4.340  -1.768  -3.622  0.00  0.00    -0.081 HD
BRANCH  19  26
ATOM     26  C   UNL     1       5.372  -1.751   0.595  0.00  0.00    +0.126 C 
BRANCH  26  31
ATOM     27  C   UNL     1       6.013   0.616   1.412  0.00  0.00    +0.014 A 
ATOM     28  C   UNL     1       6.934   1.378   2.105  0.00  0.00    +0.028 A 
ATOM     29  C   UNL     1       8.018   0.767   2.647  0.00  0.00    +0.078 A 
ATOM     30  S   UNL     1       7.753  -0.935   2.179  0.00  0.00    -0.080 S 
ATOM     31  C   UNL     1       6.218  -0.718   1.294  0.00  0.00    +0.005 A 
ATOM     32 CL   UNL     1       9.325   1.461   3.553  0.00  0.00    -0.076 Cl
ENDBRANCH  26  31
ENDBRANCH  19  26
ENDBRANCH  18  22
ENDBRANCH   1  18
TORSDOF 6
