REMARK  Name = ZINC09578391
REMARK  8 active torsions:
REMARK  status: ('A' for Active; 'I' for Inactive)
REMARK    1  A    between atoms: C_1  and  C_2
REMARK    2  A    between atoms: C_12  and  C_14
REMARK    3  A    between atoms: C_14  and  S_15
REMARK    4  A    between atoms: S_15  and  C_16
REMARK    5  A    between atoms: C_22  and  C_25
REMARK    6  A    between atoms: C_25  and  C_26
REMARK    7  A    between atoms: C_26  and  N_27
REMARK    8  A    between atoms: C_28  and  C_30
REMARK                            x       y       z     vdW  Elec       q    Type
REMARK                         _______ _______ _______ _____ _____    ______ ____
ROOT
ATOM      1  C   UNL     1       9.488   5.788  -0.058  0.00  0.00    +0.118 A 
ATOM      2  C   UNL     1       9.888   7.139  -0.055  0.00  0.00    +0.040 A 
ATOM      3  C   UNL     1      11.209   7.458  -0.066  0.00  0.00    +0.053 A 
ATOM      4  C   UNL     1      12.164   6.424  -0.080  0.00  0.00    +0.178 A 
ATOM      5  N   UNL     1      13.488   6.400  -0.093  0.00  0.00    -0.128 NA
ATOM      6  N   UNL     1      13.889   5.177  -0.103  0.00  0.00    -0.132 NA
ATOM      7  C   UNL     1      12.862   4.364  -0.098  0.00  0.00    +0.157 A 
ATOM      8  N   UNL     1      11.742   5.118  -0.083  0.00  0.00    -0.196 N 
ATOM      9  N   UNL     1      10.378   4.823  -0.067  0.00  0.00    -0.157 NA
ENDROOT
BRANCH   1  10
ATOM     10  S   UNL     1       7.771   5.389  -0.044  0.00  0.00    -0.095 S 
BRANCH  10  11
ATOM     11  C   UNL     1       7.742   3.576  -0.053  0.00  0.00    +0.172 C 
BRANCH  11  23
ATOM     12  C   UNL     1      -1.288  -0.783   0.011  0.00  0.00    +0.044 C 
ATOM     13  C   UNL     1       0.002  -0.004   0.002  0.00  0.00    -0.049 A 
ATOM     14  C   UNL     1      -0.017   1.383   0.010  0.00  0.00    +0.005 A 
ATOM     15  C   UNL     1       1.142   2.115   0.003  0.00  0.00    +0.029 A 
ATOM     16  C   UNL     1       2.402   1.474  -0.013  0.00  0.00    +0.080 A 
ATOM     17  C   UNL     1       2.382   0.060  -0.020  0.00  0.00    +0.041 A 
ATOM     18  C   UNL     1       1.217  -0.665  -0.013  0.00  0.00    +0.020 A 
ATOM     19  S   UNL     1       4.113  -0.342  -0.039  0.00  0.00    -0.052 S 
ATOM     20  C   UNL     1       4.733   1.335  -0.036  0.00  0.00    +0.165 A 
ATOM     21  N   UNL     1       3.627   2.042  -0.021  0.00  0.00    -0.225 NA
ATOM     22  N   UNL     1       6.046   1.775  -0.046  0.00  0.00    -0.264 N 
ATOM     23  C   UNL     1       6.314   3.096  -0.042  0.00  0.00    +0.229 C 
ATOM     24  O   UNL     1       5.405   3.899  -0.029  0.00  0.00    -0.275 OA
ATOM     25  H   UNL     1       6.773   1.133  -0.057  0.00  0.00    +0.157 HD
ENDBRANCH  11  23
ENDBRANCH  10  11
ENDBRANCH   1  10
BRANCH   7  26
ATOM     26  C   UNL     1      12.920   2.858  -0.107  0.00  0.00    +0.097 C 
BRANCH  26  27
ATOM     27  C   UNL     1      12.953   2.340   1.333  0.00  0.00    +0.112 C 
BRANCH  27  28
ATOM     28  N   UNL     1      13.009   0.876   1.324  0.00  0.00    -0.311 N 
ATOM     29  C   UNL     1      13.045   0.197   2.488  0.00  0.00    +0.244 C 
ATOM     30  O   UNL     1      13.031   0.798   3.544  0.00  0.00    -0.270 OA
ATOM     31  H   UNL     1      13.020   0.396   0.482  0.00  0.00    +0.149 HD
BRANCH  29  32
ATOM     32  C   UNL     1      13.102  -1.280   2.479  0.00  0.00    +0.037 A 
ATOM     33  C   UNL     1      13.112  -1.975   1.268  0.00  0.00    +0.013 A 
ATOM     34  C   UNL     1      13.170  -3.353   1.267  0.00  0.00    +0.001 A 
ATOM     35  C   UNL     1      13.207  -4.048   2.463  0.00  0.00    +0.000 A 
ATOM     36  C   UNL     1      13.192  -3.366   3.667  0.00  0.00    +0.001 A 
ATOM     37  C   UNL     1      13.140  -1.987   3.682  0.00  0.00    +0.013 A 
ENDBRANCH  29  32
ENDBRANCH  27  28
ENDBRANCH  26  27
ENDBRANCH   7  26
TORSDOF 7
