REMARK  Name = ZINC08686091
REMARK  12 active torsions:
REMARK  status: ('A' for Active; 'I' for Inactive)
REMARK    1  A    between atoms: C_1  and  C_2
REMARK    2  A    between atoms: C_2  and  C_3
REMARK    3  A    between atoms: C_3  and  C_5
REMARK    4  A    between atoms: C_3  and  N_12
REMARK    5  A    between atoms: N_7  and  C_8
REMARK    6  A    between atoms: C_8  and  C_9
REMARK    7  A    between atoms: C_8  and  C_10
REMARK    8  A    between atoms: C_8  and  C_11
REMARK    9  A    between atoms: N_12  and  C_13
REMARK   10  A    between atoms: C_23  and  C_25
REMARK   11  A    between atoms: C_25  and  N_26
REMARK   12  A    between atoms: C_28  and  C_31
REMARK                            x       y       z     vdW  Elec       q    Type
REMARK                         _______ _______ _______ _____ _____    ______ ____
ROOT
ATOM      1  N   UNL     1      -1.988  -0.047   1.391  0.00  0.00    -0.258 N 
ATOM      2  C   UNL     1      -3.055   0.776   1.379  0.00  0.00    +0.244 C 
ATOM      3  O   UNL     1      -3.527   1.141   0.323  0.00  0.00    -0.273 OA
ENDROOT
BRANCH   1   4
ATOM      4  C   UNL     1      -1.443  -0.469   2.608  0.00  0.00    +0.041 A 
ATOM      5  C   UNL     1      -1.865  -1.661   3.176  0.00  0.00    +0.024 A 
ATOM      6  C   UNL     1      -1.325  -2.074   4.379  0.00  0.00    +0.002 A 
ATOM      7  C   UNL     1      -0.374  -1.297   5.008  0.00  0.00    +0.004 A 
ATOM      8  C   UNL     1       0.052  -0.101   4.444  0.00  0.00    -0.042 A 
ATOM      9  C   UNL     1      -0.474   0.311   3.241  0.00  0.00    -0.023 A 
ATOM     10  C   UNL     1      -0.045   1.584   2.561  0.00  0.00    +0.037 C 
ATOM     11  C   UNL     1       0.666   2.508   3.549  0.00  0.00    +0.005 C 
ATOM     12  C   UNL     1       1.763   1.705   4.258  0.00  0.00    +0.005 C 
ATOM     13  C   UNL     1       1.088   0.697   5.191  0.00  0.00    +0.035 C 
ENDBRANCH   1   4
BRANCH   1  14
ATOM     14  C   UNL     1      -1.399  -0.502   0.128  0.00  0.00    +0.167 C 
BRANCH  14  15
ATOM     15  C   UNL     1      -1.320  -2.006   0.124  0.00  0.00    +0.234 C 
ATOM     16  O   UNL     1      -1.807  -2.642   1.035  0.00  0.00    -0.274 OA
ATOM     17  N   UNL     1      -0.707  -2.646  -0.892  0.00  0.00    -0.309 N 
ATOM     18  H   UNL     1      -0.317  -2.138  -1.620  0.00  0.00    +0.149 HD
BRANCH  17  19
ATOM     19  C   UNL     1      -0.630  -4.109  -0.896  0.00  0.00    +0.026 C 
ATOM     20  C   UNL     1      -2.043  -4.694  -0.890  0.00  0.00    +0.031 C 
ATOM     21  C   UNL     1       0.110  -4.577  -2.151  0.00  0.00    +0.031 C 
ATOM     22  C   UNL     1       0.124  -4.583   0.348  0.00  0.00    +0.031 C 
ENDBRANCH  17  19
ENDBRANCH  14  15
BRANCH  14  24
ATOM     23  C   UNL     1      -0.091   1.593  -0.249  0.00  0.00    +0.006 C 
ATOM     24  C   UNL     1       0.006   0.084  -0.019  0.00  0.00    +0.029 C 
ENDBRANCH  14  24
ENDBRANCH   1  14
BRANCH   2  25
ATOM     25  C   UNL     1      -3.660   1.244   2.677  0.00  0.00    +0.264 C 
BRANCH  25  26
ATOM     26  N   UNL     1      -4.799   2.122   2.397  0.00  0.00    -0.154 N 
ATOM     27  N   UNL     1      -4.734   3.401   2.249  0.00  0.00    -0.130 NA
ATOM     28  C   UNL     1      -5.954   3.841   2.010  0.00  0.00    +0.207 A 
ATOM     29  N   UNL     1      -6.758   2.769   2.019  0.00  0.00    -0.108 NA
ATOM     30  N   UNL     1      -6.019   1.738   2.254  0.00  0.00    -0.045 NA
BRANCH  28  31
ATOM     31  C   UNL     1      -6.358   5.250   1.775  0.00  0.00    +0.058 A 
ATOM     32  C   UNL     1      -5.402   6.263   1.790  0.00  0.00    +0.014 A 
ATOM     33  C   UNL     1      -5.782   7.572   1.571  0.00  0.00    +0.001 A 
ATOM     34  C   UNL     1      -7.111   7.879   1.337  0.00  0.00    +0.003 A 
ATOM     35  C   UNL     1      -8.065   6.880   1.321  0.00  0.00    +0.039 A 
ATOM     36  C   UNL     1      -7.695   5.564   1.533  0.00  0.00    +0.134 A 
ATOM     37  F   UNL     1      -8.627   4.586   1.512  0.00  0.00    -0.205 F 
ENDBRANCH  28  31
ENDBRANCH  25  26
ENDBRANCH   2  25
TORSDOF 8
