REMARK  Name = ZINC39966634
REMARK  8 active torsions:
REMARK  status: ('A' for Active; 'I' for Inactive)
REMARK    1  A    between atoms: C_2  and  C_3
REMARK    2  A    between atoms: C_3  and  N_4
REMARK    3  A    between atoms: C_5  and  C_23
REMARK    4  A    between atoms: C_8  and  S_9
REMARK    5  A    between atoms: S_9  and  C_10
REMARK    6  A    between atoms: C_10  and  C_11
REMARK    7  A    between atoms: N_13  and  C_14
REMARK    8  A    between atoms: C_19  and  N_20
REMARK                            x       y       z     vdW  Elec       q    Type
REMARK                         _______ _______ _______ _____ _____    ______ ____
ROOT
ATOM      1  N   UNL     1      -1.212  -1.756  -1.538  0.00  0.00    -0.298 N 
ATOM      2  C   UNL     1      -1.896  -1.659  -2.728  0.00  0.00    +0.166 A 
ATOM      3  N   UNL     1      -1.811  -2.829  -3.317  0.00  0.00    -0.128 NA
ATOM      4  N   UNL     1      -1.131  -3.640  -2.588  0.00  0.00    -0.122 NA
ATOM      5  C   UNL     1      -0.735  -3.037  -1.491  0.00  0.00    +0.193 A 
ENDROOT
BRANCH   2   6
ATOM      6  C   UNL     1      -2.594  -0.463  -3.246  0.00  0.00    +0.030 A 
ATOM      7  C   UNL     1      -3.437   0.242  -2.437  0.00  0.00    +0.057 A 
ATOM      8  S   UNL     1      -3.989   1.542  -3.528  0.00  0.00    -0.101 S 
ATOM      9  C   UNL     1      -3.065   1.065  -4.966  0.00  0.00    -0.006 A 
ATOM     10  C   UNL     1      -2.389  -0.043  -4.575  0.00  0.00    -0.026 A 
ATOM     11  C   UNL     1      -1.470  -0.807  -5.524  0.00  0.00    +0.036 C 
ATOM     12  C   UNL     1      -0.932   0.132  -6.597  0.00  0.00    +0.005 C 
ATOM     13  C   UNL     1      -1.865   0.162  -7.806  0.00  0.00    +0.001 C 
ATOM     14  C   UNL     1      -3.231   0.709  -7.401  0.00  0.00    +0.005 C 
ATOM     15  C   UNL     1      -3.032   1.746  -6.296  0.00  0.00    +0.043 C 
ENDBRANCH   2   6
BRANCH   1  16
ATOM     16  C   UNL     1      -1.029  -0.705  -0.535  0.00  0.00    +0.152 C 
BRANCH  16  18
ATOM     17  C   UNL     1       0.309   1.299  -0.931  0.00  0.00    +0.005 C 
ATOM     18  C   UNL     1       0.282  -0.002  -0.778  0.00  0.00    -0.013 C 
ENDBRANCH  16  18
ENDBRANCH   1  16
BRANCH   5  19
ATOM     19  S   UNL     1       0.229  -3.746  -0.198  0.00  0.00    -0.077 S 
BRANCH  19  20
ATOM     20  C   UNL     1       0.522  -5.448  -0.752  0.00  0.00    +0.173 C 
BRANCH  20  21
ATOM     21  C   UNL     1       1.347  -6.176   0.278  0.00  0.00    +0.228 C 
ATOM     22  O   UNL     1       1.702  -5.604   1.286  0.00  0.00    -0.275 OA
ATOM     23  N   UNL     1       1.691  -7.464   0.078  0.00  0.00    -0.283 N 
ATOM     24  H   UNL     1       1.472  -7.900  -0.761  0.00  0.00    +0.155 HD
BRANCH  23  25
ATOM     25  C   UNL     1       2.363  -8.173   1.080  0.00  0.00    +0.064 A 
ATOM     26  C   UNL     1       2.199  -7.818   2.413  0.00  0.00    +0.025 A 
ATOM     27  C   UNL     1       2.863  -8.519   3.399  0.00  0.00    +0.002 A 
ATOM     28  C   UNL     1       3.692  -9.574   3.062  0.00  0.00    +0.002 A 
ATOM     29  C   UNL     1       3.857  -9.929   1.736  0.00  0.00    +0.034 A 
ATOM     30  C   UNL     1       3.191  -9.236   0.745  0.00  0.00    +0.147 A 
BRANCH  30  31
ATOM     31  N   UNL     1       3.363  -9.622  -0.674  0.00  0.00    +0.058 N 
ATOM     32  O   UNL     1       3.999 -10.610  -0.958  0.00  0.00    -0.126 OA
ATOM     33  O   UNL     1       2.868  -8.949  -1.548  0.00  0.00    -0.126 OA
ENDBRANCH  30  31
ENDBRANCH  23  25
ENDBRANCH  20  21
ENDBRANCH  19  20
ENDBRANCH   5  19
TORSDOF 8
