REMARK  Name = ZINC06198122
REMARK  14 active torsions:
REMARK  status: ('A' for Active; 'I' for Inactive)
REMARK    1  A    between atoms: C_1  and  C_2
REMARK    2  A    between atoms: C_2  and  C_3
REMARK    3  A    between atoms: C_10  and  C_15
REMARK    4  A    between atoms: C_15  and  C_17
REMARK    5  A    between atoms: C_15  and  N_72
REMARK    6  A    between atoms: N_21  and  C_22
REMARK    7  A    between atoms: C_22  and  C_23
REMARK    8  A    between atoms: C_22  and  C_24
REMARK    9  A    between atoms: C_22  and  C_25
REMARK   10  A    between atoms: C_26  and  C_27
REMARK   11  A    between atoms: C_26  and  N_72
REMARK   12  A    between atoms: C_27  and  C_28
REMARK   13  A    between atoms: C_34  and  C_35
REMARK   14  A    between atoms: C_34  and  N_72
REMARK                            x       y       z     vdW  Elec       q    Type
REMARK                         _______ _______ _______ _____ _____    ______ ____
ROOT
ATOM      1  C   UNL     1       6.553  -0.125  -0.616  0.00  0.00    +0.039 C 
ENDROOT
BRANCH   1   9
ATOM      2  C   UNL     1       0.527  -1.310   0.138  0.00  0.00    -0.047 A 
ATOM      3  C   UNL     1       0.063  -0.186  -0.531  0.00  0.00    +0.005 A 
ATOM      4  C   UNL     1       0.944   0.720  -1.081  0.00  0.00    +0.026 A 
ATOM      5  C   UNL     1       2.314   0.508  -0.964  0.00  0.00    +0.049 A 
ATOM      6  C   UNL     1       2.781  -0.633  -0.285  0.00  0.00    -0.001 A 
ATOM      7  C   UNL     1       1.868  -1.539   0.265  0.00  0.00    +0.013 A 
ATOM      8  C   UNL     1       4.225  -0.847  -0.167  0.00  0.00    +0.017 A 
ATOM      9  C   UNL     1       5.062   0.065  -0.719  0.00  0.00    +0.011 A 
ATOM     10  C   UNL     1       4.542   1.193  -1.390  0.00  0.00    +0.251 A 
ATOM     11  O   UNL     1       5.312   2.001  -1.879  0.00  0.00    -0.268 OA
ATOM     12  N   UNL     1       3.218   1.398  -1.503  0.00  0.00    -0.322 N 
ATOM     13  H   UNL     1       2.884   2.208  -1.985  0.00  0.00    +0.169 HD
BRANCH   2  15
ATOM     14  C   UNL     1      -0.799  -3.358  -0.307  0.00  0.00    +0.009 C 
ATOM     15  C   UNL     1      -0.456  -2.287   0.730  0.00  0.00    +0.032 C 
ENDBRANCH   2  15
ENDBRANCH   1   9
BRANCH   1  16
ATOM     16  C   UNL     1       7.130   0.915   0.309  0.00  0.00    +0.143 A 
ATOM     17  N   UNL     1       7.123   2.213   0.129  0.00  0.00    -0.115 NA
ATOM     18  N   UNL     1       7.710   2.759   1.138  0.00  0.00    -0.023 NA
ATOM     19  N   UNL     1       8.091   1.842   1.958  0.00  0.00    -0.043 NA
ATOM     20  N   UNL     1       7.746   0.692   1.485  0.00  0.00    -0.225 N 
BRANCH  20  21
ATOM     21  C   UNL     1       7.985  -0.612   2.108  0.00  0.00    +0.059 C 
ATOM     22  C   UNL     1       8.840  -1.474   1.177  0.00  0.00    +0.036 C 
ATOM     23  C   UNL     1       8.718  -0.415   3.437  0.00  0.00    +0.036 C 
ATOM     24  C   UNL     1       6.647  -1.309   2.362  0.00  0.00    +0.036 C 
ENDBRANCH  20  21
ENDBRANCH   1  16
BRANCH   1  25
ATOM     25  N   UNL     1       7.147   0.038  -1.960  0.00  0.00    +0.392 N 
ATOM     26  H   UNL     1       6.742   0.871  -2.404  0.00  0.00    -0.080 HD
BRANCH  25  27
ATOM     27  C   UNL     1       8.610   0.217  -1.848  0.00  0.00    -0.072 C 
BRANCH  27  28
ATOM     28  C   UNL     1       9.166   0.605  -3.219  0.00  0.00    +0.016 C 
BRANCH  28  29
ATOM     29  C   UNL     1      10.655   0.811  -3.117  0.00  0.00    -0.049 A 
ATOM     30  C   UNL     1      11.161   2.064  -2.821  0.00  0.00    +0.003 A 
ATOM     31  C   UNL     1      12.527   2.252  -2.722  0.00  0.00    +0.000 A 
ATOM     32  C   UNL     1      13.388   1.191  -2.930  0.00  0.00    +0.000 A 
ATOM     33  C   UNL     1      12.883  -0.060  -3.232  0.00  0.00    +0.000 A 
ATOM     34  C   UNL     1      11.517  -0.250  -3.325  0.00  0.00    +0.003 A 
ENDBRANCH  28  29
ENDBRANCH  27  28
ENDBRANCH  25  27
BRANCH  25  35
ATOM     35  C   UNL     1       6.845  -1.145  -2.793  0.00  0.00    -0.034 C 
BRANCH  35  36
ATOM     36  C   UNL     1       5.439  -1.016  -3.321  0.00  0.00    -0.027 A 
ATOM     37  C   UNL     1       4.966  -0.206  -4.299  0.00  0.00    +0.009 A 
ATOM     38  C   UNL     1       3.623  -0.259  -4.622  0.00  0.00    +0.008 A 
ATOM     39  C   UNL     1       2.819  -1.119  -3.951  0.00  0.00    +0.045 A 
ATOM     40  S   UNL     1       3.967  -1.897  -2.826  0.00  0.00    -0.103 S 
ENDBRANCH  35  36
ENDBRANCH  25  35
ENDBRANCH   1  25
TORSDOF 10
