REMARK  Name = ZINC24094175
REMARK  6 active torsions:
REMARK  status: ('A' for Active; 'I' for Inactive)
REMARK    1  A    between atoms: C_1  and  C_2
REMARK    2  A    between atoms: C_3  and  C_8
REMARK    3  A    between atoms: C_4  and  C_7
REMARK    4  A    between atoms: C_8  and  S_9
REMARK    5  A    between atoms: S_9  and  C_10
REMARK    6  A    between atoms: C_18  and  C_20
REMARK                            x       y       z     vdW  Elec       q    Type
REMARK                         _______ _______ _______ _____ _____    ______ ____
ROOT
ATOM      1  C   UNL     1       3.767   2.891   3.040  0.00  0.00    +0.109 A 
ATOM      2  C   UNL     1       4.852   3.868   2.970  0.00  0.00    +0.032 A 
ATOM      3  C   UNL     1       4.658   5.163   2.483  0.00  0.00    +0.012 A 
ATOM      4  C   UNL     1       5.712   6.031   2.443  0.00  0.00    +0.001 A 
ATOM      5  C   UNL     1       6.974   5.641   2.881  0.00  0.00    +0.002 A 
ATOM      6  C   UNL     1       7.196   4.385   3.361  0.00  0.00    +0.028 A 
ATOM      7  C   UNL     1       6.136   3.469   3.416  0.00  0.00    +0.076 A 
ATOM      8  N   UNL     1       6.297   2.222   3.879  0.00  0.00    -0.227 NA
ATOM      9  C   UNL     1       5.284   1.377   3.921  0.00  0.00    +0.162 A 
ATOM     10  N   UNL     1       4.052   1.688   3.524  0.00  0.00    -0.220 NA
ENDROOT
BRANCH   9  11
ATOM     11  C   UNL     1       5.528   0.014   4.444  0.00  0.00    +0.026 A 
ATOM     12  C   UNL     1       4.495  -0.920   4.517  0.00  0.00    +0.019 A 
ATOM     13  C   UNL     1       4.791  -2.147   5.000  0.00  0.00    +0.046 A 
ATOM     14  S   UNL     1       6.529  -2.002   5.371  0.00  0.00    -0.104 S 
ATOM     15  C   UNL     1       6.771  -0.360   4.872  0.00  0.00    +0.056 A 
ENDBRANCH   9  11
BRANCH   1  16
ATOM     16  S   UNL     1       2.138   3.298   2.508  0.00  0.00    -0.100 S 
BRANCH  16  17
ATOM     17  C   UNL     1       1.298   1.728   2.838  0.00  0.00    +0.116 C 
BRANCH  17  20
ATOM     18  C   UNL     1      -1.184   2.686   4.696  0.00  0.00    +0.069 C 
ATOM     19  C   UNL     1      -1.240   2.259   3.252  0.00  0.00    +0.085 A 
ATOM     20  C   UNL     1      -0.153   1.843   2.449  0.00  0.00    +0.027 A 
ATOM     21  C   UNL     1      -0.718   1.572   1.248  0.00  0.00    +0.138 A 
ATOM     22  O   UNL     1      -2.028   1.826   1.379  0.00  0.00    -0.359 OA
ATOM     23  N   UNL     1      -2.298   2.201   2.496  0.00  0.00    -0.083 NA
ATOM     24  C   UNL     1      -0.013   1.086   0.008  0.00  0.00    +0.089 C 
ENDBRANCH  17  20
ENDBRANCH  16  17
ENDBRANCH   1  16
TORSDOF 4
