REMARK  Name = ZINC13305582
REMARK  10 active torsions:
REMARK  status: ('A' for Active; 'I' for Inactive)
REMARK    1  A    between atoms: C_1  and  O_2
REMARK    2  A    between atoms: O_2  and  C_3
REMARK    3  A    between atoms: C_6  and  C_11
REMARK    4  A    between atoms: C_8  and  O_9
REMARK    5  A    between atoms: O_9  and  C_10
REMARK    6  A    between atoms: C_12  and  C_13
REMARK    7  A    between atoms: C_12  and  N_25
REMARK    8  A    between atoms: N_15  and  N_16
REMARK    9  A    between atoms: C_17  and  C_18
REMARK   10  A    between atoms: C_26  and  C_28
REMARK                            x       y       z     vdW  Elec       q    Type
REMARK                         _______ _______ _______ _____ _____    ______ ____
ROOT
ATOM      1  C   UNL     1      -1.259   2.493  -0.105  0.00  0.00    +0.036 C 
ATOM      2  C   UNL     1      -0.187   1.729   0.215  0.00  0.00    +0.098 C 
ENDROOT
BRANCH   1   6
ATOM      3  C   UNL     1      -5.112   0.732  -0.367  0.00  0.00    +0.162 A 
ATOM      4  C   UNL     1      -3.996   0.026  -0.796  0.00  0.00    +0.050 A 
ATOM      5  C   UNL     1      -2.744   0.595  -0.718  0.00  0.00    +0.012 A 
ATOM      6  C   UNL     1      -2.594   1.885  -0.195  0.00  0.00    -0.019 A 
ATOM      7  C   UNL     1      -3.720   2.596   0.237  0.00  0.00    +0.057 A 
ATOM      8  C   UNL     1      -4.971   2.019   0.150  0.00  0.00    +0.162 A 
BRANCH   3  10
ATOM      9  C   UNL     1      -6.417  -1.155  -0.990  0.00  0.00    +0.277 C 
ATOM     10  O   UNL     1      -6.345   0.166  -0.451  0.00  0.00    -0.491 OA
ENDBRANCH   3  10
BRANCH   8  11
ATOM     11  O   UNL     1      -6.067   2.707   0.569  0.00  0.00    -0.491 OA
ATOM     12  C   UNL     1      -5.850   4.020   1.087  0.00  0.00    +0.277 C 
ENDBRANCH   8  11
ENDBRANCH   1   6
BRANCH   2  13
ATOM     13  C   UNL     1      -0.377   0.330   0.618  0.00  0.00    +0.277 C 
ATOM     14  O   UNL     1      -0.088  -0.569  -0.150  0.00  0.00    -0.267 OA
ATOM     15  N   UNL     1      -0.870   0.041   1.839  0.00  0.00    -0.202 N 
ATOM     16  H   UNL     1      -1.030   0.753   2.478  0.00  0.00    +0.178 HD
BRANCH  15  17
ATOM     17  N   UNL     1      -1.151  -1.287   2.184  0.00  0.00    -0.187 NA
ATOM     18  C   UNL     1      -1.626  -1.565   3.360  0.00  0.00    +0.138 C 
BRANCH  18  19
ATOM     19  C   UNL     1      -1.922  -2.963   3.723  0.00  0.00    -0.004 A 
ATOM     20  C   UNL     1      -2.434  -3.266   4.988  0.00  0.00    +0.009 A 
ATOM     21  C   UNL     1      -2.709  -4.576   5.322  0.00  0.00    +0.002 A 
ATOM     22  C   UNL     1      -2.481  -5.589   4.408  0.00  0.00    +0.020 A 
ATOM     23  C   UNL     1      -1.974  -5.297   3.152  0.00  0.00    +0.042 A 
ATOM     24  C   UNL     1      -1.698  -3.990   2.803  0.00  0.00    +0.029 A 
ATOM     25 CL   UNL     1      -1.692  -6.576   2.013  0.00  0.00    -0.084 Cl
ENDBRANCH  18  19
ENDBRANCH  15  17
ENDBRANCH   2  13
BRANCH   2  26
ATOM     26  N   UNL     1       1.101   2.272   0.157  0.00  0.00    -0.277 N 
ATOM     27  C   UNL     1       2.169   1.504   0.451  0.00  0.00    +0.248 C 
ATOM     28  O   UNL     1       2.024   0.317   0.669  0.00  0.00    -0.270 OA
ATOM     29  H   UNL     1       1.225   3.200  -0.095  0.00  0.00    +0.155 HD
BRANCH  27  30
ATOM     30  C   UNL     1       3.518   2.107   0.510  0.00  0.00    +0.037 A 
ATOM     31  C   UNL     1       3.689   3.468   0.255  0.00  0.00    +0.013 A 
ATOM     32  C   UNL     1       4.950   4.025   0.317  0.00  0.00    +0.001 A 
ATOM     33  C   UNL     1       6.045   3.235   0.620  0.00  0.00    +0.000 A 
ATOM     34  C   UNL     1       5.882   1.883   0.867  0.00  0.00    +0.001 A 
ATOM     35  C   UNL     1       4.627   1.315   0.814  0.00  0.00    +0.013 A 
ENDBRANCH  27  30
ENDBRANCH   2  26
TORSDOF 8
