REMARK  Name = ZINC24952031
REMARK  12 active torsions:
REMARK  status: ('A' for Active; 'I' for Inactive)
REMARK    1  A    between atoms: C_1  and  C_2
REMARK    2  A    between atoms: C_2  and  C_4
REMARK    3  A    between atoms: C_2  and  N_31
REMARK    4  A    between atoms: C_7  and  S_16
REMARK    5  A    between atoms: N_8  and  C_9
REMARK    6  A    between atoms: S_16  and  C_17
REMARK    7  A    between atoms: C_17  and  C_18
REMARK    8  A    between atoms: N_20  and  C_21
REMARK    9  A    between atoms: C_26  and  S_27
REMARK   10  A    between atoms: S_27  and  C_28
REMARK   11  A    between atoms: N_31  and  C_32
REMARK   12  A    between atoms: N_31  and  C_33
REMARK                            x       y       z     vdW  Elec       q    Type
REMARK                         _______ _______ _______ _____ _____    ______ ____
ROOT
ATOM      1  C   UNL     1       1.205   1.745   0.056  0.00  0.00    +0.125 A 
ATOM      2  N   UNL     1      -0.012   1.280   0.061  0.00  0.00    -0.135 NA
ATOM      3  N   UNL     1       0.005  -0.005   0.044  0.00  0.00    -0.122 NA
ATOM      4  C   UNL     1       1.245  -0.436   0.027  0.00  0.00    +0.197 A 
ATOM      5  N   UNL     1       2.052   0.669   0.034  0.00  0.00    -0.275 N 
ENDROOT
BRANCH   5   6
ATOM      6  C   UNL     1       3.454   0.694   0.021  0.00  0.00    +0.050 A 
ATOM      7  C   UNL     1       4.150   1.205   1.108  0.00  0.00    +0.028 A 
ATOM      8  C   UNL     1       5.531   1.224   1.095  0.00  0.00    +0.022 A 
ATOM      9  C   UNL     1       6.221   0.744  -0.004  0.00  0.00    +0.041 A 
ATOM     10  C   UNL     1       5.529   0.238  -1.091  0.00  0.00    +0.022 A 
ATOM     11  C   UNL     1       4.149   0.212  -1.080  0.00  0.00    +0.028 A 
ATOM     12 CL   UNL     1       7.957   0.775  -0.020  0.00  0.00    -0.084 Cl
ENDBRANCH   5   6
BRANCH   1  14
ATOM     13  C   UNL     1       1.369   3.807  -1.312  0.00  0.00    -0.005 C 
ATOM     14  C   UNL     1       1.607   3.197   0.071  0.00  0.00    -0.003 C 
BRANCH  14  15
ATOM     15  N   UNL     1       0.803   3.917   1.068  0.00  0.00    +0.382 N 
ATOM     16  C   UNL     1       0.933   3.300   2.395  0.00  0.00    -0.096 C 
ATOM     17  C   UNL     1       1.168   5.340   1.111  0.00  0.00    -0.096 C 
ATOM     18  H   UNL     1      -0.252   3.848   0.765  0.00  0.00    -0.082 HD
ENDBRANCH  14  15
ENDBRANCH   1  14
BRANCH   4  19
ATOM     19  S   UNL     1       1.770  -2.117  -0.000  0.00  0.00    -0.076 S 
BRANCH  19  20
ATOM     20  C   UNL     1       0.162  -2.949   0.004  0.00  0.00    +0.173 C 
BRANCH  20  21
ATOM     21  C   UNL     1       0.368  -4.441  -0.018  0.00  0.00    +0.228 C 
ATOM     22  O   UNL     1       1.491  -4.898  -0.034  0.00  0.00    -0.275 OA
ATOM     23  N   UNL     1      -0.696  -5.269  -0.019  0.00  0.00    -0.284 N 
ATOM     24  H   UNL     1      -1.712  -4.857   0.070  0.00  0.00    +0.155 HD
BRANCH  23  25
ATOM     25  C   UNL     1      -0.507  -6.652  -0.134  0.00  0.00    +0.047 A 
ATOM     26  C   UNL     1       0.601  -7.253   0.443  0.00  0.00    +0.024 A 
ATOM     27  C   UNL     1       0.782  -8.620   0.333  0.00  0.00    +0.002 A 
ATOM     28  C   UNL     1      -0.134  -9.390  -0.360  0.00  0.00    +0.001 A 
ATOM     29  C   UNL     1      -1.239  -8.799  -0.943  0.00  0.00    +0.017 A 
ATOM     30  C   UNL     1      -1.432  -7.429  -0.834  0.00  0.00    +0.034 A 
BRANCH  30  31
ATOM     31  S   UNL     1      -2.839  -6.673  -1.576  0.00  0.00    -0.054 S 
BRANCH  31  32
ATOM     32  C   UNL     1      -3.722  -8.054  -2.352  0.00  0.00    +0.404 C 
ATOM     33  F   UNL     1      -2.892  -8.666  -3.297  0.00  0.00    -0.197 F 
ATOM     34  F   UNL     1      -4.080  -8.987  -1.372  0.00  0.00    -0.197 F 
ENDBRANCH  31  32
ENDBRANCH  30  31
ENDBRANCH  23  25
ENDBRANCH  20  21
ENDBRANCH  19  20
ENDBRANCH   4  19
TORSDOF 9
