REMARK  Name = ZINC04203124
REMARK  3 active torsions:
REMARK  status: ('A' for Active; 'I' for Inactive)
REMARK    1  A    between atoms: C_6  and  C_7
REMARK    2  A    between atoms: C_9  and  C_16
REMARK    3  A    between atoms: CA_12  and  C_14
REMARK                            x       y       z     vdW  Elec       q    Type
REMARK                         _______ _______ _______ _____ _____    ______ ____
ROOT
ATOM      1  C   UNL     1       1.480   1.915  -0.002  0.00  0.00    -0.026 C 
ATOM      2  C   UNL     1      -0.019   1.547   0.011  0.00  0.00    +0.091 C 
ATOM      3  C   UNL     1       0.002  -0.004   0.002  0.00  0.00    +0.009 C 
ATOM      4  CA  UNL     1       1.230  -0.295  -0.896  0.00  0.00    +0.045 C 
ATOM      5  N   UNL     1       2.203   0.757  -0.548  0.00  0.00    +0.393 N 
ATOM      6  H1  UNL     1       2.861   0.400   0.154  0.00  0.00    -0.084 HD
ATOM      7  H2  UNL     1       2.720   1.040  -1.389  0.00  0.00    -0.084 HD
ENDROOT
BRANCH   1  13
ATOM      8  C   UNL     1       1.774   2.977  -2.249  0.00  0.00    +0.003 A 
ATOM      9  C   UNL     1       1.975   4.084  -3.052  0.00  0.00    +0.020 A 
ATOM     10  C   UNL     1       2.117   5.336  -2.480  0.00  0.00    +0.041 A 
ATOM     11  C   UNL     1       2.051   5.480  -1.105  0.00  0.00    +0.020 A 
ATOM     12  C   UNL     1       1.845   4.373  -0.304  0.00  0.00    +0.003 A 
ATOM     13  C   UNL     1       1.704   3.122  -0.876  0.00  0.00    -0.060 A 
ATOM     14 CL   UNL     1       2.377   6.726  -3.487  0.00  0.00    -0.084 Cl
ENDBRANCH   1  13
BRANCH   4  15
ATOM     15  C   UNL     1       1.794  -1.659  -0.587  0.00  0.00    +0.343 C 
ATOM     16  O   UNL     1       2.767  -1.764   0.121  0.00  0.00    -0.248 OA
ATOM     17  OXT UNL     1       1.215  -2.756  -1.100  0.00  0.00    -0.248 OA
ENDBRANCH   4  15
BRANCH   2  18
ATOM     18  C   UNL     1      -0.684   2.064   1.260  0.00  0.00    +0.358 C 
ATOM     19  O   UNL     1      -0.062   2.750   2.036  0.00  0.00    -0.246 OA
ATOM     20  O   UNL     1      -1.968   1.763   1.510  0.00  0.00    -0.246 OA
ENDBRANCH   2  18
TORSDOF 3
