REMARK  Name = ZINC36056979
REMARK  12 active torsions:
REMARK  status: ('A' for Active; 'I' for Inactive)
REMARK    1  A    between atoms: C_1  and  C_2
REMARK    2  A    between atoms: C_2  and  C_3
REMARK    3  A    between atoms: C_3  and  C_4
REMARK    4  A    between atoms: C_3  and  C_5
REMARK    5  A    between atoms: C_3  and  N_16
REMARK    6  A    between atoms: N_7  and  C_8
REMARK    7  A    between atoms: C_11  and  O_14
REMARK    8  A    between atoms: O_14  and  C_15
REMARK    9  A    between atoms: N_16  and  C_17
REMARK   10  A    between atoms: C_17  and  C_18
REMARK   11  A    between atoms: C_25  and  C_27
REMARK   12  A    between atoms: C_27  and  N_28
REMARK                            x       y       z     vdW  Elec       q    Type
REMARK                         _______ _______ _______ _____ _____    ______ ____
ROOT
ATOM      1  N   UNL     1       1.530  -0.152  -1.325  0.00  0.00    -0.282 N 
ATOM      2  C   UNL     1       2.641  -0.223  -0.566  0.00  0.00    +0.234 C 
ATOM      3  O   UNL     1       2.611  -0.801   0.500  0.00  0.00    -0.274 OA
ENDROOT
BRANCH   1   4
ATOM      4  C   UNL     1       0.264  -0.693  -0.823  0.00  0.00    +0.111 C 
ATOM      5  C   UNL     1       0.229  -2.205  -1.051  0.00  0.00    +0.042 C 
BRANCH   4   6
ATOM      6  C   UNL     1      -0.884  -0.048  -1.556  0.00  0.00    +0.241 C 
ATOM      7  O   UNL     1      -1.792  -0.730  -1.982  0.00  0.00    -0.273 OA
ATOM      8  N   UNL     1      -0.902   1.287  -1.738  0.00  0.00    -0.284 N 
ATOM      9  H   UNL     1      -0.131   1.821  -1.490  0.00  0.00    +0.155 HD
BRANCH   8  10
ATOM     10  C   UNL     1      -2.034   1.905  -2.286  0.00  0.00    +0.034 A 
ATOM     11  C   UNL     1      -2.872   1.192  -3.133  0.00  0.00    +0.027 A 
ATOM     12  C   UNL     1      -3.988   1.801  -3.672  0.00  0.00    +0.047 A 
ATOM     13  C   UNL     1      -4.272   3.124  -3.367  0.00  0.00    +0.120 A 
ATOM     14  C   UNL     1      -3.435   3.837  -2.521  0.00  0.00    +0.047 A 
ATOM     15  C   UNL     1      -2.322   3.227  -1.977  0.00  0.00    +0.027 A 
BRANCH  13  16
ATOM     16  O   UNL     1      -5.371   3.723  -3.899  0.00  0.00    -0.495 OA
ATOM     17  C   UNL     1      -5.603   5.087  -3.542  0.00  0.00    +0.277 C 
ENDBRANCH  13  16
ENDBRANCH   8  10
ENDBRANCH   4   6
BRANCH   4  19
ATOM     18  C   UNL     1       0.177   1.112   0.902  0.00  0.00    +0.006 C 
ATOM     19  C   UNL     1       0.142  -0.400   0.674  0.00  0.00    +0.032 C 
ENDBRANCH   4  19
ENDBRANCH   1   4
BRANCH   1  20
ATOM     20  C   UNL     1       1.587   0.467  -2.651  0.00  0.00    +0.146 C 
BRANCH  20  21
ATOM     21  C   UNL     1       1.966  -0.573  -3.674  0.00  0.00    +0.005 A 
ATOM     22  C   UNL     1       3.273  -0.665  -4.115  0.00  0.00    +0.008 A 
ATOM     23  C   UNL     1       3.621  -1.619  -5.053  0.00  0.00    +0.000 A 
ATOM     24  C   UNL     1       2.663  -2.481  -5.552  0.00  0.00    +0.003 A 
ATOM     25  C   UNL     1       1.355  -2.391  -5.113  0.00  0.00    +0.038 A 
ATOM     26  C   UNL     1       1.007  -1.440  -4.169  0.00  0.00    +0.128 A 
ATOM     27  F   UNL     1      -0.270  -1.354  -3.736  0.00  0.00    -0.205 F 
ENDBRANCH  20  21
ENDBRANCH   1  20
BRANCH   2  28
ATOM     28  C   UNL     1       3.921   0.414  -1.042  0.00  0.00    +0.210 C 
BRANCH  28  29
ATOM     29  N   UNL     1       4.920   0.362   0.028  0.00  0.00    -0.255 N 
ATOM     30  C   UNL     1       5.088   1.352   0.994  0.00  0.00    +0.048 A 
ATOM     31  C   UNL     1       4.424   2.554   1.201  0.00  0.00    +0.024 A 
ATOM     32  C   UNL     1       4.787   3.376   2.252  0.00  0.00    +0.002 A 
ATOM     33  C   UNL     1       5.813   3.016   3.110  0.00  0.00    +0.001 A 
ATOM     34  C   UNL     1       6.486   1.826   2.922  0.00  0.00    +0.014 A 
ATOM     35  C   UNL     1       6.128   0.989   1.865  0.00  0.00    +0.048 A 
ATOM     36  C   UNL     1       6.632  -0.316   1.399  0.00  0.00    +0.250 C 
ATOM     37  O   UNL     1       7.530  -0.977   1.879  0.00  0.00    -0.282 OA
ATOM     38  C   UNL     1       5.787  -0.650   0.205  0.00  0.00    +0.292 C 
ATOM     39  O   UNL     1       5.872  -1.649  -0.476  0.00  0.00    -0.266 OA
ENDBRANCH  28  29
ENDBRANCH   2  28
TORSDOF 9
