REMARK  Name = ZINC04164537
REMARK  7 active torsions:
REMARK  status: ('A' for Active; 'I' for Inactive)
REMARK    1  A    between atoms: C_1  and  C_2
REMARK    2  A    between atoms: C_4  and  C_29
REMARK    3  A    between atoms: C_6  and  N_8
REMARK    4  A    between atoms: C_9  and  C_11
REMARK    5  A    between atoms: C_11  and  S_12
REMARK    6  A    between atoms: S_12  and  C_13
REMARK    7  A    between atoms: C_19  and  C_22
REMARK                            x       y       z     vdW  Elec       q    Type
REMARK                         _______ _______ _______ _____ _____    ______ ____
ROOT
ATOM      1  C   UNL     1      -5.290   0.812   0.259  0.00  0.00    +0.118 A 
ATOM      2  C   UNL     1      -6.592   1.348   0.280  0.00  0.00    +0.040 A 
ATOM      3  C   UNL     1      -7.667   0.523   0.388  0.00  0.00    +0.053 A 
ATOM      4  C   UNL     1      -7.460  -0.866   0.477  0.00  0.00    +0.178 A 
ATOM      5  N   UNL     1      -8.273  -1.907   0.589  0.00  0.00    -0.128 NA
ATOM      6  N   UNL     1      -7.582  -2.991   0.635  0.00  0.00    -0.127 NA
ATOM      7  C   UNL     1      -6.294  -2.712   0.556  0.00  0.00    +0.185 A 
ATOM      8  N   UNL     1      -6.178  -1.357   0.454  0.00  0.00    -0.192 N 
ATOM      9  N   UNL     1      -5.095  -0.484   0.337  0.00  0.00    -0.157 NA
ENDROOT
BRANCH   7  10
ATOM     10  C   UNL     1      -5.183  -3.686   0.575  0.00  0.00    +0.024 A 
ATOM     11  C   UNL     1      -5.410  -4.999   0.992  0.00  0.00    +0.012 A 
ATOM     12  C   UNL     1      -4.370  -5.905   1.008  0.00  0.00    +0.003 A 
ATOM     13  C   UNL     1      -3.103  -5.516   0.610  0.00  0.00    +0.038 A 
ATOM     14  C   UNL     1      -2.870  -4.215   0.194  0.00  0.00    +0.124 A 
ATOM     15  C   UNL     1      -3.905  -3.300   0.169  0.00  0.00    +0.050 A 
ATOM     16  F   UNL     1      -1.631  -3.843  -0.194  0.00  0.00    -0.205 F 
ENDBRANCH   7  10
BRANCH   1  17
ATOM     17  S   UNL     1      -3.905   1.894   0.118  0.00  0.00    -0.095 S 
BRANCH  17  18
ATOM     18  C   UNL     1      -2.474   0.779   0.133  0.00  0.00    +0.172 C 
BRANCH  18  20
ATOM     19  N   UNL     1      -0.011   0.966   0.007  0.00  0.00    -0.285 N 
ATOM     20  C   UNL     1      -1.207   1.587   0.017  0.00  0.00    +0.227 C 
ATOM     21  O   UNL     1      -1.264   2.795  -0.067  0.00  0.00    -0.275 OA
ATOM     22  H   UNL     1       0.033  -0.003   0.007  0.00  0.00    +0.155 HD
BRANCH  19  28
ATOM     23  C   UNL     1       4.673   1.524   1.393  0.00  0.00    +0.044 C 
ATOM     24  C   UNL     1       3.454   2.013   0.655  0.00  0.00    -0.048 A 
ATOM     25  C   UNL     1       3.500   3.208  -0.039  0.00  0.00    +0.006 A 
ATOM     26  C   UNL     1       2.383   3.661  -0.718  0.00  0.00    -0.048 A 
ATOM     27  C   UNL     1       1.218   2.920  -0.704  0.00  0.00    +0.026 A 
ATOM     28  C   UNL     1       1.168   1.719  -0.008  0.00  0.00    +0.034 A 
ATOM     29  C   UNL     1       2.289   1.271   0.677  0.00  0.00    +0.026 A 
ATOM     30  C   UNL     1       2.438   4.964  -1.473  0.00  0.00    +0.044 C 
ENDBRANCH  19  28
ENDBRANCH  18  20
ENDBRANCH  17  18
ENDBRANCH   1  17
TORSDOF 5
