REMARK  Name = ZINC20945856
REMARK  11 active torsions:
REMARK  status: ('A' for Active; 'I' for Inactive)
REMARK    1  A    between atoms: C_1  and  C_2
REMARK    2  A    between atoms: C_2  and  C_3
REMARK    3  A    between atoms: C_2  and  N_4
REMARK    4  A    between atoms: C_5  and  C_7
REMARK    5  A    between atoms: C_14  and  S_26
REMARK    6  A    between atoms: N_15  and  C_18
REMARK    7  A    between atoms: C_18  and  C_19
REMARK    8  A    between atoms: C_19  and  C_20
REMARK    9  A    between atoms: S_26  and  C_27
REMARK   10  A    between atoms: C_27  and  C_28
REMARK   11  A    between atoms: C_28  and  C_30
REMARK                            x       y       z     vdW  Elec       q    Type
REMARK                         _______ _______ _______ _____ _____    ______ ____
ROOT
ATOM      1  C   UNL     1       0.144  -2.163   1.152  0.00  0.00    +0.039 A 
ATOM      2  C   UNL     1       0.030  -2.853  -0.062  0.00  0.00    +0.014 A 
ATOM      3  C   UNL     1       0.052  -4.218  -0.090  0.00  0.00    +0.016 A 
ATOM      4  C   UNL     1       0.177  -4.936   1.099  0.00  0.00    +0.065 A 
ATOM      5  C   UNL     1       0.288  -4.255   2.333  0.00  0.00    +0.080 A 
ATOM      6  C   UNL     1       0.270  -2.857   2.348  0.00  0.00    +0.041 A 
ATOM      7  N   UNL     1       0.408  -4.973   3.474  0.00  0.00    -0.223 NA
ATOM      8  C   UNL     1       0.425  -6.283   3.462  0.00  0.00    +0.173 A 
ATOM      9  N   UNL     1       0.324  -7.018   2.316  0.00  0.00    -0.287 N 
ATOM     10  C   UNL     1       0.199  -6.407   1.115  0.00  0.00    +0.262 A 
ATOM     11  O   UNL     1       0.108  -7.050   0.086  0.00  0.00    -0.267 OA
ENDROOT
BRANCH   1  13
ATOM     12  N   UNL     1       0.002  -0.004   0.002  0.00  0.00    -0.309 N 
ATOM     13  C   UNL     1       0.124  -0.683   1.160  0.00  0.00    +0.244 C 
ATOM     14  O   UNL     1       0.217  -0.080   2.211  0.00  0.00    -0.270 OA
ATOM     15  H   UNL     1      -0.083  -0.550  -0.949  0.00  0.00    +0.149 HD
BRANCH  12  17
ATOM     16  C   UNL     1       1.418   1.990  -0.001  0.00  0.00    +0.027 C 
ATOM     17  C   UNL     1      -0.018   1.461   0.010  0.00  0.00    +0.067 C 
ATOM     18  C   UNL     1      -0.758   1.968  -1.230  0.00  0.00    +0.027 C 
ENDBRANCH  12  17
ENDBRANCH   1  13
BRANCH   9  19
ATOM     19  C   UNL     1       0.350  -8.481   2.387  0.00  0.00    +0.132 C 
BRANCH  19  20
ATOM     20  C   UNL     1      -1.076  -9.010   2.550  0.00  0.00    +0.057 C 
BRANCH  20  21
ATOM     21  C   UNL     1      -1.049 -10.515   2.623  0.00  0.00    -0.046 A 
ATOM     22  C   UNL     1      -1.156 -11.265   1.467  0.00  0.00    +0.004 A 
ATOM     23  C   UNL     1      -1.126 -12.646   1.534  0.00  0.00    +0.000 A 
ATOM     24  C   UNL     1      -0.999 -13.276   2.757  0.00  0.00    +0.000 A 
ATOM     25  C   UNL     1      -0.897 -12.526   3.914  0.00  0.00    +0.000 A 
ATOM     26  C   UNL     1      -0.922 -11.146   3.847  0.00  0.00    +0.004 A 
ENDBRANCH  20  21
ENDBRANCH  19  20
ENDBRANCH   9  19
BRANCH   8  27
ATOM     27  S   UNL     1       0.585  -7.135   4.996  0.00  0.00    -0.080 S 
BRANCH  27  28
ATOM     28  C   UNL     1       0.676  -5.727   6.130  0.00  0.00    +0.157 C 
BRANCH  28  29
ATOM     29  C   UNL     1       0.820  -6.229   7.543  0.00  0.00    +0.173 C 
ATOM     30  O   UNL     1       0.857  -7.421   7.763  0.00  0.00    -0.291 OA
BRANCH  29  31
ATOM     31  C   UNL     1       0.915  -5.273   8.658  0.00  0.00    +0.020 A 
ATOM     32  C   UNL     1       1.049  -5.735   9.971  0.00  0.00    +0.011 A 
ATOM     33  C   UNL     1       1.138  -4.833  11.010  0.00  0.00    +0.002 A 
ATOM     34  C   UNL     1       1.095  -3.473  10.757  0.00  0.00    +0.020 A 
ATOM     35  C   UNL     1       0.963  -3.007   9.460  0.00  0.00    +0.042 A 
ATOM     36  C   UNL     1       0.878  -3.897   8.408  0.00  0.00    +0.031 A 
ATOM     37 CL   UNL     1       0.911  -1.299   9.154  0.00  0.00    -0.084 Cl
ENDBRANCH  29  31
ENDBRANCH  28  29
ENDBRANCH  27  28
ENDBRANCH   8  27
TORSDOF 9
