REMARK  Name = ZINC33772122
REMARK  12 active torsions:
REMARK  status: ('A' for Active; 'I' for Inactive)
REMARK    1  A    between atoms: C_1  and  C_2
REMARK    2  A    between atoms: C_2  and  C_3
REMARK    3  A    between atoms: C_3  and  N_4
REMARK    4  A    between atoms: C_12  and  C_14
REMARK    5  A    between atoms: C_19  and  S_21
REMARK    6  A    between atoms: S_21  and  C_22
REMARK    7  A    between atoms: C_22  and  C_23
REMARK    8  A    between atoms: N_25  and  C_26
REMARK    9  A    between atoms: C_26  and  C_27
REMARK   10  A    between atoms: C_27  and  C_28
REMARK   11  A    between atoms: C_28  and  N_29
REMARK   12  A    between atoms: C_34  and  C_36
REMARK                            x       y       z     vdW  Elec       q    Type
REMARK                         _______ _______ _______ _____ _____    ______ ____
ROOT
ATOM      1  N   UNL     1       3.959   9.714  20.996  0.00  0.00    -0.299 N 
ATOM      2  C   UNL     1       3.150   8.695  20.643  0.00  0.00    +0.303 C 
ATOM      3  O   UNL     1       2.980   7.762  21.404  0.00  0.00    -0.253 OA
ATOM      4  N   UNL     1       2.530   8.711  19.447  0.00  0.00    -0.280 N 
ATOM      5  C   UNL     1       2.815   9.767  18.463  0.00  0.00    +0.128 C 
ATOM      6  C   UNL     1       3.144   9.105  17.120  0.00  0.00    +0.125 C 
ATOM      7  N   UNL     1       2.058   8.188  16.751  0.00  0.00    -0.312 N 
ATOM      8  C   UNL     1       1.929   7.095  17.724  0.00  0.00    +0.128 C 
ATOM      9  C   UNL     1       1.550   7.674  19.091  0.00  0.00    +0.092 C 
ATOM     10  C   UNL     1       1.571   6.564  20.143  0.00  0.00    +0.030 C 
ATOM     11  C   UNL     1       2.241   7.693  15.470  0.00  0.00    +0.127 A 
ATOM     12  C   UNL     1       3.421   7.031  15.128  0.00  0.00    +0.083 A 
ATOM     13  C   UNL     1       3.560   6.554  13.837  0.00  0.00    +0.135 A 
ATOM     14  N   UNL     1       2.575   6.738  12.968  0.00  0.00    -0.210 NA
ATOM     15  C   UNL     1       1.465   7.370  13.322  0.00  0.00    +0.192 A 
ATOM     16  N   UNL     1       1.296   7.846  14.547  0.00  0.00    -0.207 NA
ATOM     17 CL   UNL     1       5.008   5.723  13.359  0.00  0.00    -0.062 Cl
ATOM     18  H   UNL     1       4.178  10.518  20.278  0.00  0.00    +0.150 HD
ENDROOT
BRANCH   1  19
ATOM     19  C   UNL     1       4.548   9.751  22.337  0.00  0.00    +0.105 C 
BRANCH  19  21
ATOM     20  C   UNL     1       6.032  11.040  23.879  0.00  0.00    +0.005 C 
ATOM     21  C   UNL     1       5.418  11.001  22.479  0.00  0.00    +0.015 C 
ENDBRANCH  19  21
ENDBRANCH   1  19
BRANCH  15  22
ATOM     22  S   UNL     1       0.185   7.589  12.131  0.00  0.00    -0.077 S 
BRANCH  22  23
ATOM     23  C   UNL     1       0.944   6.778  10.701  0.00  0.00    +0.173 C 
BRANCH  23  24
ATOM     24  C   UNL     1       0.001   6.845   9.527  0.00  0.00    +0.223 C 
ATOM     25  O   UNL     1      -1.077   7.387   9.645  0.00  0.00    -0.275 OA
ATOM     26  N   UNL     1       0.357   6.301   8.346  0.00  0.00    -0.315 N 
ATOM     27  H   UNL     1       1.335   5.809   8.239  0.00  0.00    +0.149 HD
BRANCH  26  28
ATOM     28  C   UNL     1      -0.559   6.366   7.205  0.00  0.00    +0.102 C 
BRANCH  28  29
ATOM     29  C   UNL     1       0.082   5.681   5.997  0.00  0.00    +0.000 C 
BRANCH  29  30
ATOM     30  C   UNL     1      -0.875   5.748   4.805  0.00  0.00    -0.077 C 
BRANCH  30  31
ATOM     31  N   UNL     1      -0.260   5.090   3.645  0.00  0.00    +0.381 N 
ATOM     32  C   UNL     1      -0.198   3.635   3.837  0.00  0.00    -0.078 C 
ATOM     33  C   UNL     1       0.576   2.999   2.679  0.00  0.00    -0.019 C 
ATOM     34  C   UNL     1      -0.125   3.330   1.359  0.00  0.00    -0.003 C 
ATOM     35  C   UNL     1      -0.219   4.851   1.207  0.00  0.00    -0.016 C 
ATOM     36  C   UNL     1      -0.971   5.433   2.406  0.00  0.00    -0.072 C 
ATOM     37  C   UNL     1      -1.049   6.955   2.269  0.00  0.00    -0.013 C 
ATOM     38  H   UNL     1       0.772   5.460   3.552  0.00  0.00    -0.081 HD
ENDBRANCH  30  31
ENDBRANCH  29  30
ENDBRANCH  28  29
ENDBRANCH  26  28
ENDBRANCH  23  24
ENDBRANCH  22  23
ENDBRANCH  15  22
TORSDOF 9
