REMARK  Name = ZINC36593511
REMARK  15 active torsions:
REMARK  status: ('A' for Active; 'I' for Inactive)
REMARK    1  A    between atoms: C_1  and  C_2
REMARK    2  A    between atoms: C_2  and  C_3
REMARK    3  A    between atoms: C_3  and  C_4
REMARK    4  A    between atoms: C_4  and  N_5
REMARK    5  A    between atoms: C_6  and  C_8
REMARK    6  A    between atoms: C_8  and  C_10
REMARK    7  A    between atoms: C_8  and  N_23
REMARK    8  A    between atoms: C_10  and  C_11
REMARK    9  A    between atoms: C_10  and  C_17
REMARK   10  A    between atoms: N_23  and  C_35
REMARK   11  A    between atoms: C_24  and  C_26
REMARK   12  A    between atoms: C_29  and  N_32
REMARK   13  A    between atoms: C_35  and  C_36
REMARK   14  A    between atoms: C_35  and  C_37
REMARK   15  A    between atoms: C_35  and  C_38
REMARK                            x       y       z     vdW  Elec       q    Type
REMARK                         _______ _______ _______ _____ _____    ______ ____
ROOT
ATOM      1  C   UNL     1      -5.868  -6.907  -0.903  0.00  0.00    +0.174 C 
ENDROOT
BRANCH   1   3
ATOM      2  N   UNL     1      -7.151  -4.943  -0.120  0.00  0.00    -0.314 N 
ATOM      3  C   UNL     1      -6.124  -5.792   0.078  0.00  0.00    +0.235 C 
ATOM      4  O   UNL     1      -5.405  -5.660   1.046  0.00  0.00    -0.274 OA
ATOM      5  H   UNL     1      -7.726  -5.049  -0.894  0.00  0.00    +0.149 HD
BRANCH   2   6
ATOM      6  C   UNL     1      -7.400  -3.859   0.834  0.00  0.00    +0.104 C 
BRANCH   6   7
ATOM      7  C   UNL     1      -8.615  -3.048   0.379  0.00  0.00    +0.018 C 
BRANCH   7   9
ATOM      8  C   UNL     1     -10.090  -1.105   0.920  0.00  0.00    +0.004 C 
ATOM      9  C   UNL     1      -8.875  -1.916   1.375  0.00  0.00    -0.002 C 
ENDBRANCH   7   9
ENDBRANCH   6   7
ENDBRANCH   2   6
ENDBRANCH   1   3
BRANCH   1  10
ATOM     10  N   UNL     1      -4.459  -7.303  -0.836  0.00  0.00    -0.280 N 
ATOM     11  C   UNL     1      -4.124  -8.526  -0.379  0.00  0.00    +0.248 C 
ATOM     12  O   UNL     1      -4.934  -9.185   0.243  0.00  0.00    -0.270 OA
BRANCH  11  13
ATOM     13  C   UNL     1      -2.772  -9.066  -0.634  0.00  0.00    +0.037 A 
ATOM     14  C   UNL     1      -1.877  -8.361  -1.441  0.00  0.00    +0.015 A 
ATOM     15  C   UNL     1      -0.616  -8.870  -1.674  0.00  0.00    +0.033 A 
ATOM     16  C   UNL     1      -0.238 -10.076  -1.111  0.00  0.00    +0.126 A 
ATOM     17  C   UNL     1      -1.121 -10.780  -0.311  0.00  0.00    +0.033 A 
ATOM     18  C   UNL     1      -2.382 -10.279  -0.064  0.00  0.00    +0.015 A 
BRANCH  16  19
ATOM     19  N   UNL     1       1.116 -10.616  -1.367  0.00  0.00    +0.056 N 
ATOM     20  O   UNL     1       1.889 -10.004  -2.066  0.00  0.00    -0.126 OA
ATOM     21  O   UNL     1       1.449 -11.670  -0.876  0.00  0.00    -0.126 OA
ENDBRANCH  16  19
ENDBRANCH  11  13
BRANCH  10  22
ATOM     22  C   UNL     1      -3.414  -6.370  -1.265  0.00  0.00    +0.030 C 
ATOM     23  C   UNL     1      -3.879  -4.934  -1.015  0.00  0.00    +0.031 C 
ATOM     24  C   UNL     1      -2.134  -6.638  -0.471  0.00  0.00    +0.031 C 
ATOM     25  C   UNL     1      -3.139  -6.565  -2.757  0.00  0.00    +0.031 C 
ENDBRANCH  10  22
ENDBRANCH   1  10
BRANCH   1  26
ATOM     26  C   UNL     1      -6.195  -6.426  -2.318  0.00  0.00    +0.078 C 
BRANCH  26  27
ATOM     27  C   UNL     1      -5.804  -7.488  -3.313  0.00  0.00    -0.038 A 
ATOM     28  C   UNL     1      -5.920  -8.825  -2.979  0.00  0.00    +0.004 A 
ATOM     29  C   UNL     1      -5.562  -9.799  -3.891  0.00  0.00    +0.000 A 
ATOM     30  C   UNL     1      -5.087  -9.437  -5.138  0.00  0.00    +0.000 A 
ATOM     31  C   UNL     1      -4.972  -8.101  -5.473  0.00  0.00    +0.000 A 
ATOM     32  C   UNL     1      -5.335  -7.126  -4.562  0.00  0.00    +0.004 A 
ENDBRANCH  26  27
BRANCH  26  33
ATOM     33  C   UNL     1      -7.674  -6.155  -2.428  0.00  0.00    -0.038 A 
ATOM     34  C   UNL     1      -8.582  -7.160  -2.152  0.00  0.00    +0.004 A 
ATOM     35  C   UNL     1      -9.939  -6.912  -2.252  0.00  0.00    +0.000 A 
ATOM     36  C   UNL     1     -10.386  -5.659  -2.627  0.00  0.00    +0.000 A 
ATOM     37  C   UNL     1      -9.477  -4.654  -2.902  0.00  0.00    +0.000 A 
ATOM     38  C   UNL     1      -8.121  -4.901  -2.798  0.00  0.00    +0.004 A 
ENDBRANCH  26  33
ENDBRANCH   1  26
TORSDOF 11
