REMARK  Name = ZINC38905605
REMARK  9 active torsions:
REMARK  status: ('A' for Active; 'I' for Inactive)
REMARK    1  A    between atoms: C_1  and  C_2
REMARK    2  A    between atoms: C_2  and  O_3
REMARK    3  A    between atoms: O_3  and  C_4
REMARK    4  A    between atoms: C_9  and  C_10
REMARK    5  A    between atoms: C_10  and  N_11
REMARK    6  A    between atoms: C_12  and  C_14
REMARK    7  A    between atoms: N_19  and  C_21
REMARK    8  A    between atoms: C_21  and  C_22
REMARK    9  A    between atoms: C_24  and  C_27
REMARK                            x       y       z     vdW  Elec       q    Type
REMARK                         _______ _______ _______ _____ _____    ______ ____
ROOT
ATOM      1  C   UNL     1       0.215   0.353   6.284  0.00  0.00    +0.058 C 
ATOM      2  C   UNL     1      -0.845   1.111   5.481  0.00  0.00    +0.009 C 
ATOM      3  C   UNL     1      -1.902   1.663   6.442  0.00  0.00    -0.018 C 
ATOM      4  C   UNL     1      -1.220   2.550   7.486  0.00  0.00    -0.078 C 
ATOM      5  N   UNL     1      -0.237   1.760   8.238  0.00  0.00    +0.386 N 
ATOM      6  C   UNL     1       0.819   1.287   7.335  0.00  0.00    -0.065 C 
ATOM      7  H   UNL     1      -0.697   0.967   8.660  0.00  0.00    -0.081 HD
ENDROOT
BRANCH   1   9
ATOM      8  N   UNL     1       1.000  -0.967   4.344  0.00  0.00    -0.311 N 
ATOM      9  C   UNL     1       1.301  -0.128   5.356  0.00  0.00    +0.215 C 
ATOM     10  O   UNL     1       2.445   0.239   5.519  0.00  0.00    -0.276 OA
ATOM     11  H   UNL     1       0.085  -1.260   4.213  0.00  0.00    +0.149 HD
BRANCH   8  12
ATOM     12  C   UNL     1       2.055  -1.434   3.442  0.00  0.00    +0.143 C 
BRANCH  12  18
ATOM     13  C   UNL     1       0.802  -1.824   1.306  0.00  0.00    +0.125 A 
ATOM     14  C   UNL     1       0.260  -2.673   0.351  0.00  0.00    +0.046 A 
ATOM     15  C   UNL     1       0.372  -4.041   0.501  0.00  0.00    +0.004 A 
ATOM     16  C   UNL     1       1.024  -4.566   1.602  0.00  0.00    +0.001 A 
ATOM     17  C   UNL     1       1.565  -3.723   2.555  0.00  0.00    +0.009 A 
ATOM     18  C   UNL     1       1.460  -2.353   2.406  0.00  0.00    +0.011 A 
BRANCH  13  19
ATOM     19  O   UNL     1       0.693  -0.477   1.160  0.00  0.00    -0.492 OA
BRANCH  19  21
ATOM     20  C   UNL     1      -0.019   1.526   0.010  0.00  0.00    +0.048 C 
ATOM     21  C   UNL     1       0.002  -0.004   0.002  0.00  0.00    +0.225 C 
ENDBRANCH  19  21
ENDBRANCH  13  19
ENDBRANCH  12  18
ENDBRANCH   8  12
ENDBRANCH   1   9
BRANCH   5  22
ATOM     22  C   UNL     1       0.358   2.595   9.290  0.00  0.00    +0.022 C 
BRANCH  22  23
ATOM     23  C   UNL     1      -0.703   2.972  10.292  0.00  0.00    +0.211 A 
ATOM     24  N   UNL     1      -1.011   2.298  11.363  0.00  0.00    -0.193 NA
ATOM     25  C   UNL     1      -2.000   2.920  12.030  0.00  0.00    +0.202 A 
ATOM     26  N   UNL     1      -2.327   4.007  11.375  0.00  0.00    -0.056 NA
ATOM     27  O   UNL     1      -1.482   4.059  10.235  0.00  0.00    -0.340 OA
BRANCH  25  28
ATOM     28  C   UNL     1      -2.618   2.453  13.296  0.00  0.00    +0.023 A 
ATOM     29  C   UNL     1      -2.175   1.277  13.898  0.00  0.00    +0.013 A 
ATOM     30  C   UNL     1      -2.752   0.847  15.075  0.00  0.00    +0.016 A 
ATOM     31  C   UNL     1      -3.771   1.581  15.657  0.00  0.00    +0.018 A 
ATOM     32  C   UNL     1      -4.215   2.749  15.063  0.00  0.00    +0.016 A 
ATOM     33  C   UNL     1      -3.640   3.192  13.889  0.00  0.00    +0.013 A 
ATOM     34 BR   UNL     1      -4.559   0.986  17.270  0.00  0.00    -0.050 Br
ENDBRANCH  25  28
ENDBRANCH  22  23
ENDBRANCH   5  22
TORSDOF 8
