REMARK  Name = ZINC01857175
REMARK  5 active torsions:
REMARK  status: ('A' for Active; 'I' for Inactive)
REMARK    1  A    between atoms: C_1  and  C_2
REMARK    2  A    between atoms: C_2  and  C_3
REMARK    3  A    between atoms: C_11  and  C_12
REMARK    4  A    between atoms: N_14  and  C_21
REMARK    5  A    between atoms: C_21  and  C_22
REMARK                            x       y       z     vdW  Elec       q    Type
REMARK                         _______ _______ _______ _____ _____    ______ ____
ROOT
ATOM      1  C   UNL     1      -5.267  -6.692  -4.189  0.00  0.00    +0.001 A 
ATOM      2  C   UNL     1      -4.271  -7.002  -5.096  0.00  0.00    +0.095 A 
ATOM      3  N   UNL     1      -4.567  -8.163  -5.712  0.00  0.00    -0.342 N 
ATOM      4  C   UNL     1      -5.762  -8.673  -5.245  0.00  0.00    +0.050 A 
ATOM      5  C   UNL     1      -6.253  -7.789  -4.272  0.00  0.00    +0.007 A 
ATOM      6  C   UNL     1      -7.453  -8.059  -3.623  0.00  0.00    +0.010 A 
ATOM      7  C   UNL     1      -8.156  -9.203  -3.937  0.00  0.00    +0.001 A 
ATOM      8  C   UNL     1      -7.671 -10.081  -4.895  0.00  0.00    +0.002 A 
ATOM      9  C   UNL     1      -6.488  -9.819  -5.552  0.00  0.00    +0.026 A 
ENDROOT
BRANCH   1  18
ATOM     10  C   UNL     1      -1.438   0.410  -2.252  0.00  0.00    +0.007 C 
ATOM     11  C   UNL     1      -2.125  -0.535  -2.888  0.00  0.00    +0.092 A 
ATOM     12  N   UNL     1      -3.059  -1.438  -2.375  0.00  0.00    -0.283 N 
ATOM     13  H   UNL     1      -3.257  -1.460  -1.425  0.00  0.00    +0.188 HD
ATOM     14  N   UNL     1      -3.694  -2.299  -3.247  0.00  0.00    -0.212 N 
ATOM     15  C   UNL     1      -4.763  -3.153  -2.906  0.00  0.00    +0.160 A 
ATOM     16  N   UNL     1      -5.567  -2.932  -1.900  0.00  0.00    -0.281 NA
ATOM     17  C   UNL     1      -4.884  -4.332  -3.808  0.00  0.00    +0.085 A 
ATOM     18  C   UNL     1      -5.327  -5.559  -3.348  0.00  0.00    +0.027 C 
ATOM     19  C   UNL     1      -4.505  -4.120  -5.223  0.00  0.00    +0.283 A 
ATOM     20  O   UNL     1      -4.960  -4.827  -6.106  0.00  0.00    -0.265 OA
ATOM     21  N   UNL     1      -3.641  -3.121  -5.510  0.00  0.00    -0.182 NA
ATOM     22  C   UNL     1      -3.263  -2.308  -4.560  0.00  0.00    +0.199 A 
ATOM     23  S   UNL     1      -2.099  -0.971  -4.620  0.00  0.00    -0.031 S 
ATOM     24  H   UNL     1      -6.288  -3.553  -1.709  0.00  0.00    +0.188 HD
BRANCH  10  26
ATOM     25  C   UNL     1      -0.833   2.756  -2.783  0.00  0.00    +0.008 C 
ATOM     26  C   UNL     1      -0.477   1.286  -3.015  0.00  0.00    +0.026 C 
ENDBRANCH  10  26
ENDBRANCH   1  18
BRANCH   3  27
ATOM     27  C   UNL     1      -3.734  -8.798  -6.736  0.00  0.00    +0.158 C 
BRANCH  27  28
ATOM     28  C   UNL     1      -4.226  -8.398  -8.103  0.00  0.00    -0.009 A 
ATOM     29  C   UNL     1      -5.113  -9.210  -8.783  0.00  0.00    +0.008 A 
ATOM     30  C   UNL     1      -5.564  -8.843 -10.037  0.00  0.00    +0.020 A 
ATOM     31  C   UNL     1      -5.129  -7.662 -10.611  0.00  0.00    +0.042 A 
ATOM     32  C   UNL     1      -4.241  -6.849  -9.931  0.00  0.00    +0.040 A 
ATOM     33  C   UNL     1      -3.793  -7.214  -8.674  0.00  0.00    +0.047 A 
ATOM     34 CL   UNL     1      -2.684  -6.191  -7.816  0.00  0.00    -0.083 Cl
ATOM     35 CL   UNL     1      -5.695  -7.202 -12.186  0.00  0.00    -0.083 Cl
ENDBRANCH  27  28
ENDBRANCH   3  27
TORSDOF 4
