REMARK  Name = ZINC37826591
REMARK  9 active torsions:
REMARK  status: ('A' for Active; 'I' for Inactive)
REMARK    1  A    between atoms: C_1  and  C_2
REMARK    2  A    between atoms: C_2  and  C_4
REMARK    3  A    between atoms: C_2  and  N_11
REMARK    4  A    between atoms: C_9  and  O_10
REMARK    5  A    between atoms: N_11  and  C_12
REMARK    6  A    between atoms: C_13  and  C_15
REMARK    7  A    between atoms: C_15  and  C_16
REMARK    8  A    between atoms: C_15  and  C_17
REMARK    9  A    between atoms: C_15  and  N_20
REMARK                            x       y       z     vdW  Elec       q    Type
REMARK                         _______ _______ _______ _____ _____    ______ ____
ROOT
ATOM      1  N   UNL     1      -1.596  -0.052  -0.479  0.00  0.00    -0.299 N 
ATOM      2  C   UNL     1      -2.459   0.650   0.474  0.00  0.00    +0.132 C 
ATOM      3  C   UNL     1      -1.973  -1.247  -0.976  0.00  0.00    +0.204 C 
ATOM      4  O   UNL     1      -1.300  -1.790  -1.825  0.00  0.00    -0.277 OA
ENDROOT
BRANCH   1   6
ATOM      5  C   UNL     1      -0.583   1.922  -1.508  0.00  0.00    +0.033 C 
ATOM      6  C   UNL     1      -0.324   0.545  -0.893  0.00  0.00    +0.106 C 
BRANCH   6   7
ATOM      7  C   UNL     1       0.576   0.692   0.306  0.00  0.00    +0.014 A 
ATOM      8  C   UNL     1       0.763   1.933   0.883  0.00  0.00    +0.009 A 
ATOM      9  C   UNL     1       1.589   2.068   1.983  0.00  0.00    +0.001 A 
ATOM     10  C   UNL     1       2.230   0.962   2.510  0.00  0.00    +0.004 A 
ATOM     11  C   UNL     1       2.046  -0.282   1.938  0.00  0.00    +0.046 A 
ATOM     12  C   UNL     1       1.213  -0.421   0.836  0.00  0.00    +0.122 A 
BRANCH  12  13
ATOM     13  O   UNL     1       1.026  -1.644   0.275  0.00  0.00    -0.506 OA
ATOM     14  H   UNL     1       1.661  -1.858  -0.422  0.00  0.00    +0.292 HD
ENDBRANCH  12  13
ENDBRANCH   6   7
ENDBRANCH   1   6
BRANCH   3  15
ATOM     15  C   UNL     1      -3.232  -1.907  -0.476  0.00  0.00    +0.007 C 
ATOM     16  C   UNL     1      -3.451  -3.222  -1.226  0.00  0.00    -0.001 C 
BRANCH  15  17
ATOM     17  N   UNL     1      -4.377  -1.016  -0.706  0.00  0.00    +0.388 N 
ATOM     18  H   UNL     1      -4.386  -0.721  -1.671  0.00  0.00    -0.089 HD
ATOM     19  H   UNL     1      -5.234  -1.507  -0.497  0.00  0.00    -0.089 HD
ATOM     20  H   UNL     1      -4.299  -0.206  -0.108  0.00  0.00    -0.089 HD
ENDBRANCH  15  17
BRANCH  15  21
ATOM     21  C   UNL     1      -3.100  -2.190   1.022  0.00  0.00    -0.014 C 
ATOM     22  C   UNL     1      -2.989  -3.653   1.457  0.00  0.00    +0.003 C 
ATOM     23  C   UNL     1      -4.279  -2.872   1.719  0.00  0.00    +0.003 C 
ENDBRANCH  15  21
ENDBRANCH   3  15
TORSDOF 6
