REMARK  Name = ZINC01251592
REMARK  6 active torsions:
REMARK  status: ('A' for Active; 'I' for Inactive)
REMARK    1  A    between atoms: C_1  and  C_2
REMARK    2  A    between atoms: C_5  and  S_8
REMARK    3  A    between atoms: S_8  and  N_11
REMARK    4  A    between atoms: C_14  and  C_28
REMARK    5  A    between atoms: C_15  and  N_17
REMARK    6  A    between atoms: N_20  and  C_21
REMARK                            x       y       z     vdW  Elec       q    Type
REMARK                         _______ _______ _______ _____ _____    ______ ____
ROOT
ATOM      1  N   UNL     1       1.652  -5.000  -0.026  0.00  0.00    -0.103 NA
ATOM      2  C   UNL     1       1.958  -6.274  -0.040  0.00  0.00    +0.193 A 
ATOM      3  N   UNL     1       3.199  -6.871  -0.054  0.00  0.00    -0.335 N 
ATOM      4  C   UNL     1       3.265  -8.239  -0.066  0.00  0.00    +0.043 A 
ATOM      5  C   UNL     1       2.137  -8.962  -0.063  0.00  0.00    +0.095 A 
ATOM      6  S   UNL     1       0.878  -7.696  -0.036  0.00  0.00    -0.033 S 
ATOM      7  C   UNL     1       4.604  -8.930  -0.083  0.00  0.00    +0.066 C 
ATOM      8  H   UNL     1       4.007  -6.335  -0.057  0.00  0.00    +0.168 HD
ENDROOT
BRANCH   5   9
ATOM      9  N   UNL     1       1.984 -10.354  -0.074  0.00  0.00    -0.262 N 
ATOM     10  C   UNL     1       0.751 -10.897  -0.069  0.00  0.00    +0.309 C 
ATOM     11  O   UNL     1      -0.230 -10.178  -0.055  0.00  0.00    -0.252 OA
ATOM     12  N   UNL     1       0.604 -12.237  -0.079  0.00  0.00    -0.269 N 
ATOM     13  H   UNL     1       2.767 -10.928  -0.085  0.00  0.00    +0.157 HD
ATOM     14  H   UNL     1       1.383 -12.810  -0.158  0.00  0.00    +0.156 HD
BRANCH  12  15
ATOM     15  C   UNL     1      -0.673 -12.802   0.024  0.00  0.00    +0.035 A 
ATOM     16  C   UNL     1      -0.853 -13.991   0.718  0.00  0.00    +0.025 A 
ATOM     17  C   UNL     1      -2.114 -14.546   0.818  0.00  0.00    +0.022 A 
ATOM     18  C   UNL     1      -3.196 -13.919   0.228  0.00  0.00    +0.041 A 
ATOM     19  C   UNL     1      -3.020 -12.734  -0.464  0.00  0.00    +0.022 A 
ATOM     20  C   UNL     1      -1.762 -12.171  -0.562  0.00  0.00    +0.025 A 
ATOM     21 CL   UNL     1      -4.780 -14.620   0.354  0.00  0.00    -0.084 Cl
ENDBRANCH  12  15
ENDBRANCH   5   9
BRANCH   1  22
ATOM     22  S   UNL     1       0.064  -4.530  -0.002  0.00  0.00    +0.101 S 
ATOM     23  O   UNL     1      -0.466  -4.953   1.247  0.00  0.00    -0.146 OA
ATOM     24  O   UNL     1      -0.498  -4.934  -1.244  0.00  0.00    -0.146 OA
BRANCH  22  29
ATOM     25  C   UNL     1      -0.017   1.503   0.045  0.00  0.00    +0.044 C 
ATOM     26  C   UNL     1       0.004  -0.004   0.033  0.00  0.00    -0.050 A 
ATOM     27  C   UNL     1      -0.002  -0.686  -1.169  0.00  0.00    +0.005 A 
ATOM     28  C   UNL     1       0.017  -2.068  -1.180  0.00  0.00    +0.029 A 
ATOM     29  C   UNL     1       0.041  -2.769   0.011  0.00  0.00    +0.113 A 
ATOM     30  C   UNL     1       0.047  -2.087   1.214  0.00  0.00    +0.029 A 
ATOM     31  C   UNL     1       0.033  -0.704   1.225  0.00  0.00    +0.005 A 
ENDBRANCH  22  29
ENDBRANCH   1  22
TORSDOF 4
