REMARK  Name = ZINC32986287
REMARK  14 active torsions:
REMARK  status: ('A' for Active; 'I' for Inactive)
REMARK    1  A    between atoms: C_1  and  C_2
REMARK    2  A    between atoms: C_2  and  C_3
REMARK    3  A    between atoms: C_3  and  C_5
REMARK    4  A    between atoms: C_3  and  N_6
REMARK    5  A    between atoms: C_7  and  C_9
REMARK    6  A    between atoms: C_19  and  S_20
REMARK    7  A    between atoms: S_20  and  C_21
REMARK    8  A    between atoms: C_21  and  C_22
REMARK    9  A    between atoms: C_22  and  C_24
REMARK   10  A    between atoms: C_27  and  C_30
REMARK   11  A    between atoms: N_31  and  C_34
REMARK   12  A    between atoms: C_34  and  C_35
REMARK   13  A    between atoms: C_35  and  C_36
REMARK   14  A    between atoms: C_35  and  C_37
REMARK                            x       y       z     vdW  Elec       q    Type
REMARK                         _______ _______ _______ _____ _____    ______ ____
ROOT
ATOM      1  C   UNL     1       2.389   1.409  -0.013  0.00  0.00    +0.039 A 
ATOM      2  C   UNL     1       1.169   2.091   0.002  0.00  0.00    +0.014 A 
ATOM      3  C   UNL     1      -0.017   1.390   0.010  0.00  0.00    +0.016 A 
ATOM      4  C   UNL     1       0.002  -0.004   0.002  0.00  0.00    +0.064 A 
ATOM      5  C   UNL     1       1.224  -0.693  -0.013  0.00  0.00    +0.065 A 
ATOM      6  C   UNL     1       2.414   0.016  -0.021  0.00  0.00    +0.040 A 
ATOM      7  N   UNL     1       1.222  -2.087  -0.021  0.00  0.00    -0.256 N 
ATOM      8  C   UNL     1       0.043  -2.782  -0.014  0.00  0.00    +0.240 A 
ATOM      9  N   UNL     1       0.333  -4.064  -0.024  0.00  0.00    -0.109 NA
ATOM     10  N   UNL     1       1.726  -4.196  -0.037  0.00  0.00    -0.120 NA
ATOM     11  C   UNL     1       2.248  -2.993  -0.035  0.00  0.00    +0.198 A 
ATOM     12  N   UNL     1      -1.180  -2.131   0.001  0.00  0.00    -0.276 N 
ATOM     13  C   UNL     1      -1.252  -0.784   0.009  0.00  0.00    +0.263 A 
ATOM     14  O   UNL     1      -2.330  -0.222   0.022  0.00  0.00    -0.267 OA
ENDROOT
BRANCH   1  16
ATOM     15  N   UNL     1       3.637   3.517  -0.014  0.00  0.00    -0.309 N 
ATOM     16  C   UNL     1       3.659   2.170  -0.022  0.00  0.00    +0.244 C 
ATOM     17  O   UNL     1       4.721   1.579  -0.035  0.00  0.00    -0.270 OA
ATOM     18  H   UNL     1       2.675   4.052  -0.002  0.00  0.00    +0.149 HD
BRANCH  15  19
ATOM     19  C   UNL     1       4.894   4.271  -0.023  0.00  0.00    +0.070 C 
ATOM     20  C   UNL     1       5.410   4.417   1.410  0.00  0.00    +0.028 C 
BRANCH  19  22
ATOM     21  C   UNL     1       4.256   5.515  -2.094  0.00  0.00    +0.005 C 
ATOM     22  C   UNL     1       4.653   5.657  -0.623  0.00  0.00    +0.018 C 
ENDBRANCH  19  22
ENDBRANCH  15  19
ENDBRANCH   1  16
BRANCH  11  23
ATOM     23  S   UNL     1       3.968  -2.610  -0.049  0.00  0.00    -0.078 S 
BRANCH  23  24
ATOM     24  C   UNL     1       4.779  -4.232  -0.065  0.00  0.00    +0.157 C 
BRANCH  24  25
ATOM     25  C   UNL     1       6.274  -4.047  -0.078  0.00  0.00    +0.173 C 
ATOM     26  O   UNL     1       6.746  -2.930  -0.076  0.00  0.00    -0.291 OA
BRANCH  25  27
ATOM     27  C   UNL     1       7.162  -5.221  -0.092  0.00  0.00    +0.018 A 
ATOM     28  C   UNL     1       6.621  -6.510  -0.088  0.00  0.00    +0.011 A 
ATOM     29  C   UNL     1       7.459  -7.605  -0.106  0.00  0.00    +0.004 A 
ATOM     30  C   UNL     1       8.832  -7.430  -0.118  0.00  0.00    -0.050 A 
ATOM     31  C   UNL     1       9.375  -6.157  -0.117  0.00  0.00    +0.004 A 
ATOM     32  C   UNL     1       8.550  -5.052  -0.104  0.00  0.00    +0.011 A 
ATOM     33  C   UNL     1       9.741  -8.633  -0.131  0.00  0.00    +0.044 C 
ENDBRANCH  25  27
ENDBRANCH  24  25
ENDBRANCH  23  24
ENDBRANCH  11  23
BRANCH  12  34
ATOM     34  C   UNL     1      -2.416  -2.918   0.007  0.00  0.00    +0.131 C 
BRANCH  34  35
ATOM     35  C   UNL     1      -2.833  -3.200   1.452  0.00  0.00    +0.003 C 
ATOM     36  C   UNL     1      -4.186  -3.913   1.463  0.00  0.00    +0.009 C 
ATOM     37  C   UNL     1      -1.783  -4.088   2.122  0.00  0.00    +0.009 C 
ENDBRANCH  34  35
ENDBRANCH  12  34
TORSDOF 9
