REMARK  Name = ZINC08987071
REMARK  17 active torsions:
REMARK  status: ('A' for Active; 'I' for Inactive)
REMARK    1  A    between atoms: C_1  and  C_2
REMARK    2  A    between atoms: C_2  and  C_3
REMARK    3  A    between atoms: C_2  and  O_4
REMARK    4  A    between atoms: O_4  and  C_5
REMARK    5  A    between atoms: C_8  and  C_11
REMARK    6  A    between atoms: C_14  and  C_15
REMARK    7  A    between atoms: C_14  and  O_25
REMARK    8  A    between atoms: C_18  and  O_21
REMARK    9  A    between atoms: O_21  and  C_22
REMARK   10  A    between atoms: C_22  and  C_23
REMARK   11  A    between atoms: C_22  and  C_24
REMARK   12  A    between atoms: N_30  and  C_31
REMARK   13  A    between atoms: C_31  and  C_32
REMARK   14  A    between atoms: C_32  and  C_33
REMARK   15  A    between atoms: C_33  and  N_71
REMARK   16  A    between atoms: C_34  and  N_71
REMARK   17  A    between atoms: C_35  and  N_71
REMARK                            x       y       z     vdW  Elec       q    Type
REMARK                         _______ _______ _______ _____ _____    ______ ____
ROOT
ATOM      1  C   UNL     1      -5.187   1.773   0.671  0.00  0.00    +0.144 C 
ATOM      2  C   UNL     1      -3.777   2.317   0.660  0.00  0.00    +0.071 C 
ATOM      3  C   UNL     1      -2.610   1.596   0.499  0.00  0.00    +0.133 C 
ATOM      4  C   UNL     1      -3.892   3.702   0.851  0.00  0.00    +0.249 C 
ATOM      5  O   UNL     1      -2.969   4.495   0.906  0.00  0.00    -0.282 OA
ATOM      6  C   UNL     1      -5.337   4.036   0.972  0.00  0.00    +0.288 C 
ATOM      7  O   UNL     1      -5.782   5.153   1.142  0.00  0.00    -0.266 OA
ATOM      8  N   UNL     1      -6.078   2.919   0.871  0.00  0.00    -0.284 N 
ENDROOT
BRANCH   1  12
ATOM      9  C   UNL     1      -6.055  -0.123  -3.059  0.00  0.00    +0.121 A 
ATOM     10  C   UNL     1      -5.735  -0.889  -1.948  0.00  0.00    +0.046 A 
ATOM     11  C   UNL     1      -5.454  -0.274  -0.743  0.00  0.00    +0.009 A 
ATOM     12  C   UNL     1      -5.493   1.104  -0.644  0.00  0.00    -0.022 A 
ATOM     13  C   UNL     1      -5.818   1.870  -1.748  0.00  0.00    +0.009 A 
ATOM     14  C   UNL     1      -6.093   1.260  -2.957  0.00  0.00    +0.046 A 
BRANCH   9  15
ATOM     15  O   UNL     1      -6.331  -0.726  -4.245  0.00  0.00    -0.489 OA
BRANCH  15  17
ATOM     16  C   UNL     1      -7.267  -2.625  -5.409  0.00  0.00    +0.051 C 
ATOM     17  C   UNL     1      -6.388  -2.153  -4.250  0.00  0.00    +0.167 C 
ATOM     18  C   UNL     1      -4.976  -2.720  -4.418  0.00  0.00    +0.051 C 
ENDBRANCH  15  17
ENDBRANCH   9  15
ENDBRANCH   1  12
BRANCH   3  19
ATOM     19  C   UNL     1      -1.323   2.297   0.379  0.00  0.00    +0.017 A 
ATOM     20  C   UNL     1      -1.190   3.377  -0.503  0.00  0.00    +0.015 A 
ATOM     21  C   UNL     1       0.015   4.033  -0.608  0.00  0.00    +0.046 A 
ATOM     22  C   UNL     1       1.101   3.621   0.156  0.00  0.00    +0.121 A 
ATOM     23  C   UNL     1       0.977   2.546   1.030  0.00  0.00    +0.046 A 
ATOM     24  C   UNL     1      -0.224   1.884   1.142  0.00  0.00    +0.015 A 
BRANCH  22  25
ATOM     25  O   UNL     1       2.288   4.272   0.050  0.00  0.00    -0.489 OA
BRANCH  25  26
ATOM     26  C   UNL     1       2.383   5.288  -0.950  0.00  0.00    +0.167 C 
ATOM     27  C   UNL     1       1.839   6.605  -0.392  0.00  0.00    +0.051 C 
ATOM     28  C   UNL     1       3.847   5.471  -1.354  0.00  0.00    +0.051 C 
ENDBRANCH  25  26
ENDBRANCH  22  25
ENDBRANCH   3  19
BRANCH   3  29
ATOM     29  O   UNL     1      -2.652   0.247   0.452  0.00  0.00    -0.506 OA
ATOM     30  H   UNL     1      -1.726  -0.111   0.332  0.00  0.00    +0.292 HD
ENDBRANCH   3  29
BRANCH   8  31
ATOM     31  C   UNL     1      -7.540   2.858   0.948  0.00  0.00    +0.107 C 
BRANCH  31  32
ATOM     32  C   UNL     1      -7.966   2.652   2.403  0.00  0.00    +0.000 C 
BRANCH  32  33
ATOM     33  C   UNL     1      -9.493   2.588   2.483  0.00  0.00    -0.078 C 
BRANCH  33  36
ATOM     34  C   UNL     1     -11.353   2.560   4.033  0.00  0.00    -0.097 C 
ATOM     35  C   UNL     1      -9.470   1.076   4.374  0.00  0.00    -0.097 C 
ATOM     36  N   UNL     1      -9.889   2.410   3.896  0.00  0.00    +0.376 N 
ATOM     37  H   UNL     1      -9.426   3.129   4.465  0.00  0.00    -0.083 HD
ENDBRANCH  33  36
ENDBRANCH  32  33
ENDBRANCH  31  32
ENDBRANCH   8  31
TORSDOF 11
