REMARK  Name = ZINC15520257
REMARK  18 active torsions:
REMARK  status: ('A' for Active; 'I' for Inactive)
REMARK    1  A    between atoms: C_1  and  C_2
REMARK    2  A    between atoms: C_2  and  C_3
REMARK    3  A    between atoms: C_3  and  C_4
REMARK    4  A    between atoms: C_4  and  N_5
REMARK    5  A    between atoms: N_5  and  C_6
REMARK    6  A    between atoms: C_7  and  N_19
REMARK    7  A    between atoms: N_8  and  C_15
REMARK    8  A    between atoms: C_15  and  C_16
REMARK    9  A    between atoms: C_16  and  C_17
REMARK   10  A    between atoms: C_16  and  C_18
REMARK   11  A    between atoms: C_20  and  C_22
REMARK   12  A    between atoms: C_22  and  N_23
REMARK   13  A    between atoms: N_23  and  C_24
REMARK   14  A    between atoms: N_23  and  C_34
REMARK   15  A    between atoms: C_24  and  C_25
REMARK   16  A    between atoms: C_28  and  C_31
REMARK   17  A    between atoms: C_31  and  C_32
REMARK   18  A    between atoms: C_31  and  C_33
REMARK                            x       y       z     vdW  Elec       q    Type
REMARK                         _______ _______ _______ _____ _____    ______ ____
ROOT
ATOM      1  N   UNL     1       1.414  -2.243  -2.535  0.00  0.00    -0.266 N 
ATOM      2  C   UNL     1       0.839  -2.500  -3.728  0.00  0.00    +0.203 C 
ATOM      3  O   UNL     1       1.467  -3.074  -4.593  0.00  0.00    -0.277 OA
ENDROOT
BRANCH   1   4
ATOM      4  C   UNL     1       2.776  -2.546  -2.328  0.00  0.00    +0.140 A 
ATOM      5  C   UNL     1       3.149  -3.525  -1.430  0.00  0.00    +0.127 A 
ATOM      6  N   UNL     1       4.485  -3.798  -1.250  0.00  0.00    -0.280 N 
ATOM      7  C   UNL     1       5.418  -3.118  -1.942  0.00  0.00    +0.331 A 
ATOM      8  O   UNL     1       6.594  -3.374  -1.768  0.00  0.00    -0.246 OA
ATOM      9  N   UNL     1       5.073  -2.162  -2.822  0.00  0.00    -0.273 N 
ATOM     10  H   UNL     1       5.765  -1.686  -3.308  0.00  0.00    +0.173 HD
ATOM     11  C   UNL     1       3.779  -1.859  -3.039  0.00  0.00    +0.277 A 
ATOM     12  O   UNL     1       3.477  -0.993  -3.843  0.00  0.00    -0.266 OA
BRANCH   5  13
ATOM     13  N   UNL     1       2.197  -4.219  -0.722  0.00  0.00    -0.343 N 
ATOM     14  H   UNL     1       1.260  -3.983  -0.811  0.00  0.00    +0.144 HD
ATOM     15  H   UNL     1       2.461  -4.944  -0.135  0.00  0.00    +0.144 HD
ENDBRANCH   5  13
BRANCH   6  16
ATOM     16  C   UNL     1       4.895  -4.835  -0.299  0.00  0.00    +0.131 C 
BRANCH  16  17
ATOM     17  C   UNL     1       4.978  -6.183  -1.019  0.00  0.00    +0.003 C 
ATOM     18  C   UNL     1       5.525  -7.240  -0.059  0.00  0.00    +0.009 C 
ATOM     19  C   UNL     1       3.582  -6.595  -1.490  0.00  0.00    +0.009 C 
ENDBRANCH  16  17
ENDBRANCH   6  16
ENDBRANCH   1   4
BRANCH   1  20
ATOM     20  C   UNL     1       0.624  -1.648  -1.454  0.00  0.00    +0.114 C 
BRANCH  20  21
ATOM     21  C   UNL     1       0.800  -0.129  -1.470  0.00  0.00    +0.019 C 
BRANCH  21  23
ATOM     22  C   UNL     1       0.151   2.012  -0.356  0.00  0.00    +0.004 C 
ATOM     23  C   UNL     1      -0.025   0.492  -0.341  0.00  0.00    -0.002 C 
ENDBRANCH  21  23
ENDBRANCH  20  21
ENDBRANCH   1  20
BRANCH   2  24
ATOM     24  C   UNL     1      -0.584  -2.075  -3.986  0.00  0.00    +0.020 C 
BRANCH  24  25
ATOM     25  N   UNL     1      -1.022  -2.597  -5.287  0.00  0.00    +0.390 N 
ATOM     26  H   UNL     1      -0.363  -2.321  -6.000  0.00  0.00    -0.080 HD
BRANCH  25  27
ATOM     27  C   UNL     1      -2.348  -2.053  -5.611  0.00  0.00    -0.068 C 
ATOM     28  C   UNL     1      -2.561  -1.506  -7.024  0.00  0.00    -0.017 C 
ATOM     29  C   UNL     1      -2.456  -0.544  -5.839  0.00  0.00    -0.017 C 
ENDBRANCH  25  27
BRANCH  25  30
ATOM     30  C   UNL     1      -1.095  -4.063  -5.228  0.00  0.00    -0.042 C 
BRANCH  30  31
ATOM     31  C   UNL     1      -1.425  -4.605  -6.595  0.00  0.00    -0.064 A 
ATOM     32  C   UNL     1      -2.744  -4.780  -6.969  0.00  0.00    +0.002 A 
ATOM     33  C   UNL     1      -3.047  -5.278  -8.222  0.00  0.00    +0.004 A 
ATOM     34  C   UNL     1      -2.031  -5.600  -9.102  0.00  0.00    -0.045 A 
ATOM     35  C   UNL     1      -0.712  -5.424  -8.729  0.00  0.00    +0.004 A 
ATOM     36  C   UNL     1      -0.409  -4.922  -7.476  0.00  0.00    +0.002 A 
BRANCH  34  37
ATOM     37  C   UNL     1      -2.361  -6.143 -10.469  0.00  0.00    +0.013 C 
ATOM     38  C   UNL     1      -1.796  -5.208 -11.539  0.00  0.00    +0.012 C 
ATOM     39  C   UNL     1      -1.743  -7.533 -10.627  0.00  0.00    +0.012 C 
ENDBRANCH  34  37
ENDBRANCH  30  31
ENDBRANCH  25  30
ENDBRANCH  24  25
ENDBRANCH   2  24
TORSDOF 13
