REMARK  Name = ZINC35973760
REMARK  14 active torsions:
REMARK  status: ('A' for Active; 'I' for Inactive)
REMARK    1  A    between atoms: C_1  and  C_2
REMARK    2  A    between atoms: C_2  and  C_3
REMARK    3  A    between atoms: C_3  and  C_5
REMARK    4  A    between atoms: C_3  and  O_6
REMARK    5  A    between atoms: O_6  and  C_7
REMARK    6  A    between atoms: C_7  and  C_9
REMARK    7  A    between atoms: C_10  and  C_40
REMARK    8  A    between atoms: C_14  and  C_16
REMARK    9  A    between atoms: C_19  and  O_22
REMARK   10  A    between atoms: O_22  and  C_23
REMARK   11  A    between atoms: C_23  and  C_25
REMARK   12  A    between atoms: C_29  and  C_32
REMARK   13  A    between atoms: C_35  and  O_38
REMARK   14  A    between atoms: O_38  and  C_39
REMARK                            x       y       z     vdW  Elec       q    Type
REMARK                         _______ _______ _______ _____ _____    ______ ____
ROOT
ATOM      1  C   UNL     1      -4.243   0.265  -2.358  0.00  0.00    +0.065 C 
ATOM      2  C   UNL     1      -5.584   0.279  -2.448  0.00  0.00    +0.016 C 
ATOM      3  N   UNL     1      -6.196   0.674  -3.604  0.00  0.00    -0.321 N 
ATOM      4  C   UNL     1      -5.511   0.681  -4.790  0.00  0.00    +0.016 C 
ATOM      5  C   UNL     1      -4.161   0.680  -4.801  0.00  0.00    +0.024 C 
ATOM      6  C   UNL     1      -3.380   0.692  -3.509  0.00  0.00    +0.092 C 
ATOM      7  C   UNL     1      -3.446   0.671  -6.011  0.00  0.00    +0.162 C 
ATOM      8  O   UNL     1      -2.231   0.677  -5.986  0.00  0.00    -0.292 OA
ATOM      9  C   UNL     1      -4.157   0.652  -7.337  0.00  0.00    +0.088 C 
ATOM     10  C   UNL     1      -5.514  -0.039  -7.166  0.00  0.00    +0.032 C 
ATOM     11  C   UNL     1      -6.299   0.694  -6.076  0.00  0.00    +0.059 C 
ATOM     12  C   UNL     1      -6.418  -0.144  -1.266  0.00  0.00    +0.061 C 
ATOM     13  H   UNL     1      -7.125   0.953  -3.585  0.00  0.00    +0.152 HD
ENDROOT
BRANCH   6  14
ATOM     14  C   UNL     1      -2.863   2.083  -3.250  0.00  0.00    -0.035 A 
ATOM     15  C   UNL     1      -3.751   3.129  -3.080  0.00  0.00    +0.008 A 
ATOM     16  C   UNL     1      -3.279   4.406  -2.843  0.00  0.00    +0.046 A 
ATOM     17  C   UNL     1      -1.913   4.638  -2.776  0.00  0.00    +0.132 A 
ATOM     18  C   UNL     1      -1.024   3.587  -2.947  0.00  0.00    +0.046 A 
ATOM     19  C   UNL     1      -1.501   2.311  -3.179  0.00  0.00    +0.008 A 
BRANCH  17  20
ATOM     20  O   UNL     1      -1.446   5.893  -2.544  0.00  0.00    -0.426 OA
BRANCH  20  21
ATOM     21  C   UNL     1      -1.493   6.360  -1.286  0.00  0.00    +0.309 C 
ATOM     22  O   UNL     1      -2.020   5.706  -0.418  0.00  0.00    -0.251 OA
ATOM     23  C   UNL     1      -0.887   7.701  -0.957  0.00  0.00    +0.136 C 
ENDBRANCH  20  21
ENDBRANCH  17  20
ENDBRANCH   6  14
BRANCH  10  24
ATOM     24  C   UNL     1      -6.275   0.012  -8.466  0.00  0.00    -0.043 A 
ATOM     25  C   UNL     1      -6.588   1.232  -9.034  0.00  0.00    +0.007 A 
ATOM     26  C   UNL     1      -7.287   1.282 -10.225  0.00  0.00    +0.046 A 
ATOM     27  C   UNL     1      -7.673   0.105 -10.851  0.00  0.00    +0.120 A 
ATOM     28  C   UNL     1      -7.358  -1.118 -10.278  0.00  0.00    +0.046 A 
ATOM     29  C   UNL     1      -6.655  -1.162  -9.090  0.00  0.00    +0.007 A 
BRANCH  27  30
ATOM     30  O   UNL     1      -8.361   0.151 -12.022  0.00  0.00    -0.495 OA
ATOM     31  C   UNL     1      -8.727  -1.099 -12.609  0.00  0.00    +0.277 C 
ENDBRANCH  27  30
ENDBRANCH  10  24
BRANCH   1  32
ATOM     32  C   UNL     1      -3.633  -0.155  -1.152  0.00  0.00    +0.338 C 
ATOM     33  O   UNL     1      -3.174  -1.278  -1.062  0.00  0.00    -0.245 OA
BRANCH  32  34
ATOM     34  O   UNL     1      -3.560   0.690  -0.103  0.00  0.00    -0.458 OA
BRANCH  34  35
ATOM     35  C   UNL     1      -2.931   0.200   1.083  0.00  0.00    +0.173 C 
ATOM     36  C   UNL     1      -1.433   0.507   1.030  0.00  0.00    +0.052 C 
BRANCH  35  38
ATOM     37  C   UNL     1      -5.017   0.472   2.430  0.00  0.00    +0.007 C 
ATOM     38  C   UNL     1      -3.548   0.880   2.306  0.00  0.00    +0.041 C 
ENDBRANCH  35  38
ENDBRANCH  34  35
ENDBRANCH  32  34
ENDBRANCH   1  32
TORSDOF 9
