REMARK  Name = ZINC35845060
REMARK  6 active torsions:
REMARK  status: ('A' for Active; 'I' for Inactive)
REMARK    1  A    between atoms: C_1  and  C_2
REMARK    2  A    between atoms: C_7  and  C_8
REMARK    3  A    between atoms: N_10  and  C_11
REMARK    4  A    between atoms: C_11  and  C_13
REMARK    5  A    between atoms: C_11  and  C_14
REMARK    6  A    between atoms: C_16  and  C_19
REMARK                            x       y       z     vdW  Elec       q    Type
REMARK                         _______ _______ _______ _____ _____    ______ ____
ROOT
ATOM      1  C   UNL     1       0.578   0.067   4.894  0.00  0.00    +0.159 C 
ATOM      2  C   UNL     1      -0.818   0.298   5.475  0.00  0.00    +0.038 C 
ENDROOT
BRANCH   1   3
ATOM      3  C   UNL     1       1.397  -0.746   5.863  0.00  0.00    +0.248 A 
ATOM      4  N   UNL     1       2.347  -0.287   6.628  0.00  0.00    -0.190 NA
ATOM      5  C   UNL     1       2.866  -1.285   7.366  0.00  0.00    +0.202 A 
ATOM      6  N   UNL     1       2.239  -2.396   7.068  0.00  0.00    -0.056 NA
ATOM      7  O   UNL     1       1.268  -2.060   6.088  0.00  0.00    -0.336 OA
BRANCH   5   8
ATOM      8  C   UNL     1       3.967  -1.150   8.352  0.00  0.00    +0.024 A 
ATOM      9  C   UNL     1       4.551   0.094   8.583  0.00  0.00    +0.012 A 
ATOM     10  C   UNL     1       5.574   0.215   9.501  0.00  0.00    +0.002 A 
ATOM     11  C   UNL     1       6.021  -0.897  10.193  0.00  0.00    +0.020 A 
ATOM     12  C   UNL     1       5.445  -2.135   9.968  0.00  0.00    +0.042 A 
ATOM     13  C   UNL     1       4.416  -2.265   9.056  0.00  0.00    +0.031 A 
ATOM     14 CL   UNL     1       6.012  -3.525  10.840  0.00  0.00    -0.084 Cl
ENDBRANCH   5   8
ENDBRANCH   1   3
BRANCH   1  17
ATOM     15  C   UNL     1       0.242   0.021   2.481  0.00  0.00    +0.245 C 
ATOM     16  O   UNL     1       0.135   1.232   2.503  0.00  0.00    -0.270 OA
ATOM     17  N   UNL     1       0.465  -0.656   3.625  0.00  0.00    -0.300 N 
ATOM     18  H   UNL     1       0.551  -1.622   3.607  0.00  0.00    +0.150 HD
BRANCH  15  25
ATOM     19  C   UNL     1      -0.511   1.452   0.082  0.00  0.00    +0.044 C 
ATOM     20  C   UNL     1      -0.234  -0.028   0.036  0.00  0.00    -0.038 A 
ATOM     21  C   UNL     1      -0.334  -0.714  -1.157  0.00  0.00    +0.004 A 
ATOM     22  C   UNL     1      -0.080  -2.073  -1.200  0.00  0.00    +0.000 A 
ATOM     23  C   UNL     1       0.275  -2.754  -0.049  0.00  0.00    +0.001 A 
ATOM     24  C   UNL     1       0.378  -2.080   1.150  0.00  0.00    +0.013 A 
ATOM     25  C   UNL     1       0.128  -0.708   1.200  0.00  0.00    +0.040 A 
ENDBRANCH  15  25
ENDBRANCH   1  17
TORSDOF 4
