REMARK  Name = ZINC20083463
REMARK  10 active torsions:
REMARK  status: ('A' for Active; 'I' for Inactive)
REMARK    1  A    between atoms: C_1  and  C_2
REMARK    2  A    between atoms: C_5  and  C_41
REMARK    3  A    between atoms: C_9  and  C_14
REMARK    4  A    between atoms: C_14  and  C_16
REMARK    5  A    between atoms: C_14  and  N_27
REMARK    6  A    between atoms: N_20  and  C_21
REMARK    7  A    between atoms: N_27  and  C_28
REMARK    8  A    between atoms: N_27  and  C_34
REMARK    9  A    between atoms: C_28  and  C_29
REMARK   10  A    between atoms: C_34  and  C_35
REMARK                            x       y       z     vdW  Elec       q    Type
REMARK                         _______ _______ _______ _____ _____    ______ ____
ROOT
ATOM      1  C   UNL     1       0.206   3.585   0.848  0.00  0.00    +0.163 C 
ENDROOT
BRANCH   1  10
ATOM      2  C   UNL     1       3.945   0.113  -0.194  0.00  0.00    +0.044 C 
ATOM      3  C   UNL     1       3.240   0.414  -1.491  0.00  0.00    -0.041 A 
ATOM      4  C   UNL     1       3.634  -0.201  -2.645  0.00  0.00    +0.004 A 
ATOM      5  C   UNL     1       2.991   0.070  -3.845  0.00  0.00    +0.005 A 
ATOM      6  C   UNL     1       1.942   0.963  -3.896  0.00  0.00    -0.026 A 
ATOM      7  C   UNL     1       1.523   1.601  -2.733  0.00  0.00    +0.052 A 
ATOM      8  C   UNL     1       2.178   1.324  -1.518  0.00  0.00    +0.002 A 
ATOM      9  C   UNL     1       1.732   2.005  -0.301  0.00  0.00    +0.021 A 
ATOM     10  C   UNL     1       0.694   2.872  -0.387  0.00  0.00    +0.042 A 
ATOM     11  C   UNL     1       0.071   3.114  -1.630  0.00  0.00    +0.254 A 
ATOM     12  O   UNL     1      -0.857   3.902  -1.686  0.00  0.00    -0.268 OA
ATOM     13  N   UNL     1       0.477   2.498  -2.755  0.00  0.00    -0.322 N 
ATOM     14  H   UNL     1      -0.039   2.720  -3.701  0.00  0.00    +0.169 HD
ATOM     15  C   UNL     1       1.254   1.247  -5.205  0.00  0.00    +0.046 C 
ENDBRANCH   1  10
BRANCH   1  16
ATOM     16  C   UNL     1      -0.232   4.980   0.483  0.00  0.00    +0.173 A 
ATOM     17  N   UNL     1      -1.410   5.338   0.035  0.00  0.00    -0.111 NA
ATOM     18  N   UNL     1      -1.392   6.612  -0.158  0.00  0.00    -0.023 NA
ATOM     19  N   UNL     1      -0.232   7.075   0.155  0.00  0.00    -0.044 NA
ATOM     20  N   UNL     1       0.510   6.101   0.560  0.00  0.00    -0.224 N 
BRANCH  20  21
ATOM     21  C   UNL     1       1.899   6.195   1.014  0.00  0.00    +0.111 C 
ATOM     22  C   UNL     1       1.976   7.122   2.229  0.00  0.00    +0.027 C 
ATOM     23  C   UNL     1       3.428   7.221   2.704  0.00  0.00    +0.002 C 
ATOM     24  C   UNL     1       4.295   7.785   1.577  0.00  0.00    +0.000 C 
ATOM     25  C   UNL     1       4.218   6.858   0.362  0.00  0.00    +0.002 C 
ATOM     26  C   UNL     1       2.767   6.759  -0.113  0.00  0.00    +0.027 C 
ENDBRANCH  20  21
ENDBRANCH   1  16
BRANCH   1  27
ATOM     27  N   UNL     1      -0.929   2.849   1.422  0.00  0.00    -0.282 NA
BRANCH  27  28
ATOM     28  C   UNL     1      -1.435   3.519   2.627  0.00  0.00    +0.128 C 
BRANCH  28  29
ATOM     29  C   UNL     1      -2.316   4.675   2.227  0.00  0.00    +0.004 A 
ATOM     30  C   UNL     1      -3.566   4.654   1.704  0.00  0.00    +0.012 A 
ATOM     31  C   UNL     1      -4.191   5.852   1.414  0.00  0.00    +0.008 A 
ATOM     32  C   UNL     1      -3.532   7.012   1.652  0.00  0.00    +0.045 A 
ATOM     33  S   UNL     1      -1.981   6.426   2.313  0.00  0.00    -0.100 S 
ENDBRANCH  28  29
ENDBRANCH  27  28
BRANCH  27  34
ATOM     34  C   UNL     1      -0.563   1.456   1.708  0.00  0.00    +0.117 C 
BRANCH  34  35
ATOM     35  C   UNL     1      -1.341   0.523   0.779  0.00  0.00    +0.132 C 
ATOM     36  C   UNL     1      -1.127  -0.950   1.194  0.00  0.00    +0.035 C 
ATOM     37  C   UNL     1      -1.067  -1.713  -0.149  0.00  0.00    +0.031 C 
ATOM     38  C   UNL     1      -1.253  -0.610  -1.215  0.00  0.00    +0.160 C 
ATOM     39  O   UNL     1      -0.824   0.607  -0.566  0.00  0.00    -0.375 OA
ENDBRANCH  34  35
ENDBRANCH  27  34
ENDBRANCH   1  27
TORSDOF 8
