REMARK  Name = ZINC59121257
REMARK  6 active torsions:
REMARK  status: ('A' for Active; 'I' for Inactive)
REMARK    1  A    between atoms: C_1  and  C_2
REMARK    2  A    between atoms: C_2  and  C_21
REMARK    3  A    between atoms: N_5  and  C_9
REMARK    4  A    between atoms: C_9  and  C_10
REMARK    5  A    between atoms: C_10  and  C_11
REMARK    6  A    between atoms: N_13  and  C_14
REMARK                            x       y       z     vdW  Elec       q    Type
REMARK                         _______ _______ _______ _____ _____    ______ ____
ROOT
ATOM      1  C   UNL     1      -0.031   1.530  -0.022  0.00  0.00    +0.047 C 
ATOM      2  C   UNL     1      -0.007  -0.000  -0.020  0.00  0.00    +0.136 C 
ATOM      3  C   UNL     1       0.809  -0.522  -1.185  0.00  0.00    +0.251 C 
ATOM      4  O   UNL     1       0.592  -0.352  -2.366  0.00  0.00    -0.272 OA
ATOM      5  N   UNL     1       1.828  -1.214  -0.637  0.00  0.00    -0.224 N 
ATOM      6  C   UNL     1       1.769  -1.201   0.700  0.00  0.00    +0.310 C 
ATOM      7  O   UNL     1       2.577  -1.757   1.417  0.00  0.00    -0.252 OA
ATOM      8  N   UNL     1       0.714  -0.506   1.161  0.00  0.00    -0.281 N 
ATOM      9  H   UNL     1       0.474  -0.364   2.091  0.00  0.00    +0.152 HD
ENDROOT
BRANCH   2  10
ATOM     10  C   UNL     1      -1.409  -0.551  -0.062  0.00  0.00    -0.002 A 
ATOM     11  C   UNL     1      -1.871  -1.344   0.972  0.00  0.00    +0.007 A 
ATOM     12  C   UNL     1      -3.158  -1.849   0.934  0.00  0.00    +0.000 A 
ATOM     13  C   UNL     1      -3.982  -1.562  -0.138  0.00  0.00    +0.001 A 
ATOM     14  C   UNL     1      -3.521  -0.769  -1.172  0.00  0.00    +0.015 A 
ATOM     15  C   UNL     1      -2.235  -0.259  -1.132  0.00  0.00    +0.024 A 
ATOM     16 BR   UNL     1      -1.606   0.831  -2.543  0.00  0.00    -0.050 Br
ENDBRANCH   2  10
BRANCH   5  17
ATOM     17  C   UNL     1       2.870  -1.895  -1.408  0.00  0.00    +0.127 C 
BRANCH  17  18
ATOM     18  C   UNL     1       4.035  -0.933  -1.653  0.00  0.00    +0.115 C 
BRANCH  18  19
ATOM     19  C   UNL     1       5.107  -1.634  -2.447  0.00  0.00    +0.219 C 
ATOM     20  O   UNL     1       4.955  -2.790  -2.783  0.00  0.00    -0.275 OA
ATOM     21  N   UNL     1       6.235  -0.978  -2.782  0.00  0.00    -0.285 N 
ATOM     22  H   UNL     1       6.328  -0.035  -2.572  0.00  0.00    +0.155 HD
BRANCH  21  23
ATOM     23  C   UNL     1       7.272  -1.656  -3.435  0.00  0.00    +0.034 A 
ATOM     24  C   UNL     1       8.594  -1.332  -3.162  0.00  0.00    +0.026 A 
ATOM     25  C   UNL     1       9.616  -2.002  -3.806  0.00  0.00    +0.040 A 
ATOM     26  C   UNL     1       9.322  -2.995  -4.725  0.00  0.00    +0.124 A 
ATOM     27  C   UNL     1       8.004  -3.320  -4.999  0.00  0.00    +0.040 A 
ATOM     28  C   UNL     1       6.979  -2.657  -4.352  0.00  0.00    +0.026 A 
ATOM     29  F   UNL     1      10.322  -3.649  -5.355  0.00  0.00    -0.205 F 
ENDBRANCH  21  23
ENDBRANCH  18  19
ENDBRANCH  17  18
ENDBRANCH   5  17
TORSDOF 5
