REMARK  Name = ZINC41092848
REMARK  3 active torsions:
REMARK  status: ('A' for Active; 'I' for Inactive)
REMARK    1  A    between atoms: C_3  and  N_18
REMARK    2  A    between atoms: C_6  and  N_7
REMARK    3  A    between atoms: N_7  and  C_8
REMARK                            x       y       z     vdW  Elec       q    Type
REMARK                         _______ _______ _______ _____ _____    ______ ____
ROOT
ATOM      1  C   UNL     1       0.020   1.434  -0.116  0.00  0.00    +0.025 A 
ATOM      2  C   UNL     1       1.177   2.185  -0.044  0.00  0.00    +0.025 A 
ATOM      3  C   UNL     1       2.397   1.562   0.180  0.00  0.00    +0.035 A 
ATOM      4  C   UNL     1       2.454   0.183   0.334  0.00  0.00    +0.025 A 
ATOM      5  C   UNL     1       1.298  -0.568   0.263  0.00  0.00    +0.025 A 
ATOM      6  C   UNL     1       0.077   0.055   0.038  0.00  0.00    +0.027 A 
ENDROOT
BRANCH   3   7
ATOM      7  N   UNL     1       3.571   2.324   0.252  0.00  0.00    -0.270 N 
ATOM      8  C   UNL     1       3.534   3.572   0.759  0.00  0.00    +0.301 C 
ATOM      9  O   UNL     1       2.504   4.003   1.241  0.00  0.00    -0.253 OA
ATOM     10  N   UNL     1       4.639   4.344   0.732  0.00  0.00    -0.313 N 
ATOM     11  H   UNL     1       4.410   1.954  -0.064  0.00  0.00    +0.156 HD
ATOM     12  H   UNL     1       5.461   4.001   0.348  0.00  0.00    +0.146 HD
ATOM     13  H   UNL     1       4.612   5.242   1.097  0.00  0.00    +0.146 HD
ENDBRANCH   3   7
BRANCH   6  14
ATOM     14  N   UNL     1      -1.094  -0.706  -0.034  0.00  0.00    -0.341 N 
ATOM     15  H   UNL     1      -1.947  -0.271  -0.191  0.00  0.00    +0.146 HD
BRANCH  14  16
ATOM     16  C   UNL     1      -1.034  -2.161   0.128  0.00  0.00    +0.074 C 
ATOM     17  C   UNL     1      -2.430  -2.722   0.481  0.00  0.00    +0.026 C 
ATOM     18  C   UNL     1      -2.774  -3.691  -0.691  0.00  0.00    -0.009 C 
ATOM     19  C   UNL     1      -3.044  -2.753  -1.907  0.00  0.00    +0.004 C 
ATOM     20  C   UNL     1      -1.657  -2.175  -2.270  0.00  0.00    +0.005 C 
ATOM     21  C   UNL     1      -0.662  -2.843  -1.224  0.00  0.00    +0.009 C 
ATOM     22  C   UNL     1      -1.347  -4.245  -1.037  0.00  0.00    +0.009 C 
ENDBRANCH  14  16
ENDBRANCH   6  14
TORSDOF 3
