REMARK  Name = ZINC62715355
REMARK  9 active torsions:
REMARK  status: ('A' for Active; 'I' for Inactive)
REMARK    1  A    between atoms: C_1  and  C_2
REMARK    2  A    between atoms: C_5  and  C_8
REMARK    3  A    between atoms: C_8  and  O_9
REMARK    4  A    between atoms: O_9  and  C_10
REMARK    5  A    between atoms: C_15  and  C_16
REMARK    6  A    between atoms: C_17  and  C_18
REMARK    7  A    between atoms: N_20  and  N_21
REMARK    8  A    between atoms: N_21  and  C_22
REMARK    9  A    between atoms: C_22  and  N_24
REMARK                            x       y       z     vdW  Elec       q    Type
REMARK                         _______ _______ _______ _____ _____    ______ ____
ROOT
ATOM      1  C   UNL     1       1.608  -6.077  -0.040  0.00  0.00    +0.128 A 
ATOM      2  C   UNL     1       0.522  -6.938  -0.044  0.00  0.00    +0.046 A 
ATOM      3  C   UNL     1       0.722  -8.305  -0.053  0.00  0.00    +0.004 A 
ATOM      4  C   UNL     1       2.006  -8.827  -0.057  0.00  0.00    +0.001 A 
ATOM      5  C   UNL     1       3.098  -7.987  -0.053  0.00  0.00    +0.011 A 
ATOM      6  C   UNL     1       2.910  -6.600  -0.050  0.00  0.00    +0.017 A 
ENDROOT
BRANCH   6   7
ATOM      7  C   UNL     1       4.070  -5.698  -0.051  0.00  0.00    +0.016 C 
ATOM      8  C   UNL     1       5.321  -6.206  -0.061  0.00  0.00    +0.069 C 
BRANCH   8   9
ATOM      9  C   UNL     1       6.475  -5.308  -0.062  0.00  0.00    +0.253 C 
ATOM     10  O   UNL     1       6.308  -4.102  -0.054  0.00  0.00    -0.269 OA
ATOM     11  N   UNL     1       7.723  -5.815  -0.071  0.00  0.00    -0.232 N 
ATOM     12  H   UNL     1       7.857  -6.775  -0.078  0.00  0.00    +0.173 HD
BRANCH  11  13
ATOM     13  N   UNL     1       8.829  -4.954  -0.072  0.00  0.00    -0.246 N 
ATOM     14  H   UNL     1       8.696  -3.993  -0.066  0.00  0.00    +0.172 HD
BRANCH  13  15
ATOM     15  C   UNL     1      10.078  -5.461  -0.082  0.00  0.00    +0.144 C 
ATOM     16  S   UNL     1      11.429  -4.410  -0.083  0.00  0.00    -0.018 S 
BRANCH  15  17
ATOM     17  N   UNL     1      10.263  -6.796  -0.091  0.00  0.00    -0.340 N 
ATOM     18  H   UNL     1       9.497  -7.392  -0.090  0.00  0.00    +0.144 HD
ATOM     19  H   UNL     1      11.162  -7.161  -0.098  0.00  0.00    +0.144 HD
ENDBRANCH  15  17
ENDBRANCH  13  15
ENDBRANCH  11  13
ENDBRANCH   8   9
ENDBRANCH   6   7
BRANCH   1  20
ATOM     20  O   UNL     1       1.413  -4.734  -0.032  0.00  0.00    -0.487 OA
BRANCH  20  21
ATOM     21  C   UNL     1       0.059  -4.275  -0.021  0.00  0.00    +0.264 C 
BRANCH  21  26
ATOM     22  C   UNL     1      -0.018   1.503   0.010  0.00  0.00    +0.044 C 
ATOM     23  C   UNL     1       0.002  -0.004   0.002  0.00  0.00    -0.050 A 
ATOM     24  C   UNL     1       0.006  -0.689  -1.199  0.00  0.00    +0.004 A 
ATOM     25  C   UNL     1       0.025  -2.071  -1.206  0.00  0.00    +0.007 A 
ATOM     26  C   UNL     1       0.040  -2.768  -0.013  0.00  0.00    -0.010 A 
ATOM     27  C   UNL     1       0.037  -2.084   1.188  0.00  0.00    +0.007 A 
ATOM     28  C   UNL     1       0.023  -0.702   1.195  0.00  0.00    +0.004 A 
ENDBRANCH  21  26
ENDBRANCH  20  21
ENDBRANCH   1  20
TORSDOF 8
