REMARK  Name = ZINC04087198
REMARK  5 active torsions:
REMARK  status: ('A' for Active; 'I' for Inactive)
REMARK    1  A    between atoms: C_1  and  N_38
REMARK    2  A    between atoms: C_7  and  N_12
REMARK    3  A    between atoms: C_8  and  C_9
REMARK    4  A    between atoms: C_13  and  C_15
REMARK    5  A    between atoms: C_18  and  N_20
REMARK                            x       y       z     vdW  Elec       q    Type
REMARK                         _______ _______ _______ _____ _____    ______ ____
ROOT
ATOM      1  C   UNL     1       7.677  -2.233  -0.302  0.00  0.00    -0.096 C 
ATOM      2  C   UNL     1       7.044   0.003   0.379  0.00  0.00    -0.074 C 
ATOM      3  C   UNL     1       6.216   1.219  -0.046  0.00  0.00    +0.018 C 
ATOM      4  C   UNL     1       4.745   0.819  -0.038  0.00  0.00    -0.027 A 
ATOM      5  C   UNL     1       4.397  -0.488  -0.042  0.00  0.00    -0.021 A 
ATOM      6  S   UNL     1       2.629  -0.484  -0.018  0.00  0.00    -0.079 S 
ATOM      7  C   UNL     1       2.352   1.226  -0.014  0.00  0.00    +0.085 A 
ATOM      8  C   UNL     1       3.637   1.755  -0.023  0.00  0.00    +0.068 A 
ATOM      9  C   UNL     1       5.333  -1.656  -0.058  0.00  0.00    -0.036 C 
ATOM     10  N   UNL     1       6.673  -1.159  -0.455  0.00  0.00    +0.381 N 
ATOM     11  H   UNL     1       6.643  -0.867  -1.439  0.00  0.00    -0.082 HD
ENDROOT
BRANCH   8  12
ATOM     12  C   UNL     1       3.864   3.204  -0.018  0.00  0.00    +0.244 C 
ATOM     13  O   UNL     1       3.967   3.800   1.038  0.00  0.00    -0.270 OA
ATOM     14  N   UNL     1       3.958   3.875  -1.183  0.00  0.00    -0.325 N 
ATOM     15  H   UNL     1       3.875   3.400  -2.025  0.00  0.00    +0.145 HD
ATOM     16  H   UNL     1       4.108   4.833  -1.180  0.00  0.00    +0.145 HD
ENDBRANCH   8  12
BRANCH   7  17
ATOM     17  N   UNL     1       1.143   1.903   0.001  0.00  0.00    -0.275 N 
ATOM     18  C   UNL     1      -0.014   1.213   0.009  0.00  0.00    +0.255 C 
ATOM     19  O   UNL     1       0.002  -0.004   0.002  0.00  0.00    -0.269 OA
ATOM     20  H   UNL     1       1.130   2.873   0.007  0.00  0.00    +0.156 HD
BRANCH  18  21
ATOM     21  C   UNL     1      -1.293   1.928   0.019  0.00  0.00    +0.076 A 
ATOM     22  C   UNL     1      -2.581   1.415   0.022  0.00  0.00    +0.023 A 
ATOM     23  C   UNL     1      -3.614   2.320   0.032  0.00  0.00    +0.041 A 
ATOM     24  C   UNL     1      -3.332   3.649   0.039  0.00  0.00    +0.164 A 
ATOM     25  S   UNL     1      -1.598   3.686   0.038  0.00  0.00    -0.060 S 
BRANCH  24  26
ATOM     26  N   UNL     1      -4.275   4.789   0.050  0.00  0.00    +0.063 N 
ATOM     27  O   UNL     1      -5.476   4.586   0.054  0.00  0.00    -0.126 OA
ATOM     28  O   UNL     1      -3.851   5.931   0.054  0.00  0.00    -0.126 OA
ENDBRANCH  24  26
ENDBRANCH  18  21
ENDBRANCH   7  17
TORSDOF 4
