REMARK  Name = ZINC40904524
REMARK  7 active torsions:
REMARK  status: ('A' for Active; 'I' for Inactive)
REMARK    1  A    between atoms: C_4  and  C_7
REMARK    2  A    between atoms: C_9  and  C_12
REMARK    3  A    between atoms: C_15  and  N_19
REMARK    4  A    between atoms: C_22  and  C_25
REMARK    5  A    between atoms: N_27  and  C_28
REMARK    6  A    between atoms: C_28  and  C_29
REMARK    7  A    between atoms: C_29  and  C_30
REMARK                            x       y       z     vdW  Elec       q    Type
REMARK                         _______ _______ _______ _____ _____    ______ ____
ROOT
ATOM      1  N   UNL     1       7.312  -7.517  -0.130  0.00  0.00    -0.328 N 
ATOM      2  C   UNL     1       7.596  -8.225   1.125  0.00  0.00    +0.106 C 
ATOM      3  C   UNL     1       9.053  -8.698   1.107  0.00  0.00    +0.031 C 
ATOM      4  C   UNL     1       9.299  -9.530  -0.154  0.00  0.00    +0.078 C 
ATOM      5  C   UNL     1       9.056  -8.666  -1.393  0.00  0.00    +0.031 C 
ATOM      6  C   UNL     1       7.593  -8.195  -1.403  0.00  0.00    +0.106 C 
ENDROOT
BRANCH   1  10
ATOM      7  C   UNL     1       5.724  -3.664  -0.082  0.00  0.00    +0.025 A 
ATOM      8  C   UNL     1       4.875  -4.769  -0.092  0.00  0.00    +0.013 A 
ATOM      9  C   UNL     1       5.403  -6.043  -0.108  0.00  0.00    +0.027 A 
ATOM     10  C   UNL     1       6.781  -6.226  -0.114  0.00  0.00    +0.065 A 
ATOM     11  C   UNL     1       7.631  -5.124  -0.104  0.00  0.00    +0.145 A 
ATOM     12  C   UNL     1       7.106  -3.848  -0.094  0.00  0.00    +0.052 A 
ATOM     13  F   UNL     1       8.970  -5.304  -0.111  0.00  0.00    -0.204 F 
BRANCH   7  16
ATOM     14  C   UNL     1       3.695  -0.685  -0.037  0.00  0.00    +0.259 A 
ATOM     15  N   UNL     1       3.851  -1.988  -0.051  0.00  0.00    -0.187 NA
ATOM     16  C   UNL     1       5.158  -2.293  -0.064  0.00  0.00    +0.202 A 
ATOM     17  N   UNL     1       5.852  -1.180  -0.059  0.00  0.00    -0.056 NA
ATOM     18  O   UNL     1       4.913  -0.115  -0.047  0.00  0.00    -0.332 OA
BRANCH  14  22
ATOM     19  C   UNL     1      -0.017   1.379   0.010  0.00  0.00    +0.000 A 
ATOM     20  C   UNL     1       1.168   2.093   0.002  0.00  0.00    +0.001 A 
ATOM     21  C   UNL     1       2.377   1.429  -0.013  0.00  0.00    +0.013 A 
ATOM     22  C   UNL     1       2.403   0.034  -0.021  0.00  0.00    +0.039 A 
ATOM     23  C   UNL     1       1.204  -0.681  -0.013  0.00  0.00    +0.013 A 
ATOM     24  C   UNL     1       0.002  -0.004   0.002  0.00  0.00    +0.001 A 
ENDBRANCH  14  22
ENDBRANCH   7  16
ENDBRANCH   1  10
BRANCH   4  25
ATOM     25  C   UNL     1      10.722 -10.025  -0.159  0.00  0.00    +0.216 C 
ATOM     26  O   UNL     1      11.466  -9.741   0.756  0.00  0.00    -0.276 OA
ATOM     27  N   UNL     1      11.168 -10.784  -1.179  0.00  0.00    -0.315 N 
ATOM     28  H   UNL     1      10.573 -11.012  -1.911  0.00  0.00    +0.149 HD
BRANCH  27  29
ATOM     29  C   UNL     1      12.552 -11.265  -1.184  0.00  0.00    +0.109 C 
BRANCH  29  30
ATOM     30  C   UNL     1      12.798 -12.097  -2.444  0.00  0.00    +0.054 C 
BRANCH  30  31
ATOM     31  C   UNL     1      14.222 -12.592  -2.449  0.00  0.00    -0.046 A 
ATOM     32  C   UNL     1      15.217 -11.829  -3.031  0.00  0.00    +0.005 A 
ATOM     33  C   UNL     1      16.522 -12.283  -3.035  0.00  0.00    +0.020 A 
ATOM     34  C   UNL     1      16.833 -13.501  -2.457  0.00  0.00    +0.041 A 
ATOM     35  C   UNL     1      15.837 -14.264  -1.875  0.00  0.00    +0.020 A 
ATOM     36  C   UNL     1      14.533 -13.807  -1.866  0.00  0.00    +0.005 A 
ATOM     37 CL   UNL     1      18.473 -14.072  -2.463  0.00  0.00    -0.084 Cl
ENDBRANCH  30  31
ENDBRANCH  29  30
ENDBRANCH  27  29
ENDBRANCH   4  25
TORSDOF 7
