REMARK  Name = ZINC30977843
REMARK  14 active torsions:
REMARK  status: ('A' for Active; 'I' for Inactive)
REMARK    1  A    between atoms: C_1  and  C_2
REMARK    2  A    between atoms: C_2  and  C_3
REMARK    3  A    between atoms: C_2  and  C_4
REMARK    4  A    between atoms: C_2  and  C_5
REMARK    5  A    between atoms: C_8  and  C_11
REMARK    6  A    between atoms: C_13  and  C_16
REMARK    7  A    between atoms: C_16  and  N_17
REMARK    8  A    between atoms: C_20  and  C_23
REMARK    9  A    between atoms: N_25  and  C_26
REMARK   10  A    between atoms: C_26  and  C_27
REMARK   11  A    between atoms: C_27  and  C_28
REMARK   12  A    between atoms: C_28  and  S_29
REMARK   13  A    between atoms: S_29  and  C_30
REMARK   14  A    between atoms: C_30  and  C_31
REMARK                            x       y       z     vdW  Elec       q    Type
REMARK                         _______ _______ _______ _____ _____    ______ ____
ROOT
ATOM      1  N   UNL     1      -4.999   0.229  -1.252  0.00  0.00    +0.386 N 
ATOM      2  C   UNL     1      -4.971   1.043  -0.030  0.00  0.00    -0.077 C 
ATOM      3  C   UNL     1      -3.660   1.831   0.029  0.00  0.00    -0.006 C 
ATOM      4  C   UNL     1      -2.482   0.853   0.018  0.00  0.00    +0.071 C 
ATOM      5  C   UNL     1      -2.562  -0.016  -1.240  0.00  0.00    -0.006 C 
ATOM      6  C   UNL     1      -3.905  -0.750  -1.262  0.00  0.00    -0.077 C 
ATOM      7  H   UNL     1      -4.854   0.903  -2.108  0.00  0.00    -0.081 HD
ENDROOT
BRANCH   4   8
ATOM      8  C   UNL     1      -1.187   1.624   0.017  0.00  0.00    +0.216 C 
ATOM      9  O   UNL     1      -1.204   2.837   0.023  0.00  0.00    -0.276 OA
ATOM     10  N   UNL     1      -0.011   0.966   0.007  0.00  0.00    -0.315 N 
ATOM     11  H   UNL     1       0.004  -0.134   0.006  0.00  0.00    +0.149 HD
BRANCH  10  12
ATOM     12  C   UNL     1       1.248   1.716  -0.001  0.00  0.00    +0.105 C 
BRANCH  12  13
ATOM     13  C   UNL     1       2.424   0.737  -0.017  0.00  0.00    +0.029 C 
BRANCH  13  14
ATOM     14  C   UNL     1       3.738   1.520  -0.025  0.00  0.00    +0.071 C 
BRANCH  14  15
ATOM     15  S   UNL     1       5.133   0.360  -0.045  0.00  0.00    -0.156 S 
BRANCH  15  16
ATOM     16  C   UNL     1       6.596   1.433  -0.053  0.00  0.00    +0.107 C 
BRANCH  16  17
ATOM     17  C   UNL     1       7.841   0.584  -0.070  0.00  0.00    -0.002 A 
ATOM     18  C   UNL     1       8.427   0.193   1.120  0.00  0.00    +0.007 A 
ATOM     19  C   UNL     1       9.566  -0.590   1.105  0.00  0.00    +0.000 A 
ATOM     20  C   UNL     1      10.126  -0.974  -0.099  0.00  0.00    +0.003 A 
ATOM     21  C   UNL     1       9.546  -0.579  -1.290  0.00  0.00    +0.038 A 
ATOM     22  C   UNL     1       8.402   0.201  -1.276  0.00  0.00    +0.127 A 
ATOM     23  F   UNL     1       7.833   0.587  -2.439  0.00  0.00    -0.205 F 
ENDBRANCH  16  17
ENDBRANCH  15  16
ENDBRANCH  14  15
ENDBRANCH  13  14
ENDBRANCH  12  13
ENDBRANCH  10  12
ENDBRANCH   4   8
BRANCH   1  24
ATOM     24  C   UNL     1      -6.300  -0.434  -1.413  0.00  0.00    +0.022 C 
BRANCH  24  27
ATOM     25  C   UNL     1      -6.269  -2.383  -4.433  0.00  0.00    +0.202 A 
ATOM     26  N   UNL     1      -6.015  -2.270  -3.109  0.00  0.00    -0.193 NA
ATOM     27  C   UNL     1      -6.381  -1.056  -2.783  0.00  0.00    +0.211 A 
ATOM     28  O   UNL     1      -6.846  -0.473  -3.893  0.00  0.00    -0.340 OA
ATOM     29  N   UNL     1      -6.771  -1.242  -4.828  0.00  0.00    -0.056 NA
BRANCH  25  33
ATOM     30  C   UNL     1      -5.568  -5.807  -6.855  0.00  0.00    -0.042 A 
ATOM     31  C   UNL     1      -6.108  -4.664  -7.417  0.00  0.00    +0.005 A 
ATOM     32  C   UNL     1      -6.338  -3.550  -6.635  0.00  0.00    +0.012 A 
ATOM     33  C   UNL     1      -6.025  -3.578  -5.278  0.00  0.00    +0.022 A 
ATOM     34  C   UNL     1      -5.476  -4.730  -4.718  0.00  0.00    +0.012 A 
ATOM     35  C   UNL     1      -5.255  -5.840  -5.508  0.00  0.00    +0.005 A 
BRANCH  30  37
ATOM     36  C   UNL     1      -4.342  -6.660  -8.835  0.00  0.00    +0.015 C 
ATOM     37  C   UNL     1      -5.319  -7.020  -7.714  0.00  0.00    -0.013 C 
ATOM     38  C   UNL     1      -4.721  -8.138  -6.857  0.00  0.00    +0.015 C 
ATOM     39  C   UNL     1      -6.640  -7.495  -8.322  0.00  0.00    +0.015 C 
ENDBRANCH  30  37
ENDBRANCH  25  33
ENDBRANCH  24  27
ENDBRANCH   1  24
TORSDOF 11
