REMARK  Name = ZINC09881575
REMARK  12 active torsions:
REMARK  status: ('A' for Active; 'I' for Inactive)
REMARK    1  A    between atoms: C_1  and  C_2
REMARK    2  A    between atoms: C_2  and  C_3
REMARK    3  A    between atoms: C_3  and  C_5
REMARK    4  A    between atoms: C_3  and  C_6
REMARK    5  A    between atoms: C_11  and  N_12
REMARK    6  A    between atoms: C_13  and  C_15
REMARK    7  A    between atoms: C_15  and  C_17
REMARK    8  A    between atoms: C_15  and  S_18
REMARK    9  A    between atoms: S_18  and  C_19
REMARK   10  A    between atoms: C_22  and  C_31
REMARK   11  A    between atoms: N_23  and  C_24
REMARK   12  A    between atoms: C_31  and  N_69
REMARK                            x       y       z     vdW  Elec       q    Type
REMARK                         _______ _______ _______ _____ _____    ______ ____
ROOT
ATOM      1  C   UNL     1      -2.496   1.532   1.183  0.00  0.00    +0.197 A 
ATOM      2  N   UNL     1      -2.890   0.858   0.128  0.00  0.00    -0.122 NA
ATOM      3  N   UNL     1      -4.142   0.583   0.227  0.00  0.00    -0.135 NA
ATOM      4  C   UNL     1      -4.620   1.062   1.340  0.00  0.00    +0.122 A 
ATOM      5  N   UNL     1      -3.587   1.680   1.994  0.00  0.00    -0.276 N 
ENDROOT
BRANCH   5   6
ATOM      6  C   UNL     1      -3.639   2.331   3.236  0.00  0.00    +0.050 A 
ATOM      7  C   UNL     1      -3.918   1.609   4.388  0.00  0.00    +0.029 A 
ATOM      8  C   UNL     1      -3.964   2.251   5.610  0.00  0.00    +0.040 A 
ATOM      9  C   UNL     1      -3.741   3.616   5.685  0.00  0.00    +0.124 A 
ATOM     10  C   UNL     1      -3.467   4.339   4.536  0.00  0.00    +0.040 A 
ATOM     11  C   UNL     1      -3.416   3.699   3.313  0.00  0.00    +0.029 A 
ATOM     12  F   UNL     1      -3.791   4.243   6.881  0.00  0.00    -0.205 F 
ENDBRANCH   5   6
BRANCH   1  13
ATOM     13  S   UNL     1      -0.868   2.128   1.498  0.00  0.00    -0.073 S 
BRANCH  13  14
ATOM     14  C   UNL     1      -0.025   1.541   0.007  0.00  0.00    +0.137 C 
ATOM     15  C   UNL     1      -0.017   0.011  -0.005  0.00  0.00    +0.029 C 
BRANCH  14  17
ATOM     16  N   UNL     1       2.051   2.193  -1.170  0.00  0.00    -0.284 N 
ATOM     17  C   UNL     1       1.393   2.051  -0.002  0.00  0.00    +0.230 C 
ATOM     18  O   UNL     1       1.942   2.334   1.042  0.00  0.00    -0.274 OA
ATOM     19  H   UNL     1       1.642   1.892  -1.996  0.00  0.00    +0.155 HD
BRANCH  16  25
ATOM     20  C   UNL     1       4.210   2.473  -2.216  0.00  0.00    -0.023 A 
ATOM     21  C   UNL     1       5.464   3.052  -2.235  0.00  0.00    +0.006 A 
ATOM     22  C   UNL     1       5.841   3.922  -1.229  0.00  0.00    +0.000 A 
ATOM     23  C   UNL     1       4.962   4.220  -0.203  0.00  0.00    +0.002 A 
ATOM     24  C   UNL     1       3.706   3.648  -0.180  0.00  0.00    +0.023 A 
ATOM     25  C   UNL     1       3.324   2.774  -1.190  0.00  0.00    +0.037 A 
BRANCH  20  26
ATOM     26  C   UNL     1       3.802   1.519  -3.309  0.00  0.00    +0.017 C 
ATOM     27  C   UNL     1       4.678   0.266  -3.246  0.00  0.00    +0.012 C 
BRANCH  26  29
ATOM     28  C   UNL     1       3.449   1.277  -5.771  0.00  0.00    +0.004 C 
ATOM     29  C   UNL     1       3.979   2.197  -4.669  0.00  0.00    +0.004 C 
ENDBRANCH  26  29
ENDBRANCH  20  26
ENDBRANCH  16  25
ENDBRANCH  14  17
ENDBRANCH  13  14
ENDBRANCH   1  13
BRANCH   4  30
ATOM     30  C   UNL     1      -6.043   0.951   1.823  0.00  0.00    -0.001 C 
BRANCH  30  36
ATOM     31  C   UNL     1      -6.008  -1.469   1.793  0.00  0.00    -0.078 C 
ATOM     32  C   UNL     1      -6.028  -2.715   2.681  0.00  0.00    -0.019 C 
ATOM     33  C   UNL     1      -7.368  -2.788   3.419  0.00  0.00    -0.004 C 
ATOM     34  C   UNL     1      -7.561  -1.508   4.237  0.00  0.00    -0.019 C 
ATOM     35  C   UNL     1      -7.496  -0.297   3.303  0.00  0.00    -0.078 C 
ATOM     36  N   UNL     1      -6.174  -0.271   2.643  0.00  0.00    +0.384 N 
ATOM     37  H   UNL     1      -5.442  -0.269   3.363  0.00  0.00    -0.081 HD
ENDBRANCH  30  36
ENDBRANCH   4  30
TORSDOF 9
