REMARK  Name = ZINC20419195
REMARK  15 active torsions:
REMARK  status: ('A' for Active; 'I' for Inactive)
REMARK    1  A    between atoms: C_1  and  C_2
REMARK    2  A    between atoms: C_7  and  C_8
REMARK    3  A    between atoms: C_11  and  S_16
REMARK    4  A    between atoms: N_12  and  C_13
REMARK    5  A    between atoms: C_13  and  C_14
REMARK    6  A    between atoms: S_16  and  C_17
REMARK    7  A    between atoms: C_17  and  C_18
REMARK    8  A    between atoms: N_20  and  C_21
REMARK    9  A    between atoms: C_22  and  C_32
REMARK   10  A    between atoms: C_23  and  C_31
REMARK   11  A    between atoms: C_24  and  C_26
REMARK   12  A    between atoms: N_28  and  C_29
REMARK   13  A    between atoms: N_28  and  C_30
REMARK   14  A    between atoms: C_32  and  O_34
REMARK   15  A    between atoms: O_34  and  C_35
REMARK                            x       y       z     vdW  Elec       q    Type
REMARK                         _______ _______ _______ _____ _____    ______ ____
ROOT
ATOM      1  C   UNL     1      -7.699  -0.591  -1.862  0.00  0.00    +0.228 C 
ATOM      2  O   UNL     1      -7.194  -0.882  -2.925  0.00  0.00    -0.275 OA
ATOM      3  N   UNL     1      -8.448  -1.495  -1.201  0.00  0.00    -0.279 N 
ATOM      4  H   UNL     1      -8.906  -1.231  -0.236  0.00  0.00    +0.155 HD
ENDROOT
BRANCH   3   5
ATOM      5  C   UNL     1      -8.641  -2.754  -1.735  0.00  0.00    +0.087 A 
ATOM      6  C   UNL     1      -9.377  -3.821  -1.209  0.00  0.00    +0.091 A 
ATOM      7  C   UNL     1      -9.422  -4.998  -1.942  0.00  0.00    -0.015 A 
ATOM      8  C   UNL     1      -8.743  -5.033  -3.129  0.00  0.00    +0.079 A 
ATOM      9  S   UNL     1      -8.038  -3.399  -3.227  0.00  0.00    -0.068 S 
ATOM     10  C   UNL     1     -10.192  -6.195  -1.448  0.00  0.00    +0.046 C 
BRANCH   8  11
ATOM     11  C   UNL     1      -8.630  -6.137  -4.085  0.00  0.00    +0.253 C 
ATOM     12  O   UNL     1      -9.509  -6.976  -4.153  0.00  0.00    -0.269 OA
ATOM     13  N   UNL     1      -7.551  -6.224  -4.889  0.00  0.00    -0.303 N 
ATOM     14  C   UNL     1      -7.388  -7.381  -5.773  0.00  0.00    +0.132 C 
ATOM     15  C   UNL     1      -6.542  -5.162  -4.878  0.00  0.00    +0.132 C 
ENDBRANCH   8  11
BRANCH   6  16
ATOM     16  C   UNL     1     -10.077  -3.700   0.075  0.00  0.00    +0.342 C 
ATOM     17  O   UNL     1     -11.227  -3.304   0.105  0.00  0.00    -0.245 OA
BRANCH  16  18
ATOM     18  O   UNL     1      -9.446  -4.027   1.221  0.00  0.00    -0.464 OA
ATOM     19  C   UNL     1     -10.200  -3.882   2.453  0.00  0.00    +0.280 C 
ENDBRANCH  16  18
ENDBRANCH   6  16
ENDBRANCH   3   5
BRANCH   1  20
ATOM     20  C   UNL     1      -7.488   0.783  -1.279  0.00  0.00    +0.173 C 
BRANCH  20  21
ATOM     21  S   UNL     1      -6.446   1.757  -2.392  0.00  0.00    -0.077 S 
BRANCH  21  25
ATOM     22  C   UNL     1      -5.921   5.313  -0.860  0.00  0.00    +0.165 A 
ATOM     23  N   UNL     1      -6.679   4.723   0.035  0.00  0.00    -0.128 NA
ATOM     24  N   UNL     1      -6.938   3.519  -0.335  0.00  0.00    -0.122 NA
ATOM     25  C   UNL     1      -6.365   3.269  -1.491  0.00  0.00    +0.193 A 
ATOM     26  N   UNL     1      -5.694   4.399  -1.863  0.00  0.00    -0.298 N 
BRANCH  22  33
ATOM     27  C   UNL     1      -4.717   6.290   1.583  0.00  0.00    +0.044 C 
ATOM     28  C   UNL     1      -4.826   7.181   0.372  0.00  0.00    -0.040 A 
ATOM     29  C   UNL     1      -4.346   8.473   0.420  0.00  0.00    +0.004 A 
ATOM     30  C   UNL     1      -4.450   9.294  -0.689  0.00  0.00    +0.000 A 
ATOM     31  C   UNL     1      -5.031   8.824  -1.853  0.00  0.00    +0.001 A 
ATOM     32  C   UNL     1      -5.511   7.532  -1.915  0.00  0.00    +0.012 A 
ATOM     33  C   UNL     1      -5.409   6.699  -0.800  0.00  0.00    +0.022 A 
ENDBRANCH  22  33
BRANCH  26  34
ATOM     34  C   UNL     1      -4.902   4.599  -3.079  0.00  0.00    +0.152 C 
BRANCH  34  35
ATOM     35  C   UNL     1      -3.505   4.080  -2.860  0.00  0.00    -0.013 C 
ATOM     36  C   UNL     1      -2.481   4.889  -2.973  0.00  0.00    +0.005 C 
ENDBRANCH  34  35
ENDBRANCH  26  34
ENDBRANCH  21  25
ENDBRANCH  20  21
ENDBRANCH   1  20
TORSDOF 10
