REMARK  Name = ZINC38971032
REMARK  6 active torsions:
REMARK  status: ('A' for Active; 'I' for Inactive)
REMARK    1  A    between atoms: C_1  and  O_2
REMARK    2  A    between atoms: O_2  and  C_3
REMARK    3  A    between atoms: C_6  and  S_9
REMARK    4  A    between atoms: S_9  and  N_12
REMARK    5  A    between atoms: C_14  and  N_24
REMARK    6  A    between atoms: N_24  and  C_25
REMARK                            x       y       z     vdW  Elec       q    Type
REMARK                         _______ _______ _______ _____ _____    ______ ____
ROOT
ATOM      1  N   UNL     1      -5.872  -2.862  -1.389  0.00  0.00    -0.110 NA
ATOM      2  C   UNL     1      -6.919  -3.529  -1.778  0.00  0.00    +0.192 C 
ATOM      3  C   UNL     1      -7.168  -3.776  -3.249  0.00  0.00    +0.237 C 
ATOM      4  N   UNL     1      -8.371  -4.537  -3.623  0.00  0.00    -0.359 N 
ATOM      5  C   UNL     1      -9.160  -4.959  -2.675  0.00  0.00    +0.063 A 
ATOM      6  C   UNL     1     -10.374  -5.724  -2.997  0.00  0.00    +0.027 A 
ATOM      7  C   UNL     1     -11.167  -6.145  -1.987  0.00  0.00    +0.002 A 
ATOM      8  C   UNL     1     -10.861  -5.871  -0.644  0.00  0.00    +0.002 A 
ATOM      9  C   UNL     1      -9.765  -5.175  -0.271  0.00  0.00    +0.030 A 
ATOM     10  C   UNL     1      -8.861  -4.685  -1.248  0.00  0.00    +0.089 A 
ATOM     11  N   UNL     1      -7.792  -4.011  -0.879  0.00  0.00    -0.226 NA
ATOM     12  H   UNL     1      -8.572  -4.720  -4.554  0.00  0.00    +0.162 HD
ENDROOT
BRANCH   1  13
ATOM     13  S   UNL     1      -5.607  -2.604   0.225  0.00  0.00    +0.100 S 
ATOM     14  O   UNL     1      -5.353  -3.877   0.803  0.00  0.00    -0.146 OA
ATOM     15  O   UNL     1      -6.655  -1.757   0.678  0.00  0.00    -0.146 OA
BRANCH  13  19
ATOM     16  C   UNL     1      -1.771  -0.227   0.590  0.00  0.00    +0.120 A 
ATOM     17  C   UNL     1      -2.987   0.430   0.473  0.00  0.00    +0.047 A 
ATOM     18  C   UNL     1      -4.156  -0.297   0.362  0.00  0.00    +0.032 A 
ATOM     19  C   UNL     1      -4.115  -1.679   0.367  0.00  0.00    +0.113 A 
ATOM     20  C   UNL     1      -2.904  -2.337   0.483  0.00  0.00    +0.032 A 
ATOM     21  C   UNL     1      -1.731  -1.613   0.589  0.00  0.00    +0.047 A 
BRANCH  16  23
ATOM     22  C   UNL     1      -0.736   1.911   0.693  0.00  0.00    +0.277 C 
ATOM     23  O   UNL     1      -0.619   0.487   0.699  0.00  0.00    -0.495 OA
ENDBRANCH  16  23
ENDBRANCH  13  19
ENDBRANCH   1  13
BRANCH   3  24
ATOM     24  N   UNL     1      -7.239  -2.474  -3.916  0.00  0.00    -0.317 N 
ATOM     25  H   UNL     1      -7.737  -1.747  -3.510  0.00  0.00    +0.148 HD
BRANCH  24  26
ATOM     26  C   UNL     1      -6.587  -2.278  -5.136  0.00  0.00    +0.043 A 
ATOM     27  C   UNL     1      -5.981  -3.348  -5.781  0.00  0.00    +0.024 A 
ATOM     28  C   UNL     1      -5.338  -3.151  -6.987  0.00  0.00    +0.002 A 
ATOM     29  C   UNL     1      -5.297  -1.890  -7.554  0.00  0.00    +0.001 A 
ATOM     30  C   UNL     1      -5.900  -0.822  -6.915  0.00  0.00    +0.017 A 
ATOM     31  C   UNL     1      -6.549  -1.013  -5.710  0.00  0.00    +0.039 A 
ATOM     32 BR   UNL     1      -7.379   0.447  -4.841  0.00  0.00    -0.048 Br
ENDBRANCH  24  26
ENDBRANCH   3  24
TORSDOF 5
