REMARK  Name = ZINC25692236
REMARK  12 active torsions:
REMARK  status: ('A' for Active; 'I' for Inactive)
REMARK    1  A    between atoms: C_3  and  O_35
REMARK    2  A    between atoms: C_6  and  C_7
REMARK    3  A    between atoms: C_8  and  C_9
REMARK    4  A    between atoms: C_9  and  C_11
REMARK    5  A    between atoms: C_14  and  O_34
REMARK    6  A    between atoms: C_16  and  O_17
REMARK    7  A    between atoms: O_17  and  C_18
REMARK    8  A    between atoms: C_20  and  O_33
REMARK    9  A    between atoms: C_22  and  O_32
REMARK   10  A    between atoms: C_24  and  O_31
REMARK   11  A    between atoms: C_26  and  C_29
REMARK   12  A    between atoms: C_29  and  O_30
REMARK                            x       y       z     vdW  Elec       q    Type
REMARK                         _______ _______ _______ _____ _____    ______ ____
ROOT
ATOM      1  C   UNL     1       5.589   2.080  -2.385  0.00  0.00    +0.064 A 
ATOM      2  C   UNL     1       6.337   1.832  -3.541  0.00  0.00    +0.019 A 
ATOM      3  C   UNL     1       5.754   1.198  -4.613  0.00  0.00    +0.046 A 
ATOM      4  C   UNL     1       4.421   0.802  -4.554  0.00  0.00    +0.120 A 
ATOM      5  C   UNL     1       3.671   1.038  -3.411  0.00  0.00    +0.091 A 
ATOM      6  C   UNL     1       4.245   1.680  -2.327  0.00  0.00    +0.138 A 
ENDROOT
BRANCH   1   7
ATOM      7  C   UNL     1       6.210   2.759  -1.233  0.00  0.00    +0.190 C 
ATOM      8  O   UNL     1       5.556   2.973  -0.228  0.00  0.00    -0.287 OA
BRANCH   7  10
ATOM      9  C   UNL     1       8.179   3.796  -0.241  0.00  0.00    +0.012 C 
ATOM     10  C   UNL     1       7.610   3.174  -1.297  0.00  0.00    +0.052 C 
BRANCH   9  16
ATOM     11  C   UNL     1      10.342   3.962  -1.457  0.00  0.00    +0.011 A 
ATOM     12  C   UNL     1      11.659   4.359  -1.513  0.00  0.00    +0.046 A 
ATOM     13  C   UNL     1      12.242   4.999  -0.425  0.00  0.00    +0.117 A 
ATOM     14  C   UNL     1      11.498   5.246   0.723  0.00  0.00    +0.046 A 
ATOM     15  C   UNL     1      10.179   4.858   0.788  0.00  0.00    +0.011 A 
ATOM     16  C   UNL     1       9.586   4.213  -0.305  0.00  0.00    -0.025 A 
BRANCH  13  17
ATOM     17  O   UNL     1      13.542   5.384  -0.485  0.00  0.00    -0.507 OA
ATOM     18  H   UNL     1      14.005   5.891   0.375  0.00  0.00    +0.292 HD
ENDBRANCH  13  17
ENDBRANCH   9  16
ENDBRANCH   7  10
ENDBRANCH   1   7
BRANCH   4  19
ATOM     19  O   UNL     1       3.854   0.176  -5.616  0.00  0.00    -0.507 OA
ATOM     20  H   UNL     1       2.801  -0.138  -5.572  0.00  0.00    +0.292 HD
ENDBRANCH   4  19
BRANCH   6  21
ATOM     21  O   UNL     1       3.512   1.917  -1.210  0.00  0.00    -0.460 OA
BRANCH  21  22
ATOM     22  C   UNL     1       2.151   1.482  -1.223  0.00  0.00    +0.339 C 
ATOM     23  C   UNL     1       1.422   2.047  -0.001  0.00  0.00    +0.214 C 
ATOM     24  C   UNL     1      -0.019   1.528   0.010  0.00  0.00    +0.180 C 
ATOM     25  C   UNL     1       0.002  -0.004   0.002  0.00  0.00    +0.177 C 
ATOM     26  C   UNL     1       0.785  -0.489  -1.221  0.00  0.00    +0.179 C 
ATOM     27  O   UNL     1       2.106   0.054  -1.185  0.00  0.00    -0.331 OA
BRANCH  25  28
ATOM     28  O   UNL     1       0.633  -0.480   1.193  0.00  0.00    -0.386 OA
ATOM     29  H   UNL     1       0.740  -1.561   1.364  0.00  0.00    +0.210 HD
ENDBRANCH  25  28
BRANCH  24  30
ATOM     30  O   UNL     1      -0.707   2.003  -1.148  0.00  0.00    -0.386 OA
ATOM     31  H   UNL     1      -1.760   1.730  -1.313  0.00  0.00    +0.210 HD
ENDBRANCH  24  30
BRANCH  23  32
ATOM     32  O   UNL     1       1.415   3.474  -0.066  0.00  0.00    -0.383 OA
ATOM     33  H   UNL     1       0.933   4.059   0.731  0.00  0.00    +0.210 HD
ENDBRANCH  23  32
BRANCH  26  34
ATOM     34  C   UNL     1       0.862  -2.017  -1.204  0.00  0.00    +0.190 C 
BRANCH  34  35
ATOM     35  O   UNL     1       1.490  -2.476  -2.403  0.00  0.00    -0.392 OA
ATOM     36  H   UNL     1       1.635  -3.553  -2.571  0.00  0.00    +0.210 HD
ENDBRANCH  34  35
ENDBRANCH  26  34
ENDBRANCH  21  22
ENDBRANCH   6  21
TORSDOF 12
