REMARK  Name = ZINC09972539
REMARK  12 active torsions:
REMARK  status: ('A' for Active; 'I' for Inactive)
REMARK    1  A    between atoms: C_1  and  C_2
REMARK    2  A    between atoms: C_2  and  C_3
REMARK    3  A    between atoms: C_3  and  C_5
REMARK    4  A    between atoms: C_3  and  C_6
REMARK    5  A    between atoms: C_9  and  N_12
REMARK    6  A    between atoms: C_13  and  C_15
REMARK    7  A    between atoms: C_15  and  S_16
REMARK    8  A    between atoms: S_16  and  C_17
REMARK    9  A    between atoms: N_21  and  C_22
REMARK   10  A    between atoms: C_22  and  C_23
REMARK   11  A    between atoms: N_32  and  C_37
REMARK   12  A    between atoms: N_35  and  C_36
REMARK                            x       y       z     vdW  Elec       q    Type
REMARK                         _______ _______ _______ _____ _____    ______ ____
ROOT
ATOM      1  C   UNL     1      -2.937   2.719  -0.183  0.00  0.00    +0.172 A 
ATOM      2  N   UNL     1      -1.944   3.570  -0.011  0.00  0.00    -0.204 NA
ATOM      3  C   UNL     1      -0.776   2.935  -0.123  0.00  0.00    +0.169 A 
ATOM      4  C   UNL     1      -1.049   1.594  -0.374  0.00  0.00    +0.153 A 
ATOM      5  N   UNL     1      -2.432   1.476  -0.406  0.00  0.00    -0.309 N 
ATOM      6  C   UNL     1       0.020   0.694  -0.530  0.00  0.00    +0.282 A 
ATOM      7  O   UNL     1      -0.196  -0.486  -0.746  0.00  0.00    -0.265 OA
ATOM      8  N   UNL     1       1.286   1.151  -0.443  0.00  0.00    -0.262 N 
ATOM      9  C   UNL     1       1.539   2.450  -0.205  0.00  0.00    +0.333 A 
ATOM     10  O   UNL     1       2.693   2.826  -0.134  0.00  0.00    -0.246 OA
ATOM     11  N   UNL     1       0.545   3.344  -0.045  0.00  0.00    -0.280 N 
ATOM     12  C   UNL     1       0.862   4.752   0.213  0.00  0.00    +0.155 C 
ATOM     13  C   UNL     1       2.403   0.218  -0.611  0.00  0.00    +0.157 C 
ENDROOT
BRANCH   1  14
ATOM     14  S   UNL     1      -4.650   3.127  -0.121  0.00  0.00    -0.078 S 
BRANCH  14  15
ATOM     15  C   UNL     1      -4.538   4.905   0.203  0.00  0.00    +0.173 C 
BRANCH  15  17
ATOM     16  N   UNL     1      -6.089   6.802   0.536  0.00  0.00    -0.285 N 
ATOM     17  C   UNL     1      -5.925   5.486   0.298  0.00  0.00    +0.227 C 
ATOM     18  O   UNL     1      -6.894   4.769   0.161  0.00  0.00    -0.275 OA
ATOM     19  H   UNL     1      -5.317   7.388   0.573  0.00  0.00    +0.155 HD
BRANCH  16  23
ATOM     20  C   UNL     1      -9.912   8.354   1.116  0.00  0.00    -0.044 A 
ATOM     21  C   UNL     1      -9.619   7.069   1.532  0.00  0.00    +0.006 A 
ATOM     22  C   UNL     1      -8.352   6.551   1.341  0.00  0.00    +0.023 A 
ATOM     23  C   UNL     1      -7.373   7.324   0.731  0.00  0.00    +0.033 A 
ATOM     24  C   UNL     1      -7.669   8.617   0.319  0.00  0.00    +0.023 A 
ATOM     25  C   UNL     1      -8.939   9.126   0.507  0.00  0.00    +0.006 A 
BRANCH  20  26
ATOM     26  C   UNL     1     -11.294   8.915   1.325  0.00  0.00    +0.016 C 
ATOM     27  C   UNL     1     -11.210  10.165   2.204  0.00  0.00    +0.012 C 
BRANCH  26  29
ATOM     28  C   UNL     1     -13.354   9.737   0.173  0.00  0.00    +0.004 C 
ATOM     29  C   UNL     1     -11.906   9.284  -0.028  0.00  0.00    +0.004 C 
ENDBRANCH  26  29
ENDBRANCH  20  26
ENDBRANCH  16  23
ENDBRANCH  15  17
ENDBRANCH  14  15
ENDBRANCH   1  14
BRANCH   5  30
ATOM     30  C   UNL     1      -3.199   0.249  -0.634  0.00  0.00    +0.162 C 
BRANCH  30  31
ATOM     31  C   UNL     1      -3.374   0.034  -2.115  0.00  0.00    +0.007 A 
ATOM     32  C   UNL     1      -2.484  -0.765  -2.808  0.00  0.00    +0.008 A 
ATOM     33  C   UNL     1      -2.644  -0.963  -4.167  0.00  0.00    +0.000 A 
ATOM     34  C   UNL     1      -3.695  -0.362  -4.834  0.00  0.00    +0.003 A 
ATOM     35  C   UNL     1      -4.587   0.437  -4.144  0.00  0.00    +0.039 A 
ATOM     36  C   UNL     1      -4.430   0.632  -2.782  0.00  0.00    +0.128 A 
ATOM     37  F   UNL     1      -5.304   1.408  -2.105  0.00  0.00    -0.205 F 
ENDBRANCH  30  31
ENDBRANCH   5  30
TORSDOF 8
