REMARK  Name = ZINC39088330
REMARK  0 active torsions:
REMARK  status: ('A' for Active; 'I' for Inactive)
REMARK                            x       y       z     vdW  Elec       q    Type
REMARK                         _______ _______ _______ _____ _____    ______ ____
ROOT
ATOM      1  C   UNL     1      -0.018   1.508   0.010  0.00  0.00    +0.013 C 
ATOM      2  C   UNL     1       1.122   2.182   0.003  0.00  0.00    +0.039 C 
ATOM      3  C   UNL     1       2.434   1.537  -0.013  0.00  0.00    +0.160 C 
ATOM      4  C   UNL     1       2.596   0.218  -0.022  0.00  0.00    +0.202 C 
ATOM      5  C   UNL     1       1.383  -0.686  -0.015  0.00  0.00    +0.296 C 
ATOM      6  C   UNL     1       0.002  -0.004   0.002  0.00  0.00    +0.217 C 
ATOM      7  O   UNL     1       0.561  -0.641   1.153  0.00  0.00    -0.324 OA
ATOM      8  F   UNL     1       1.524  -1.910  -0.678  0.00  0.00    -0.200 F 
ATOM      9  F   UNL     1       3.838  -0.314  -0.038  0.00  0.00    -0.201 F 
ATOM     10  F   UNL     1       3.535   2.320  -0.021  0.00  0.00    -0.203 F 
ENDROOT
TORSDOF 0
