REMARK  Name = ZINC08694575
REMARK  7 active torsions:
REMARK  status: ('A' for Active; 'I' for Inactive)
REMARK    1  A    between atoms: C_4  and  N_7
REMARK    2  A    between atoms: N_7  and  C_8
REMARK    3  A    between atoms: C_11  and  N_14
REMARK    4  A    between atoms: N_14  and  C_15
REMARK    5  A    between atoms: C_15  and  N_17
REMARK    6  A    between atoms: C_20  and  N_23
REMARK    7  A    between atoms: C_25  and  C_28
REMARK                            x       y       z     vdW  Elec       q    Type
REMARK                         _______ _______ _______ _____ _____    ______ ____
ROOT
ATOM      1  C   UNL     1       7.138   5.297   0.584  0.00  0.00    +0.137 C 
ATOM      2  S   UNL     1       5.642   6.128   0.613  0.00  0.00    -0.018 S 
ENDROOT
BRANCH   1   3
ATOM      3  N   UNL     1       8.288   5.972   0.779  0.00  0.00    -0.312 N 
ATOM      4  C   UNL     1       9.585   5.291   0.664  0.00  0.00    +0.109 C 
ATOM      5  C   UNL     1      10.389   5.533   1.940  0.00  0.00    +0.047 C 
ATOM      6  C   UNL     1      10.490   7.037   2.200  0.00  0.00    +0.133 C 
ATOM      7  C   UNL     1       9.087   7.618   2.394  0.00  0.00    +0.047 C 
ATOM      8  C   UNL     1       8.269   7.402   1.117  0.00  0.00    +0.109 C 
BRANCH   6   9
ATOM      9  N   UNL     1      11.286   7.272   3.408  0.00  0.00    -0.160 N 
ATOM     10  N   UNL     1      12.383   7.946   3.457  0.00  0.00    -0.130 NA
ATOM     11  C   UNL     1      12.805   7.938   4.708  0.00  0.00    +0.211 A 
ATOM     12  N   UNL     1      11.909   7.228   5.410  0.00  0.00    -0.107 NA
ATOM     13  N   UNL     1      10.995   6.842   4.586  0.00  0.00    -0.045 NA
BRANCH  11  14
ATOM     14  C   UNL     1      14.026   8.586   5.233  0.00  0.00    +0.060 A 
ATOM     15  C   UNL     1      14.505   8.614   6.515  0.00  0.00    +0.019 A 
ATOM     16  C   UNL     1      15.681   9.286   6.769  0.00  0.00    +0.008 A 
ATOM     17  C   UNL     1      16.322   9.907   5.746  0.00  0.00    +0.046 A 
ATOM     18  S   UNL     1      15.256   9.543   4.361  0.00  0.00    -0.093 S 
ENDBRANCH  11  14
ENDBRANCH   6   9
ENDBRANCH   1   3
BRANCH   1  19
ATOM     19  N   UNL     1       7.167   3.967   0.366  0.00  0.00    -0.297 N 
ATOM     20  H   UNL     1       8.017   3.506   0.286  0.00  0.00    +0.154 HD
BRANCH  19  24
ATOM     21  C   UNL     1       3.600   1.831   0.037  0.00  0.00    +0.031 A 
ATOM     22  C   UNL     1       4.630   1.344   0.831  0.00  0.00    +0.025 A 
ATOM     23  C   UNL     1       5.813   2.049   0.936  0.00  0.00    +0.025 A 
ATOM     24  C   UNL     1       5.968   3.249   0.256  0.00  0.00    +0.033 A 
ATOM     25  C   UNL     1       4.936   3.739  -0.534  0.00  0.00    +0.025 A 
ATOM     26  C   UNL     1       3.756   3.032  -0.643  0.00  0.00    +0.025 A 
BRANCH  21  27
ATOM     27  N   UNL     1       2.403   1.115  -0.073  0.00  0.00    -0.314 N 
ATOM     28  H   UNL     1       1.556   1.587  -0.103  0.00  0.00    +0.152 HD
BRANCH  27  32
ATOM     29  C   UNL     1       2.477  -3.044  -0.275  0.00  0.00    +0.000 A 
ATOM     30  C   UNL     1       1.275  -2.383  -0.098  0.00  0.00    +0.002 A 
ATOM     31  C   UNL     1       1.246  -1.004  -0.036  0.00  0.00    +0.023 A 
ATOM     32  C   UNL     1       2.428  -0.281  -0.141  0.00  0.00    +0.031 A 
ATOM     33  C   UNL     1       3.634  -0.948  -0.313  0.00  0.00    +0.023 A 
ATOM     34  C   UNL     1       3.655  -2.327  -0.379  0.00  0.00    +0.002 A 
ENDBRANCH  27  32
ENDBRANCH  21  27
ENDBRANCH  19  24
ENDBRANCH   1  19
TORSDOF 7
