REMARK  Name = ZINC09041753
REMARK  15 active torsions:
REMARK  status: ('A' for Active; 'I' for Inactive)
REMARK    1  A    between atoms: C_1  and  C_2
REMARK    2  A    between atoms: C_2  and  C_3
REMARK    3  A    between atoms: C_3  and  O_4
REMARK    4  A    between atoms: O_4  and  C_5
REMARK    5  A    between atoms: C_8  and  C_11
REMARK    6  A    between atoms: C_14  and  C_15
REMARK    7  A    between atoms: C_14  and  O_25
REMARK    8  A    between atoms: C_18  and  O_21
REMARK    9  A    between atoms: O_21  and  C_22
REMARK   10  A    between atoms: C_22  and  C_23
REMARK   11  A    between atoms: N_30  and  C_31
REMARK   12  A    between atoms: C_31  and  C_32
REMARK   13  A    between atoms: C_32  and  N_66
REMARK   14  A    between atoms: C_33  and  N_66
REMARK   15  A    between atoms: C_34  and  N_66
REMARK                            x       y       z     vdW  Elec       q    Type
REMARK                         _______ _______ _______ _____ _____    ______ ____
ROOT
ATOM      1  C   UNL     1       3.370  -4.720  -5.793  0.00  0.00    +0.144 C 
ATOM      2  C   UNL     1       2.429  -4.683  -6.975  0.00  0.00    +0.071 C 
ATOM      3  C   UNL     1       1.073  -4.947  -6.965  0.00  0.00    +0.133 C 
ATOM      4  C   UNL     1       3.210  -4.326  -8.084  0.00  0.00    +0.249 C 
ATOM      5  O   UNL     1       2.810  -4.193  -9.226  0.00  0.00    -0.282 OA
ATOM      6  C   UNL     1       4.613  -4.140  -7.624  0.00  0.00    +0.288 C 
ATOM      7  O   UNL     1       5.543  -3.827  -8.338  0.00  0.00    -0.266 OA
ATOM      8  N   UNL     1       4.698  -4.368  -6.302  0.00  0.00    -0.285 N 
ENDROOT
BRANCH   1  12
ATOM      9  C   UNL     1       2.132  -1.880  -2.849  0.00  0.00    +0.121 A 
ATOM     10  C   UNL     1       2.793  -1.453  -3.992  0.00  0.00    +0.046 A 
ATOM     11  C   UNL     1       3.196  -2.373  -4.939  0.00  0.00    +0.009 A 
ATOM     12  C   UNL     1       2.933  -3.718  -4.755  0.00  0.00    -0.022 A 
ATOM     13  C   UNL     1       2.270  -4.146  -3.619  0.00  0.00    +0.009 A 
ATOM     14  C   UNL     1       1.869  -3.229  -2.666  0.00  0.00    +0.046 A 
BRANCH   9  15
ATOM     15  O   UNL     1       1.739  -0.977  -1.913  0.00  0.00    -0.492 OA
BRANCH  15  16
ATOM     16  C   UNL     1       2.043   0.396  -2.167  0.00  0.00    +0.229 C 
BRANCH  16  18
ATOM     17  C   UNL     1       1.853   2.726  -1.285  0.00  0.00    +0.007 C 
ATOM     18  C   UNL     1       1.526   1.256  -1.012  0.00  0.00    +0.038 C 
ENDBRANCH  16  18
ENDBRANCH  15  16
ENDBRANCH   9  15
ENDBRANCH   1  12
BRANCH   3  19
ATOM     19  C   UNL     1       0.271  -4.723  -8.178  0.00  0.00    +0.017 A 
ATOM     20  C   UNL     1       0.336  -3.494  -8.845  0.00  0.00    +0.015 A 
ATOM     21  C   UNL     1      -0.412  -3.291  -9.982  0.00  0.00    +0.046 A 
ATOM     22  C   UNL     1      -1.240  -4.300 -10.462  0.00  0.00    +0.121 A 
ATOM     23  C   UNL     1      -1.312  -5.521  -9.800  0.00  0.00    +0.046 A 
ATOM     24  C   UNL     1      -0.564  -5.736  -8.665  0.00  0.00    +0.015 A 
BRANCH  22  25
ATOM     25  O   UNL     1      -1.980  -4.093 -11.581  0.00  0.00    -0.488 OA
BRANCH  25  26
ATOM     26  C   UNL     1      -1.859  -2.816 -12.211  0.00  0.00    +0.256 C 
BRANCH  26  27
ATOM     27  C   UNL     1      -2.747  -2.771 -13.428  0.00  0.00    +0.006 C 
ATOM     28  C   UNL     1      -3.496  -1.720 -13.653  0.00  0.00    +0.007 C 
ENDBRANCH  26  27
ENDBRANCH  25  26
ENDBRANCH  22  25
ENDBRANCH   3  19
BRANCH   3  29
ATOM     29  O   UNL     1       0.484  -5.412  -5.843  0.00  0.00    -0.506 OA
ATOM     30  H   UNL     1      -0.492  -5.548  -6.011  0.00  0.00    +0.292 HD
ENDBRANCH   3  29
BRANCH   8  31
ATOM     31  C   UNL     1       5.921  -4.280  -5.501  0.00  0.00    +0.090 C 
BRANCH  31  32
ATOM     32  C   UNL     1       6.617  -5.643  -5.481  0.00  0.00    -0.060 C 
BRANCH  32  35
ATOM     33  C   UNL     1       8.412  -6.888  -4.437  0.00  0.00    -0.097 C 
ATOM     34  C   UNL     1       8.828  -4.669  -5.314  0.00  0.00    -0.097 C 
ATOM     35  N   UNL     1       7.837  -5.543  -4.652  0.00  0.00    +0.377 N 
ATOM     36  H   UNL     1       7.589  -5.137  -3.742  0.00  0.00    -0.083 HD
ENDBRANCH  32  35
ENDBRANCH  31  32
ENDBRANCH   8  31
TORSDOF 12
