REMARK  Name = ZINC40498007
REMARK  5 active torsions:
REMARK  status: ('A' for Active; 'I' for Inactive)
REMARK    1  A    between atoms: C_1  and  C_2
REMARK    2  A    between atoms: C_5  and  C_24
REMARK    3  A    between atoms: N_13  and  C_14
REMARK    4  A    between atoms: C_14  and  C_15
REMARK    5  A    between atoms: C_18  and  C_21
REMARK                            x       y       z     vdW  Elec       q    Type
REMARK                         _______ _______ _______ _____ _____    ______ ____
ROOT
ATOM      1  C   UNL     1      -0.005   1.545   0.011  0.00  0.00    +0.028 C 
ATOM      2  C   UNL     1      -0.009   0.015  -0.016  0.00  0.00    +0.072 C 
ATOM      3  C   UNL     1       0.728  -0.484  -1.266  0.00  0.00    +0.039 C 
ATOM      4  C   UNL     1       2.141   0.099  -1.272  0.00  0.00    +0.108 C 
ATOM      5  C   UNL     1       2.822  -0.157   0.046  0.00  0.00    -0.014 A 
ATOM      6  C   UNL     1       4.205  -0.107   0.107  0.00  0.00    +0.006 A 
ATOM      7  C   UNL     1       4.859  -0.334   1.302  0.00  0.00    +0.000 A 
ATOM      8  C   UNL     1       4.136  -0.613   2.448  0.00  0.00    +0.002 A 
ATOM      9  C   UNL     1       2.757  -0.666   2.396  0.00  0.00    +0.023 A 
ATOM     10  C   UNL     1       2.097  -0.439   1.194  0.00  0.00    +0.034 A 
ATOM     11  N   UNL     1       0.698  -0.505   1.161  0.00  0.00    -0.323 N 
ENDROOT
BRANCH   4  12
ATOM     12  C   UNL     1       2.941  -0.546  -2.374  0.00  0.00    +0.218 C 
ATOM     13  O   UNL     1       2.775  -1.718  -2.638  0.00  0.00    -0.275 OA
ATOM     14  N   UNL     1       3.840   0.180  -3.067  0.00  0.00    -0.329 N 
ATOM     15  H   UNL     1       4.025   1.097  -2.811  0.00  0.00    +0.145 HD
ATOM     16  H   UNL     1       4.303  -0.215  -3.823  0.00  0.00    +0.145 HD
ENDBRANCH   4  12
BRANCH  11  17
ATOM     17  C   UNL     1      -0.047  -1.084   2.282  0.00  0.00    +0.140 C 
BRANCH  17  18
ATOM     18  C   UNL     1      -0.227  -2.563   2.055  0.00  0.00    -0.030 A 
ATOM     19  C   UNL     1      -1.338  -3.025   1.371  0.00  0.00    +0.006 A 
ATOM     20  C   UNL     1      -1.508  -4.377   1.159  0.00  0.00    +0.013 A 
ATOM     21  C   UNL     1      -0.558  -5.281   1.637  0.00  0.00    +0.037 A 
ATOM     22  C   UNL     1       0.560  -4.809   2.327  0.00  0.00    +0.013 A 
ATOM     23  C   UNL     1       0.722  -3.453   2.526  0.00  0.00    +0.006 A 
BRANCH  21  24
ATOM     24  C   UNL     1      -0.735  -6.732   1.415  0.00  0.00    +0.242 C 
ATOM     25  O   UNL     1      -1.710  -7.140   0.814  0.00  0.00    -0.270 OA
ATOM     26  N   UNL     1       0.185  -7.601   1.878  0.00  0.00    -0.325 N 
ATOM     27  H   UNL     1       0.963  -7.276   2.357  0.00  0.00    +0.145 HD
ATOM     28  H   UNL     1       0.069  -8.553   1.732  0.00  0.00    +0.145 HD
ENDBRANCH  21  24
ENDBRANCH  17  18
ENDBRANCH  11  17
TORSDOF 4
