REMARK  Name = ZINC36029747
REMARK  6 active torsions:
REMARK  status: ('A' for Active; 'I' for Inactive)
REMARK    1  A    between atoms: C_4  and  C_7
REMARK    2  A    between atoms: C_7  and  C_8
REMARK    3  A    between atoms: N_12  and  C_33
REMARK    4  A    between atoms: N_22  and  C_23
REMARK    5  A    between atoms: C_26  and  C_29
REMARK    6  A    between atoms: C_33  and  C_34
REMARK                            x       y       z     vdW  Elec       q    Type
REMARK                         _______ _______ _______ _____ _____    ______ ____
ROOT
ATOM      1  C   UNL     1       3.443  -1.843   1.740  0.00  0.00    +0.023 C 
ATOM      2  C   UNL     1       4.928  -2.092   1.585  0.00  0.00    +0.201 C 
ATOM      3  O   UNL     1       5.435  -2.929   0.869  0.00  0.00    -0.277 OA
ATOM      4  N   UNL     1       5.592  -1.224   2.377  0.00  0.00    -0.313 N 
ATOM      5  C   UNL     1       4.631  -0.377   3.088  0.00  0.00    +0.006 C 
ATOM      6  N   UNL     1       3.345  -0.503   2.367  0.00  0.00    +0.401 N 
ATOM      7  C   UNL     1       5.095   1.078   3.071  0.00  0.00    +0.025 C 
ATOM      8  C   UNL     1       6.444   1.191   3.788  0.00  0.00    +0.109 C 
ATOM      9  N   UNL     1       6.316   0.605   5.130  0.00  0.00    -0.285 N 
ATOM     10  C   UNL     1       5.807  -0.767   5.256  0.00  0.00    +0.109 C 
ATOM     11  C   UNL     1       4.463  -0.864   4.527  0.00  0.00    +0.025 C 
ATOM     12  C   UNL     1       6.660   1.313   6.223  0.00  0.00    +0.306 C 
ATOM     13  O   UNL     1       6.939   2.492   6.121  0.00  0.00    -0.252 OA
ATOM     14  N   UNL     1       6.695   0.715   7.430  0.00  0.00    -0.269 N 
ATOM     15  H   UNL     1       3.261   0.215   1.663  0.00  0.00    -0.082 HD
ATOM     16  H   UNL     1       6.596  -0.248   7.497  0.00  0.00    +0.156 HD
ATOM     17  H   UNL     1       2.569  -0.466   3.011  0.00  0.00    -0.082 HD
ENDROOT
BRANCH  14  18
ATOM     18  C   UNL     1       6.874   1.482   8.587  0.00  0.00    +0.035 A 
ATOM     19  C   UNL     1       7.572   2.681   8.526  0.00  0.00    +0.024 A 
ATOM     20  C   UNL     1       7.747   3.436   9.669  0.00  0.00    +0.014 A 
ATOM     21  C   UNL     1       7.228   2.999  10.874  0.00  0.00    +0.055 A 
ATOM     22  C   UNL     1       6.532   1.805  10.938  0.00  0.00    +0.014 A 
ATOM     23  C   UNL     1       6.349   1.049   9.797  0.00  0.00    +0.024 A 
BRANCH  21  24
ATOM     24  C   UNL     1       7.420   3.825  12.119  0.00  0.00    +0.417 C 
ATOM     25  F   UNL     1       6.356   4.723  12.253  0.00  0.00    -0.166 F 
ATOM     26  F   UNL     1       7.463   2.983  13.236  0.00  0.00    -0.166 F 
ATOM     27  F   UNL     1       8.621   4.537  12.026  0.00  0.00    -0.166 F 
ENDBRANCH  21  24
ENDBRANCH  14  18
BRANCH   1  28
ATOM     28  C   UNL     1       2.757  -1.843   0.372  0.00  0.00    +0.028 C 
BRANCH  28  32
ATOM     29  C   UNL     1      -1.446  -1.278   0.885  0.00  0.00    +0.000 A 
ATOM     30  C   UNL     1      -0.615  -0.184   0.728  0.00  0.00    +0.000 A 
ATOM     31  C   UNL     1       0.745  -0.367   0.563  0.00  0.00    +0.003 A 
ATOM     32  C   UNL     1       1.275  -1.643   0.554  0.00  0.00    -0.048 A 
ATOM     33  C   UNL     1       0.445  -2.737   0.712  0.00  0.00    +0.003 A 
ATOM     34  C   UNL     1      -0.916  -2.555   0.876  0.00  0.00    +0.000 A 
ENDBRANCH  28  32
ENDBRANCH   1  28
BRANCH   4  35
ATOM     35  C   UNL     1       7.050  -1.141   2.504  0.00  0.00    +0.109 C 
BRANCH  35  36
ATOM     36  C   UNL     1       7.607  -0.230   1.409  0.00  0.00    +0.006 C 
ATOM     37  C   UNL     1       8.556   0.891   1.837  0.00  0.00    +0.005 C 
ATOM     38  C   UNL     1       9.101  -0.332   1.097  0.00  0.00    +0.005 C 
ENDBRANCH  35  36
ENDBRANCH   4  35
TORSDOF 6
