REMARK  Name = ZINC30986178
REMARK  8 active torsions:
REMARK  status: ('A' for Active; 'I' for Inactive)
REMARK    1  A    between atoms: C_3  and  C_13
REMARK    2  A    between atoms: C_5  and  C_7
REMARK    3  A    between atoms: C_7  and  N_8
REMARK    4  A    between atoms: C_13  and  N_14
REMARK    5  A    between atoms: C_15  and  C_17
REMARK    6  A    between atoms: N_20  and  C_23
REMARK    7  A    between atoms: C_23  and  C_24
REMARK    8  A    between atoms: C_26  and  C_29
REMARK                            x       y       z     vdW  Elec       q    Type
REMARK                         _______ _______ _______ _____ _____    ______ ____
ROOT
ATOM      1  C   UNL     1       1.420   2.051  -0.001  0.00  0.00    +0.071 C 
ATOM      2  C   UNL     1      -0.019   1.526   0.010  0.00  0.00    -0.006 C 
ATOM      3  C   UNL     1       0.002  -0.004   0.002  0.00  0.00    -0.077 C 
ATOM      4  N   UNL     1       0.706  -0.479  -1.196  0.00  0.00    +0.386 N 
ATOM      5  C   UNL     1       2.103  -0.026  -1.205  0.00  0.00    -0.077 C 
ATOM      6  C   UNL     1       2.145   1.503  -1.232  0.00  0.00    -0.006 C 
ATOM      7  H   UNL     1       0.207  -0.042  -2.073  0.00  0.00    -0.081 HD
ENDROOT
BRANCH   1   9
ATOM      8  N   UNL     1       2.566   4.242  -0.071  0.00  0.00    -0.311 N 
ATOM      9  C   UNL     1       1.405   3.557  -0.053  0.00  0.00    +0.216 C 
ATOM     10  O   UNL     1       0.349   4.153  -0.079  0.00  0.00    -0.276 OA
ATOM     11  H   UNL     1       3.524   3.701  -0.047  0.00  0.00    +0.149 HD
BRANCH   8  12
ATOM     12  C   UNL     1       2.553   5.706  -0.121  0.00  0.00    +0.139 C 
BRANCH  12  15
ATOM     13  C   UNL     1       5.923   6.890  -1.343  0.00  0.00    +0.001 A 
ATOM     14  C   UNL     1       4.624   6.417  -1.333  0.00  0.00    +0.005 A 
ATOM     15  C   UNL     1       3.969   6.222  -0.132  0.00  0.00    -0.030 A 
ATOM     16  C   UNL     1       4.610   6.505   1.059  0.00  0.00    +0.010 A 
ATOM     17  C   UNL     1       5.910   6.973   1.050  0.00  0.00    -0.027 A 
ATOM     18  C   UNL     1       6.566   7.168  -0.152  0.00  0.00    +0.005 A 
BRANCH  17  19
ATOM     19  C   UNL     1       6.612   7.277   2.349  0.00  0.00    +0.157 C 
BRANCH  19  20
ATOM     20  N   UNL     1       6.366   8.672   2.722  0.00  0.00    -0.332 N 
ATOM     21  C   UNL     1       7.133   9.752   2.376  0.00  0.00    +0.107 A 
ATOM     22  C   UNL     1       6.549  10.835   2.922  0.00  0.00    +0.130 A 
ATOM     23  N   UNL     1       5.461  10.427   3.592  0.00  0.00    -0.244 NA
ATOM     24  C   UNL     1       5.345   9.132   3.476  0.00  0.00    +0.199 A 
ENDBRANCH  19  20
ENDBRANCH  17  19
ENDBRANCH  12  15
ENDBRANCH   8  12
ENDBRANCH   1   9
BRANCH   4  25
ATOM     25  C   UNL     1       0.626  -1.941  -1.309  0.00  0.00    +0.022 C 
BRANCH  25  26
ATOM     26  C   UNL     1       1.139  -2.369  -2.660  0.00  0.00    +0.211 A 
ATOM     27  N   UNL     1       2.376  -2.675  -2.961  0.00  0.00    -0.193 NA
ATOM     28  C   UNL     1       2.361  -2.996  -4.275  0.00  0.00    +0.202 A 
ATOM     29  N   UNL     1       1.128  -2.869  -4.689  0.00  0.00    -0.056 NA
ATOM     30  O   UNL     1       0.415  -2.515  -3.774  0.00  0.00    -0.340 OA
BRANCH  28  31
ATOM     31  C   UNL     1       3.527  -3.416  -5.092  0.00  0.00    +0.024 A 
ATOM     32  C   UNL     1       3.361  -3.718  -6.442  0.00  0.00    +0.012 A 
ATOM     33  C   UNL     1       4.448  -4.108  -7.198  0.00  0.00    +0.002 A 
ATOM     34  C   UNL     1       5.701  -4.198  -6.619  0.00  0.00    +0.020 A 
ATOM     35  C   UNL     1       5.872  -3.899  -5.278  0.00  0.00    +0.042 A 
ATOM     36  C   UNL     1       4.791  -3.503  -4.514  0.00  0.00    +0.031 A 
ATOM     37 CL   UNL     1       7.447  -4.015  -4.558  0.00  0.00    -0.084 Cl
ENDBRANCH  28  31
ENDBRANCH  25  26
ENDBRANCH   4  25
TORSDOF 8
