REMARK  Name = ZINC13730028
REMARK  14 active torsions:
REMARK  status: ('A' for Active; 'I' for Inactive)
REMARK    1  A    between atoms: C_1  and  C_2
REMARK    2  A    between atoms: C_2  and  O_3
REMARK    3  A    between atoms: O_3  and  C_4
REMARK    4  A    between atoms: C_8  and  C_19
REMARK    5  A    between atoms: C_9  and  O_10
REMARK    6  A    between atoms: O_10  and  C_11
REMARK    7  A    between atoms: C_11  and  C_12
REMARK    8  A    between atoms: C_19  and  N_62
REMARK    9  A    between atoms: C_20  and  C_21
REMARK   10  A    between atoms: C_20  and  N_62
REMARK   11  A    between atoms: C_21  and  C_22
REMARK   12  A    between atoms: C_22  and  S_23
REMARK   13  A    between atoms: S_23  and  C_24
REMARK   14  A    between atoms: N_28  and  C_29
REMARK                            x       y       z     vdW  Elec       q    Type
REMARK                         _______ _______ _______ _____ _____    ______ ____
ROOT
ATOM      1  C   UNL     1       3.709  -0.723  -0.038  0.00  0.00    -0.043 C 
ENDROOT
BRANCH   1   6
ATOM      2  C   UNL     1       1.174   2.087   0.002  0.00  0.00    +0.162 A 
ATOM      3  C   UNL     1      -0.017   1.378   0.010  0.00  0.00    +0.049 A 
ATOM      4  C   UNL     1       0.002  -0.004   0.002  0.00  0.00    +0.004 A 
ATOM      5  C   UNL     1       1.207  -0.682  -0.013  0.00  0.00    +0.005 A 
ATOM      6  C   UNL     1       2.398   0.019  -0.021  0.00  0.00    -0.019 A 
ATOM      7  C   UNL     1       2.386   1.405  -0.014  0.00  0.00    +0.164 A 
BRANCH   2   8
ATOM      8  O   UNL     1       1.157   3.447   0.009  0.00  0.00    -0.489 OA
BRANCH   8  10
ATOM      9  C   UNL     1       0.058   5.599   0.030  0.00  0.00    +0.048 C 
ATOM     10  C   UNL     1      -0.124   4.080   0.024  0.00  0.00    +0.226 C 
ENDBRANCH   8  10
ENDBRANCH   2   8
BRANCH   7  11
ATOM     11  O   UNL     1       3.557   2.096  -0.022  0.00  0.00    -0.483 OA
BRANCH  11  12
ATOM     12  C   UNL     1       4.103   2.433  -1.299  0.00  0.00    +0.267 C 
BRANCH  12  13
ATOM     13  C   UNL     1       5.391   3.192  -1.111  0.00  0.00    +0.025 A 
ATOM     14  C   UNL     1       5.857   3.458   0.163  0.00  0.00    +0.010 A 
ATOM     15  C   UNL     1       7.042   4.149   0.336  0.00  0.00    +0.001 A 
ATOM     16  C   UNL     1       7.757   4.584  -0.765  0.00  0.00    +0.003 A 
ATOM     17  C   UNL     1       7.290   4.323  -2.039  0.00  0.00    +0.039 A 
ATOM     18  C   UNL     1       6.106   3.626  -2.214  0.00  0.00    +0.130 A 
ATOM     19  F   UNL     1       5.649   3.371  -3.459  0.00  0.00    -0.205 F 
ENDBRANCH  12  13
ENDBRANCH  11  12
ENDBRANCH   7  11
ENDBRANCH   1   6
BRANCH   1  20
ATOM     20  N   UNL     1       4.263  -0.757   1.329  0.00  0.00    +0.382 N 
ATOM     21  H   UNL     1       3.599  -1.235   1.951  0.00  0.00    -0.085 HD
ATOM     22  H   UNL     1       4.410   0.203   1.659  0.00  0.00    -0.085 HD
BRANCH  20  23
ATOM     23  C   UNL     1       5.549  -1.480   1.343  0.00  0.00    -0.081 C 
BRANCH  23  24
ATOM     24  C   UNL     1       6.098  -1.499   2.771  0.00  0.00    -0.008 C 
BRANCH  24  25
ATOM     25  C   UNL     1       7.432  -2.246   2.795  0.00  0.00    +0.075 C 
BRANCH  25  26
ATOM     26  S   UNL     1       8.081  -2.269   4.484  0.00  0.00    -0.084 S 
BRANCH  26  27
ATOM     27  C   UNL     1       9.577  -3.165   4.225  0.00  0.00    +0.214 A 
ATOM     28  N   UNL     1      10.014  -3.643   3.080  0.00  0.00    -0.101 NA
ATOM     29  N   UNL     1      11.138  -4.243   3.243  0.00  0.00    -0.022 NA
ATOM     30  N   UNL     1      11.498  -4.195   4.479  0.00  0.00    -0.038 NA
ATOM     31  N   UNL     1      10.498  -3.486   5.168  0.00  0.00    -0.187 N 
BRANCH  31  32
ATOM     32  C   UNL     1      10.460  -3.179   6.536  0.00  0.00    +0.070 A 
ATOM     33  C   UNL     1       9.917  -1.976   6.964  0.00  0.00    +0.028 A 
ATOM     34  C   UNL     1       9.876  -1.678   8.312  0.00  0.00    +0.002 A 
ATOM     35  C   UNL     1      10.385  -2.574   9.235  0.00  0.00    +0.000 A 
ATOM     36  C   UNL     1      10.931  -3.771   8.811  0.00  0.00    +0.002 A 
ATOM     37  C   UNL     1      10.970  -4.076   7.465  0.00  0.00    +0.028 A 
ENDBRANCH  31  32
ENDBRANCH  26  27
ENDBRANCH  25  26
ENDBRANCH  24  25
ENDBRANCH  23  24
ENDBRANCH  20  23
ENDBRANCH   1  20
TORSDOF 13
