REMARK  Name = ZINC19941324
REMARK  14 active torsions:
REMARK  status: ('A' for Active; 'I' for Inactive)
REMARK    1  A    between atoms: C_1  and  C_2
REMARK    2  A    between atoms: C_2  and  C_3
REMARK    3  A    between atoms: C_3  and  C_4
REMARK    4  A    between atoms: C_3  and  C_5
REMARK    5  A    between atoms: C_3  and  N_6
REMARK    6  A    between atoms: C_7  and  C_11
REMARK    7  A    between atoms: C_11  and  C_13
REMARK    8  A    between atoms: C_11  and  N_26
REMARK    9  A    between atoms: C_17  and  C_25
REMARK   10  A    between atoms: N_26  and  C_27
REMARK   11  A    between atoms: N_26  and  C_35
REMARK   12  A    between atoms: C_27  and  C_28
REMARK   13  A    between atoms: C_28  and  C_29
REMARK   14  A    between atoms: C_35  and  C_36
REMARK                            x       y       z     vdW  Elec       q    Type
REMARK                         _______ _______ _______ _____ _____    ______ ____
ROOT
ATOM      1  C   UNL     1       2.421   1.696  -0.064  0.00  0.00    +0.163 C 
ENDROOT
BRANCH   1   2
ATOM      2  C   UNL     1       1.438   2.789  -0.391  0.00  0.00    +0.042 A 
ATOM      3  C   UNL     1       0.106   2.546  -0.313  0.00  0.00    +0.021 A 
ATOM      4  C   UNL     1      -0.823   3.628  -0.643  0.00  0.00    -0.001 A 
ATOM      5  C   UNL     1      -2.208   3.435  -0.586  0.00  0.00    +0.013 A 
ATOM      6  C   UNL     1      -3.048   4.466  -0.899  0.00  0.00    -0.050 A 
ATOM      7  C   UNL     1      -2.541   5.702  -1.274  0.00  0.00    +0.005 A 
ATOM      8  C   UNL     1      -1.180   5.918  -1.328  0.00  0.00    +0.026 A 
ATOM      9  C   UNL     1      -0.305   4.882  -1.017  0.00  0.00    +0.049 A 
ATOM     10  N   UNL     1       1.060   5.065  -1.076  0.00  0.00    -0.322 N 
ATOM     11  H   UNL     1       1.472   6.042  -1.372  0.00  0.00    +0.169 HD
ATOM     12  C   UNL     1       1.906   4.064  -0.776  0.00  0.00    +0.254 A 
ATOM     13  O   UNL     1       3.107   4.262  -0.840  0.00  0.00    -0.268 OA
ATOM     14  C   UNL     1      -4.539   4.258  -0.839  0.00  0.00    +0.044 C 
ENDBRANCH   1   2
BRANCH   1  16
ATOM     15  N   UNL     1       3.133   1.475   2.376  0.00  0.00    -0.222 N 
ATOM     16  C   UNL     1       3.199   2.072   1.171  0.00  0.00    +0.174 A 
ATOM     17  N   UNL     1       4.066   3.049   1.282  0.00  0.00    -0.111 NA
ATOM     18  N   UNL     1       4.514   3.048   2.490  0.00  0.00    -0.023 NA
ATOM     19  N   UNL     1       3.954   2.096   3.153  0.00  0.00    -0.043 NA
BRANCH  15  20
ATOM     20  C   UNL     1       2.289   0.333   2.735  0.00  0.00    +0.062 C 
ATOM     21  C   UNL     1       0.823   0.679   2.473  0.00  0.00    +0.036 C 
ATOM     22  C   UNL     1       2.686  -0.880   1.891  0.00  0.00    +0.036 C 
BRANCH  20  24
ATOM     23  C   UNL     1       1.598  -1.188   4.593  0.00  0.00    +0.006 C 
ATOM     24  C   UNL     1       2.479   0.006   4.218  0.00  0.00    +0.026 C 
ENDBRANCH  20  24
ENDBRANCH  15  20
ENDBRANCH   1  16
BRANCH   1  25
ATOM     25  N   UNL     1       3.348   1.517  -1.190  0.00  0.00    -0.284 NA
BRANCH  25  26
ATOM     26  C   UNL     1       4.427   0.584  -0.841  0.00  0.00    +0.090 C 
BRANCH  26  27
ATOM     27  C   UNL     1       5.521   0.648  -1.908  0.00  0.00    +0.050 C 
BRANCH  27  28
ATOM     28  C   UNL     1       6.637  -0.297  -1.541  0.00  0.00    -0.046 A 
ATOM     29  C   UNL     1       7.694   0.148  -0.770  0.00  0.00    +0.003 A 
ATOM     30  C   UNL     1       8.714  -0.719  -0.429  0.00  0.00    +0.000 A 
ATOM     31  C   UNL     1       8.683  -2.030  -0.869  0.00  0.00    +0.000 A 
ATOM     32  C   UNL     1       7.629  -2.473  -1.645  0.00  0.00    +0.000 A 
ATOM     33  C   UNL     1       6.606  -1.607  -1.981  0.00  0.00    +0.003 A 
ENDBRANCH  27  28
ENDBRANCH  26  27
ENDBRANCH  25  26
BRANCH  25  34
ATOM     34  C   UNL     1       2.633   1.069  -2.393  0.00  0.00    +0.120 C 
BRANCH  34  35
ATOM     35  C   UNL     1       2.087  -0.317  -2.166  0.00  0.00    -0.033 A 
ATOM     36  C   UNL     1       2.840  -1.423  -2.515  0.00  0.00    +0.005 A 
ATOM     37  C   UNL     1       2.341  -2.694  -2.302  0.00  0.00    +0.000 A 
ATOM     38  C   UNL     1       1.085  -2.860  -1.749  0.00  0.00    +0.000 A 
ATOM     39  C   UNL     1       0.330  -1.755  -1.405  0.00  0.00    +0.000 A 
ATOM     40  C   UNL     1       0.831  -0.483  -1.613  0.00  0.00    +0.005 A 
ENDBRANCH  34  35
ENDBRANCH  25  34
ENDBRANCH   1  25
TORSDOF 10
