REMARK  Name = ZINC40324440
REMARK  5 active torsions:
REMARK  status: ('A' for Active; 'I' for Inactive)
REMARK    1  A    between atoms: C_1  and  C_2
REMARK    2  A    between atoms: C_10  and  C_11
REMARK    3  A    between atoms: C_16  and  C_19
REMARK    4  A    between atoms: C_22  and  O_25
REMARK    5  A    between atoms: O_25  and  C_26
REMARK                            x       y       z     vdW  Elec       q    Type
REMARK                         _______ _______ _______ _____ _____    ______ ____
ROOT
ATOM      1  C   UNL     1       0.031  -0.383   2.483  0.00  0.00    +0.285 C 
ATOM      2  O   UNL     1       0.017   0.805   2.745  0.00  0.00    -0.266 OA
ATOM      3  N   UNL     1       0.053  -1.291   3.478  0.00  0.00    -0.257 N 
ATOM      4  C   UNL     1       0.060  -0.872   4.800  0.00  0.00    +0.185 A 
ATOM      5  N   UNL     1       0.086  -1.606   5.897  0.00  0.00    -0.204 NA
ATOM      6  C   UNL     1       0.087  -0.974   7.058  0.00  0.00    +0.171 A 
ATOM      7  N   UNL     1       0.063   0.344   7.042  0.00  0.00    -0.187 NA
ATOM      8  S   UNL     1       0.044   0.696   5.403  0.00  0.00    +0.050 S 
ATOM      9  H   UNL     1       0.065  -2.239   3.270  0.00  0.00    +0.157 HD
ENDROOT
BRANCH   1  19
ATOM     10  C   UNL     1      -0.018   1.503   0.010  0.00  0.00    +0.048 C 
ATOM     11  C   UNL     1       0.002  -0.004   0.002  0.00  0.00    +0.008 A 
ATOM     12  C   UNL     1       0.009  -0.877  -1.171  0.00  0.00    +0.024 A 
ATOM     13  C   UNL     1      -0.001  -0.654  -2.550  0.00  0.00    +0.012 A 
ATOM     14  C   UNL     1       0.009  -1.718  -3.408  0.00  0.00    +0.001 A 
ATOM     15  C   UNL     1       0.030  -3.017  -2.918  0.00  0.00    +0.004 A 
ATOM     16  C   UNL     1       0.040  -3.257  -1.561  0.00  0.00    +0.047 A 
ATOM     17  C   UNL     1       0.030  -2.191  -0.669  0.00  0.00    +0.136 A 
ATOM     18  O   UNL     1       0.035  -2.113   0.676  0.00  0.00    -0.450 OA
ATOM     19  C   UNL     1       0.024  -0.827   1.083  0.00  0.00    +0.194 A 
ENDBRANCH   1  19
BRANCH   6  20
ATOM     20  C   UNL     1       0.116  -1.724   8.338  0.00  0.00    +0.020 A 
ATOM     21  C   UNL     1       0.147  -3.117   8.331  0.00  0.00    +0.015 A 
ATOM     22  C   UNL     1       0.174  -3.811   9.522  0.00  0.00    +0.046 A 
ATOM     23  C   UNL     1       0.169  -3.123  10.728  0.00  0.00    +0.127 A 
ATOM     24  C   UNL     1       0.137  -1.735  10.739  0.00  0.00    +0.046 A 
ATOM     25  C   UNL     1       0.117  -1.036   9.550  0.00  0.00    +0.015 A 
BRANCH  23  26
ATOM     26  O   UNL     1       0.195  -3.810  11.900  0.00  0.00    -0.434 OA
BRANCH  26  27
ATOM     27  C   UNL     1       0.189  -3.039  13.104  0.00  0.00    +0.541 C 
ATOM     28  F   UNL     1       1.313  -2.207  13.130  0.00  0.00    -0.166 F 
ATOM     29  F   UNL     1      -0.971  -2.258  13.151  0.00  0.00    -0.166 F 
ENDBRANCH  26  27
ENDBRANCH  23  26
ENDBRANCH   6  20
TORSDOF 4
