REMARK  Name = ZINC63985164
REMARK  8 active torsions:
REMARK  status: ('A' for Active; 'I' for Inactive)
REMARK    1  A    between atoms: C_1  and  C_2
REMARK    2  A    between atoms: C_2  and  C_4
REMARK    3  A    between atoms: C_2  and  N_10
REMARK    4  A    between atoms: C_11  and  O_37
REMARK    5  A    between atoms: C_14  and  O_36
REMARK    6  A    between atoms: C_15  and  C_19
REMARK    7  A    between atoms: C_26  and  O_31
REMARK    8  A    between atoms: O_31  and  C_32
REMARK                            x       y       z     vdW  Elec       q    Type
REMARK                         _______ _______ _______ _____ _____    ______ ____
ROOT
ATOM      1  N   UNL     1       0.810  -0.356   1.173  0.00  0.00    -0.250 N 
ATOM      2  C   UNL     1       0.308  -0.015   2.495  0.00  0.00    +0.335 C 
ATOM      3  N   UNL     1       0.935  -0.807   3.541  0.00  0.00    -0.204 NA
ATOM      4  C   UNL     1       2.050  -1.414   3.409  0.00  0.00    +0.200 C 
ATOM      5  C   UNL     1       2.851  -1.383   2.140  0.00  0.00    +0.179 C 
ATOM      6  C   UNL     1       1.980  -0.982   0.984  0.00  0.00    +0.233 C 
ATOM      7  O   UNL     1       2.345  -1.226  -0.146  0.00  0.00    -0.275 OA
ENDROOT
BRANCH   5   8
ATOM      8  C   UNL     1       3.994  -0.376   2.288  0.00  0.00    +0.101 C 
ATOM      9  C   UNL     1       4.959  -0.848   3.377  0.00  0.00    +0.124 C 
ATOM     10  C   UNL     1       5.962   0.283   3.577  0.00  0.00    -0.036 C 
ATOM     11  C   UNL     1       7.165  -0.253   3.432  0.00  0.00    +0.003 A 
ATOM     12  C   UNL     1       8.517   0.305   3.590  0.00  0.00    +0.055 A 
ATOM     13  C   UNL     1       9.559  -0.537   3.345  0.00  0.00    +0.121 A 
ATOM     14  C   UNL     1       9.409  -1.877   2.959  0.00  0.00    +0.047 A 
ATOM     15  C   UNL     1       8.212  -2.494   2.789  0.00  0.00    +0.029 A 
ATOM     16  C   UNL     1       7.009  -1.686   3.031  0.00  0.00    +0.043 A 
ATOM     17  N   UNL     1       5.736  -2.019   2.972  0.00  0.00    -0.376 N 
ATOM     18  C   UNL     1       5.515   1.709   3.789  0.00  0.00    +0.048 C 
ATOM     19  C   UNL     1       4.463   1.996   2.702  0.00  0.00    +0.085 C 
ATOM     20  N   UNL     1       3.453   0.934   2.683  0.00  0.00    -0.310 NA
ATOM     21  H   UNL     1       2.668   1.191   2.104  0.00  0.00    +0.122 HD
ATOM     22  H   UNL     1       5.371  -2.878   2.706  0.00  0.00    +0.160 HD
BRANCH  13  23
ATOM     23  O   UNL     1      10.820  -0.049   3.482  0.00  0.00    -0.495 OA
ATOM     24  C   UNL     1      11.896  -0.951   3.219  0.00  0.00    +0.277 C 
ENDBRANCH  13  23
ENDBRANCH   5   8
BRANCH   1  26
ATOM     25  C   UNL     1      -1.048   1.032   0.398  0.00  0.00    +0.033 C 
ATOM     26  C   UNL     1       0.003  -0.006   0.001  0.00  0.00    +0.107 C 
BRANCH  26  27
ATOM     27  C   UNL     1      -0.684  -1.242  -0.522  0.00  0.00    -0.027 A 
ATOM     28  C   UNL     1      -1.321  -2.101   0.353  0.00  0.00    +0.005 A 
ATOM     29  C   UNL     1      -1.951  -3.234  -0.128  0.00  0.00    +0.000 A 
ATOM     30  C   UNL     1      -1.944  -3.507  -1.483  0.00  0.00    +0.000 A 
ATOM     31  C   UNL     1      -1.307  -2.647  -2.358  0.00  0.00    +0.000 A 
ATOM     32  C   UNL     1      -0.681  -1.512  -1.878  0.00  0.00    +0.005 A 
ENDBRANCH  26  27
ENDBRANCH   1  26
BRANCH   4  33
ATOM     33  O   UNL     1       2.530  -2.115   4.457  0.00  0.00    -0.495 OA
ATOM     34  H   UNL     1       1.963  -2.090   5.240  0.00  0.00    +0.293 HD
ENDBRANCH   4  33
BRANCH   2  35
ATOM     35  O   UNL     1      -1.103  -0.241   2.528  0.00  0.00    -0.356 OA
ATOM     36  H   UNL     1      -1.502  -0.110   3.399  0.00  0.00    +0.214 HD
ENDBRANCH   2  35
TORSDOF 6
