REMARK  Name = ZINC35704017
REMARK  9 active torsions:
REMARK  status: ('A' for Active; 'I' for Inactive)
REMARK    1  A    between atoms: C_1  and  C_2
REMARK    2  A    between atoms: C_2  and  C_4
REMARK    3  A    between atoms: C_2  and  N_26
REMARK    4  A    between atoms: C_7  and  S_18
REMARK    5  A    between atoms: N_8  and  C_9
REMARK    6  A    between atoms: C_12  and  N_15
REMARK    7  A    between atoms: S_18  and  C_19
REMARK    8  A    between atoms: C_19  and  C_20
REMARK    9  A    between atoms: C_27  and  C_29
REMARK                            x       y       z     vdW  Elec       q    Type
REMARK                         _______ _______ _______ _____ _____    ______ ____
ROOT
ATOM      1  C   UNL     1      -1.412  -0.526   0.013  0.00  0.00    +0.159 A 
ATOM      2  N   UNL     1      -2.238  -0.538  -0.995  0.00  0.00    -0.131 NA
ATOM      3  N   UNL     1      -3.361  -1.052  -0.640  0.00  0.00    -0.122 NA
ATOM      4  C   UNL     1      -3.314  -1.400   0.625  0.00  0.00    +0.196 A 
ATOM      5  N   UNL     1      -2.064  -1.080   1.082  0.00  0.00    -0.273 N 
ENDROOT
BRANCH   5   6
ATOM      6  C   UNL     1      -1.559  -1.276   2.375  0.00  0.00    +0.050 A 
ATOM      7  C   UNL     1      -0.500  -2.150   2.583  0.00  0.00    +0.028 A 
ATOM      8  C   UNL     1      -0.004  -2.341   3.858  0.00  0.00    +0.035 A 
ATOM      9  C   UNL     1      -0.561  -1.663   4.926  0.00  0.00    +0.126 A 
ATOM     10  C   UNL     1      -1.615  -0.792   4.722  0.00  0.00    +0.035 A 
ATOM     11  C   UNL     1      -2.112  -0.593   3.449  0.00  0.00    +0.028 A 
BRANCH   9  12
ATOM     12  N   UNL     1      -0.027  -1.870   6.291  0.00  0.00    +0.056 N 
ATOM     13  O   UNL     1       0.894  -2.632   6.471  0.00  0.00    -0.126 OA
ATOM     14  O   UNL     1      -0.513  -1.278   7.227  0.00  0.00    -0.126 OA
ENDBRANCH   9  12
ENDBRANCH   5   6
BRANCH   1  16
ATOM     15  C   UNL     1      -0.019   1.526   0.010  0.00  0.00    +0.036 C 
ATOM     16  C   UNL     1       0.002  -0.004   0.002  0.00  0.00    +0.139 C 
BRANCH  16  17
ATOM     17  N   UNL     1       0.688  -0.476  -1.203  0.00  0.00    -0.302 N 
ATOM     18  C   UNL     1       2.031  -0.587  -1.215  0.00  0.00    +0.246 C 
ATOM     19  O   UNL     1       2.674  -0.295  -0.225  0.00  0.00    -0.270 OA
ATOM     20  H   UNL     1       0.175  -0.710  -1.993  0.00  0.00    +0.150 HD
BRANCH  18  21
ATOM     21  C   UNL     1       2.723  -1.063  -2.431  0.00  0.00    +0.055 A 
ATOM     22  C   UNL     1       1.988  -1.395  -3.571  0.00  0.00    +0.014 A 
ATOM     23  C   UNL     1       2.640  -1.838  -4.703  0.00  0.00    +0.001 A 
ATOM     24  C   UNL     1       4.019  -1.956  -4.710  0.00  0.00    +0.001 A 
ATOM     25  C   UNL     1       4.754  -1.631  -3.585  0.00  0.00    +0.021 A 
ATOM     26  C   UNL     1       4.115  -1.179  -2.446  0.00  0.00    +0.053 A 
ATOM     27 CL   UNL     1       5.039  -0.763  -1.037  0.00  0.00    -0.083 Cl
ENDBRANCH  18  21
ENDBRANCH  16  17
ENDBRANCH   1  16
BRANCH   4  28
ATOM     28  S   UNL     1      -4.611  -2.145   1.557  0.00  0.00    -0.081 S 
BRANCH  28  29
ATOM     29  C   UNL     1      -5.971  -2.301   0.367  0.00  0.00    +0.112 C 
BRANCH  29  30
ATOM     30  C   UNL     1      -7.161  -2.933   1.044  0.00  0.00    -0.037 A 
ATOM     31  C   UNL     1      -7.305  -4.308   1.047  0.00  0.00    +0.004 A 
ATOM     32  C   UNL     1      -8.396  -4.887   1.667  0.00  0.00    +0.000 A 
ATOM     33  C   UNL     1      -9.342  -4.092   2.286  0.00  0.00    +0.000 A 
ATOM     34  C   UNL     1      -9.197  -2.717   2.285  0.00  0.00    +0.000 A 
ATOM     35  C   UNL     1      -8.104  -2.138   1.667  0.00  0.00    +0.004 A 
ENDBRANCH  29  30
ENDBRANCH  28  29
ENDBRANCH   4  28
TORSDOF 8
