REMARK  Name = ZINC50309817
REMARK  6 active torsions:
REMARK  status: ('A' for Active; 'I' for Inactive)
REMARK    1  A    between atoms: C_1  and  C_2
REMARK    2  A    between atoms: C_2  and  C_3
REMARK    3  A    between atoms: C_2  and  C_4
REMARK    4  A    between atoms: C_5  and  N_22
REMARK    5  A    between atoms: C_6  and  C_10
REMARK    6  A    between atoms: N_12  and  C_13
REMARK                            x       y       z     vdW  Elec       q    Type
REMARK                         _______ _______ _______ _____ _____    ______ ____
ROOT
ATOM      1  C   UNL     1       1.711  -1.196   4.989  0.00  0.00    +0.270 C 
ATOM      2  O   UNL     1       1.018  -0.746   5.881  0.00  0.00    -0.268 OA
ATOM      3  N   UNL     1       2.323  -2.386   5.145  0.00  0.00    -0.278 N 
ATOM      4  H   UNL     1       2.816  -2.779   4.408  0.00  0.00    +0.155 HD
ENDROOT
BRANCH   3   5
ATOM      5  C   UNL     1       2.246  -3.057   6.372  0.00  0.00    +0.071 A 
ATOM      6  C   UNL     1       3.192  -2.811   7.360  0.00  0.00    +0.065 A 
ATOM      7  C   UNL     1       3.113  -3.475   8.570  0.00  0.00    +0.037 A 
ATOM      8  C   UNL     1       2.095  -4.383   8.797  0.00  0.00    +0.021 A 
ATOM      9  C   UNL     1       1.152  -4.630   7.816  0.00  0.00    +0.037 A 
ATOM     10  C   UNL     1       1.221  -3.965   6.606  0.00  0.00    +0.065 A 
ATOM     11 CL   UNL     1       0.033  -4.270   5.378  0.00  0.00    -0.082 Cl
ATOM     12 BR   UNL     1       1.991  -5.289  10.454  0.00  0.00    -0.050 Br
ATOM     13 CL   UNL     1       4.471  -1.673   7.074  0.00  0.00    -0.082 Cl
ENDBRANCH   3   5
BRANCH   1  16
ATOM     14  C   UNL     1       1.743   1.121   2.174  0.00  0.00    +0.060 A 
ATOM     15  C   UNL     1       1.307   0.822   3.426  0.00  0.00    +0.078 A 
ATOM     16  C   UNL     1       1.883  -0.438   3.736  0.00  0.00    +0.168 A 
ATOM     17  N   UNL     1       2.602  -0.802   2.691  0.00  0.00    -0.167 NA
ATOM     18  N   UNL     1       2.529   0.089   1.769  0.00  0.00    -0.279 N 
ATOM     19  H   UNL     1       2.973   0.035   0.908  0.00  0.00    +0.189 HD
BRANCH  14  21
ATOM     20  C   UNL     1       2.703   3.110   1.047  0.00  0.00    +0.014 C 
ATOM     21  C   UNL     1       1.412   2.360   1.382  0.00  0.00    +0.033 C 
ATOM     22  C   UNL     1       0.702   1.962   0.087  0.00  0.00    +0.014 C 
ENDBRANCH  14  21
BRANCH  15  23
ATOM     23  N   UNL     1       0.465   1.594   4.240  0.00  0.00    -0.355 N 
ATOM     24  H   UNL     1       0.129   2.446   3.920  0.00  0.00    +0.142 HD
ATOM     25  H   UNL     1       0.219   1.276   5.123  0.00  0.00    +0.142 HD
ENDBRANCH  15  23
ENDBRANCH   1  16
TORSDOF 4
