REMARK  Name = ZINC24179548
REMARK  10 active torsions:
REMARK  status: ('A' for Active; 'I' for Inactive)
REMARK    1  A    between atoms: C_1  and  C_2
REMARK    2  A    between atoms: C_2  and  C_4
REMARK    3  A    between atoms: C_2  and  N_14
REMARK    4  A    between atoms: C_15  and  C_17
REMARK    5  A    between atoms: C_17  and  C_19
REMARK    6  A    between atoms: C_17  and  N_20
REMARK    7  A    between atoms: N_20  and  S_21
REMARK    8  A    between atoms: S_21  and  C_24
REMARK    9  A    between atoms: C_27  and  N_30
REMARK   10  A    between atoms: C_31  and  C_33
REMARK                            x       y       z     vdW  Elec       q    Type
REMARK                         _______ _______ _______ _____ _____    ______ ____
ROOT
ATOM      1  C   UNL     1       2.691  -2.603  -2.306  0.00  0.00    +0.159 C 
ATOM      2  C   UNL     1       3.645  -3.794  -2.196  0.00  0.00    +0.035 C 
ENDROOT
BRANCH   1   4
ATOM      3  N   UNL     1       3.417  -2.004  -4.593  0.00  0.00    -0.307 N 
ATOM      4  C   UNL     1       2.407  -2.318  -3.758  0.00  0.00    +0.232 C 
ATOM      5  O   UNL     1       1.270  -2.372  -4.175  0.00  0.00    -0.274 OA
ATOM      6  H   UNL     1       4.449  -1.955  -4.215  0.00  0.00    +0.149 HD
BRANCH   3   8
ATOM      7  C   UNL     1       3.101  -3.044  -6.784  0.00  0.00    +0.033 C 
ATOM      8  C   UNL     1       3.141  -1.728  -6.005  0.00  0.00    +0.100 C 
BRANCH   8   9
ATOM      9  C   UNL     1       4.226  -0.845  -6.566  0.00  0.00    -0.027 A 
ATOM     10  C   UNL     1       5.545  -1.051  -6.204  0.00  0.00    +0.006 A 
ATOM     11  C   UNL     1       6.532  -0.241  -6.724  0.00  0.00    +0.004 A 
ATOM     12  C   UNL     1       6.212   0.789  -7.599  0.00  0.00    -0.044 A 
ATOM     13  C   UNL     1       4.899   0.996  -7.957  0.00  0.00    -0.044 A 
ATOM     14  C   UNL     1       3.907   0.176  -7.437  0.00  0.00    +0.009 A 
ATOM     15  C   UNL     1       4.481   2.087  -8.908  0.00  0.00    +0.035 C 
ATOM     16  C   UNL     1       5.583   3.136  -9.040  0.00  0.00    +0.005 C 
ATOM     17  C   UNL     1       6.899   2.417  -9.359  0.00  0.00    +0.005 C 
ATOM     18  C   UNL     1       7.339   1.645  -8.117  0.00  0.00    +0.035 C 
ENDBRANCH   8   9
ENDBRANCH   3   8
ENDBRANCH   1   4
BRANCH   1  19
ATOM     19  N   UNL     1       1.438  -2.916  -1.615  0.00  0.00    -0.178 NA
ATOM     20  H   UNL     1       0.584  -3.316  -2.181  0.00  0.00    +0.149 HD
BRANCH  19  21
ATOM     21  S   UNL     1       1.217  -2.442  -0.044  0.00  0.00    +0.059 S 
ATOM     22  O   UNL     1       2.379  -2.844   0.668  0.00  0.00    -0.153 OA
ATOM     23  O   UNL     1      -0.088  -2.864   0.328  0.00  0.00    -0.153 OA
BRANCH  21  24
ATOM     24  C   UNL     1       1.201  -0.681  -0.028  0.00  0.00    +0.105 A 
ATOM     25  C   UNL     1       0.007  -0.000  -0.186  0.00  0.00    +0.030 A 
ATOM     26  C   UNL     1      -0.009   1.381  -0.174  0.00  0.00    +0.025 A 
ATOM     27  C   UNL     1       1.175   2.086  -0.003  0.00  0.00    +0.033 A 
ATOM     28  C   UNL     1       2.372   1.400   0.154  0.00  0.00    +0.025 A 
ATOM     29  C   UNL     1       2.381   0.019   0.141  0.00  0.00    +0.030 A 
BRANCH  27  30
ATOM     30  N   UNL     1       1.162   3.485   0.009  0.00  0.00    -0.286 N 
ATOM     31  C   UNL     1       0.101   4.145   0.516  0.00  0.00    +0.214 C 
ATOM     32  O   UNL     1      -0.799   3.529   1.047  0.00  0.00    -0.276 OA
ATOM     33  C   UNL     1       0.033   5.647   0.422  0.00  0.00    +0.109 C 
ATOM     34  H   UNL     1       2.017   4.047  -0.395  0.00  0.00    +0.155 HD
ENDBRANCH  27  30
ENDBRANCH  21  24
ENDBRANCH  19  21
ENDBRANCH   1  19
TORSDOF 7
