REMARK  Name = ZINC45410066
REMARK  8 active torsions:
REMARK  status: ('A' for Active; 'I' for Inactive)
REMARK    1  A    between atoms: C_1  and  C_2
REMARK    2  A    between atoms: C_2  and  C_3
REMARK    3  A    between atoms: C_2  and  N_4
REMARK    4  A    between atoms: N_4  and  S_5
REMARK    5  A    between atoms: S_5  and  C_8
REMARK    6  A    between atoms: N_14  and  N_15
REMARK    7  A    between atoms: N_18  and  C_19
REMARK    8  A    between atoms: N_22  and  C_25
REMARK                            x       y       z     vdW  Elec       q    Type
REMARK                         _______ _______ _______ _____ _____    ______ ____
ROOT
ATOM      1  C   UNL     1      -1.137  -2.294   2.137  0.00  0.00    +0.123 A 
ATOM      2  C   UNL     1      -2.420  -2.114   1.637  0.00  0.00    +0.033 A 
ATOM      3  C   UNL     1      -3.171  -3.233   1.326  0.00  0.00    +0.047 A 
ATOM      4  C   UNL     1      -2.619  -4.494   1.523  0.00  0.00    +0.135 A 
ATOM      5  N   UNL     1      -1.392  -4.625   2.003  0.00  0.00    -0.237 NA
ATOM      6  C   UNL     1      -0.651  -3.575   2.303  0.00  0.00    +0.141 A 
ATOM      7  N   UNL     1      -3.362  -5.628   1.215  0.00  0.00    -0.247 N 
ATOM      8  H   UNL     1      -4.261  -5.537   0.863  0.00  0.00    +0.172 HD
ENDROOT
BRANCH   7   9
ATOM      9  N   UNL     1      -2.812  -6.901   1.412  0.00  0.00    -0.219 N 
ATOM     10  C   UNL     1      -3.533  -8.000   1.113  0.00  0.00    +0.316 C 
ATOM     11  O   UNL     1      -3.055  -9.105   1.283  0.00  0.00    -0.251 OA
ATOM     12  N   UNL     1      -4.782  -7.874   0.624  0.00  0.00    -0.296 N 
ATOM     13  H   UNL     1      -1.912  -6.992   1.763  0.00  0.00    +0.174 HD
ATOM     14  H   UNL     1      -5.163  -6.992   0.488  0.00  0.00    +0.151 HD
BRANCH  12  15
ATOM     15  C   UNL     1      -5.566  -9.069   0.299  0.00  0.00    +0.071 C 
ATOM     16  C   UNL     1      -5.226  -9.533  -1.120  0.00  0.00    +0.004 C 
ATOM     17  C   UNL     1      -6.105 -10.732  -1.482  0.00  0.00    -0.077 C 
ATOM     18  N   UNL     1      -7.519 -10.345  -1.418  0.00  0.00    +0.382 N 
ATOM     19  C   UNL     1      -7.870  -9.966  -0.044  0.00  0.00    -0.077 C 
ATOM     20  C   UNL     1      -7.059  -8.738   0.373  0.00  0.00    +0.004 C 
ATOM     21  H   UNL     1      -7.680  -9.561  -2.033  0.00  0.00    -0.081 HD
BRANCH  18  22
ATOM     22  C   UNL     1      -8.355 -11.476  -1.842  0.00  0.00    -0.069 C 
ATOM     23  C   UNL     1      -9.106 -11.341  -3.168  0.00  0.00    -0.017 C 
ATOM     24  C   UNL     1      -9.871 -11.271  -1.845  0.00  0.00    -0.017 C 
ENDBRANCH  18  22
ENDBRANCH  12  15
ENDBRANCH   7   9
BRANCH   1  25
ATOM     25  S   UNL     1      -0.139  -0.902   2.549  0.00  0.00    +0.060 S 
ATOM     26  O   UNL     1       0.814  -1.354   3.502  0.00  0.00    -0.153 OA
ATOM     27  O   UNL     1      -1.030   0.173   2.814  0.00  0.00    -0.153 OA
BRANCH  25  28
ATOM     28  N   UNL     1       0.711  -0.489   1.189  0.00  0.00    -0.187 NA
ATOM     29  H   UNL     1       1.677  -0.569   1.178  0.00  0.00    +0.148 HD
BRANCH  28  31
ATOM     30  C   UNL     1      -0.019   1.526   0.010  0.00  0.00    +0.025 C 
ATOM     31  C   UNL     1       0.002  -0.004   0.002  0.00  0.00    +0.070 C 
ATOM     32  C   UNL     1       0.718  -0.497  -1.257  0.00  0.00    +0.025 C 
ENDBRANCH  28  31
ENDBRANCH  25  28
ENDBRANCH   1  25
TORSDOF 6
