REMARK  Name = ZINC35818120
REMARK  10 active torsions:
REMARK  status: ('A' for Active; 'I' for Inactive)
REMARK    1  A    between atoms: C_1  and  C_2
REMARK    2  A    between atoms: C_2  and  C_3
REMARK    3  A    between atoms: C_3  and  C_4
REMARK    4  A    between atoms: C_4  and  N_5
REMARK    5  A    between atoms: N_5  and  C_6
REMARK    6  A    between atoms: N_5  and  C_12
REMARK    7  A    between atoms: C_6  and  C_7
REMARK    8  A    between atoms: C_15  and  N_25
REMARK    9  A    between atoms: C_17  and  C_18
REMARK   10  A    between atoms: N_28  and  C_29
REMARK                            x       y       z     vdW  Elec       q    Type
REMARK                         _______ _______ _______ _____ _____    ______ ____
ROOT
ATOM      1  C   UNL     1       3.380  -1.177   1.025  0.00  0.00    +0.042 A 
ATOM      2  C   UNL     1       4.459  -0.304   1.075  0.00  0.00    +0.026 A 
ATOM      3  C   UNL     1       5.742  -0.795   1.198  0.00  0.00    +0.025 A 
ATOM      4  C   UNL     1       5.966  -2.166   1.272  0.00  0.00    +0.036 A 
ATOM      5  C   UNL     1       4.902  -3.049   1.223  0.00  0.00    +0.038 A 
ATOM      6  C   UNL     1       3.598  -2.561   1.105  0.00  0.00    +0.060 A 
ENDROOT
BRANCH   6   7
ATOM      7  C   UNL     1       2.459  -3.495   1.059  0.00  0.00    +0.248 C 
ATOM      8  O   UNL     1       1.540  -3.296   0.288  0.00  0.00    -0.270 OA
ATOM      9  N   UNL     1       2.435  -4.570   1.872  0.00  0.00    -0.297 N 
ATOM     10  C   UNL     1       3.411  -4.865   2.931  0.00  0.00    +0.108 C 
ATOM     11  C   UNL     1       2.997  -6.204   3.576  0.00  0.00    +0.020 C 
ATOM     12  C   UNL     1       2.136  -6.871   2.471  0.00  0.00    +0.020 C 
ATOM     13  C   UNL     1       1.422  -5.641   1.851  0.00  0.00    +0.108 C 
ENDBRANCH   6   7
BRANCH   4  14
ATOM     14  N   UNL     1       7.274  -2.655   1.396  0.00  0.00    -0.269 N 
ATOM     15  C   UNL     1       8.182  -1.974   2.125  0.00  0.00    +0.308 C 
ATOM     16  O   UNL     1       7.893  -0.893   2.599  0.00  0.00    -0.252 OA
ATOM     17  N   UNL     1       9.409  -2.493   2.328  0.00  0.00    -0.267 N 
ATOM     18  H   UNL     1       7.527  -3.482   0.958  0.00  0.00    +0.156 HD
ATOM     19  H   UNL     1       9.657  -3.331   1.906  0.00  0.00    +0.156 HD
BRANCH  17  20
ATOM     20  C   UNL     1      10.325  -1.823   3.148  0.00  0.00    +0.072 A 
ATOM     21  C   UNL     1       9.913  -1.290   4.362  0.00  0.00    +0.064 A 
ATOM     22  C   UNL     1      10.821  -0.629   5.169  0.00  0.00    +0.022 A 
ATOM     23  C   UNL     1      12.138  -0.499   4.768  0.00  0.00    +0.003 A 
ATOM     24  C   UNL     1      12.552  -1.028   3.560  0.00  0.00    +0.022 A 
ATOM     25  C   UNL     1      11.651  -1.695   2.751  0.00  0.00    +0.064 A 
ATOM     26 CL   UNL     1      12.173  -2.365   1.237  0.00  0.00    -0.082 Cl
ATOM     27 CL   UNL     1       8.260  -1.452   4.866  0.00  0.00    -0.082 Cl
ENDBRANCH  17  20
ENDBRANCH   4  14
BRANCH   1  28
ATOM     28  N   UNL     1       2.086  -0.681   0.900  0.00  0.00    -0.322 N 
BRANCH  28  29
ATOM     29  C   UNL     1       1.504  -0.478  -0.428  0.00  0.00    +0.105 C 
BRANCH  29  30
ATOM     30  C   UNL     1       1.820   0.939  -0.912  0.00  0.00    +0.019 C 
BRANCH  30  32
ATOM     31  C   UNL     1       1.527   2.568  -2.784  0.00  0.00    +0.004 C 
ATOM     32  C   UNL     1       1.212   1.151  -2.300  0.00  0.00    -0.002 C 
ENDBRANCH  30  32
ENDBRANCH  29  30
ENDBRANCH  28  29
BRANCH  28  33
ATOM     33  C   UNL     1       1.306  -0.362   2.099  0.00  0.00    +0.179 C 
BRANCH  33  34
ATOM     34  C   UNL     1       0.528  -1.579   2.530  0.00  0.00    +0.122 A 
ATOM     35  C   UNL     1       0.956  -2.523   3.387  0.00  0.00    +0.046 A 
ATOM     36  C   UNL     1      -0.085  -3.472   3.504  0.00  0.00    +0.041 A 
ATOM     37  C   UNL     1      -1.087  -3.051   2.712  0.00  0.00    +0.195 A 
ATOM     38  O   UNL     1      -0.712  -1.901   2.129  0.00  0.00    -0.466 OA
ENDBRANCH  33  34
ENDBRANCH  28  33
ENDBRANCH   1  28
TORSDOF 9
