REMARK  Name = ZINC49005852
REMARK  6 active torsions:
REMARK  status: ('A' for Active; 'I' for Inactive)
REMARK    1  A    between atoms: C_1  and  C_2
REMARK    2  A    between atoms: C_2  and  C_3
REMARK    3  A    between atoms: C_7  and  C_8
REMARK    4  A    between atoms: C_8  and  O_10
REMARK    5  A    between atoms: O_10  and  C_11
REMARK    6  A    between atoms: C_11  and  C_12
REMARK                            x       y       z     vdW  Elec       q    Type
REMARK                         _______ _______ _______ _____ _____    ______ ____
ROOT
ATOM      1  O   UNL     1      -1.729  -0.644   4.060  0.00  0.00    -0.454 OA
ENDROOT
BRANCH   1   2
ATOM      2  C   UNL     1      -1.302  -0.418   2.800  0.00  0.00    +0.346 C 
ATOM      3  O   UNL     1      -2.079  -0.008   1.959  0.00  0.00    -0.244 OA
BRANCH   2   8
ATOM      4  C   UNL     1       0.731  -0.503   1.223  0.00  0.00    -0.027 A 
ATOM      5  C   UNL     1       2.068  -0.819   1.198  0.00  0.00    +0.012 A 
ATOM      6  C   UNL     1       2.662  -1.262   2.333  0.00  0.00    +0.046 A 
ATOM      7  S   UNL     1       1.426  -1.266   3.471  0.00  0.00    -0.090 S 
ATOM      8  C   UNL     1       0.096  -0.668   2.446  0.00  0.00    +0.099 A 
BRANCH   4  10
ATOM      9  C   UNL     1      -0.019   1.526   0.010  0.00  0.00    +0.009 C 
ATOM     10  C   UNL     1       0.002  -0.004   0.002  0.00  0.00    +0.033 C 
ENDBRANCH   4  10
ENDBRANCH   2   8
ENDBRANCH   1   2
BRANCH   1  11
ATOM     11  C   UNL     1      -3.106  -0.379   4.336  0.00  0.00    +0.289 C 
BRANCH  11  12
ATOM     12  C   UNL     1      -3.397  -0.686   5.782  0.00  0.00    +0.100 A 
ATOM     13  C   UNL     1      -3.795  -1.871   6.276  0.00  0.00    +0.155 A 
ATOM     14  N   UNL     1      -3.950  -1.746   7.603  0.00  0.00    -0.209 NA
ATOM     15  C   UNL     1      -3.661  -0.524   7.949  0.00  0.00    +0.179 A 
ATOM     16  N   UNL     1      -3.296   0.205   6.848  0.00  0.00    -0.293 N 
ATOM     17  C   UNL     1      -2.955   1.523   7.058  0.00  0.00    +0.101 A 
ATOM     18  C   UNL     1      -2.980   2.048   8.282  0.00  0.00    +0.067 A 
ATOM     19  S   UNL     1      -3.522   0.660   9.267  0.00  0.00    -0.058 S 
ATOM     20 CL   UNL     1      -4.064  -3.318   5.354  0.00  0.00    -0.060 Cl
ENDBRANCH  11  12
ENDBRANCH   1  11
TORSDOF 5
