REMARK  Name = ZINC35939593
REMARK  15 active torsions:
REMARK  status: ('A' for Active; 'I' for Inactive)
REMARK    1  A    between atoms: C_1  and  C_2
REMARK    2  A    between atoms: C_2  and  C_3
REMARK    3  A    between atoms: C_3  and  C_5
REMARK    4  A    between atoms: C_3  and  N_6
REMARK    5  A    between atoms: N_6  and  C_7
REMARK    6  A    between atoms: C_7  and  C_8
REMARK    7  A    between atoms: C_9  and  C_28
REMARK    8  A    between atoms: N_11  and  C_21
REMARK    9  A    between atoms: C_12  and  N_13
REMARK   10  A    between atoms: N_16  and  C_19
REMARK   11  A    between atoms: C_19  and  C_20
REMARK   12  A    between atoms: C_29  and  C_31
REMARK   13  A    between atoms: C_31  and  C_33
REMARK   14  A    between atoms: C_31  and  C_35
REMARK   15  A    between atoms: C_33  and  C_34
REMARK                            x       y       z     vdW  Elec       q    Type
REMARK                         _______ _______ _______ _____ _____    ______ ____
ROOT
ATOM      1  C   UNL     1      -4.649  -0.677   2.624  0.00  0.00    +0.032 A 
ATOM      2  C   UNL     1      -5.098  -1.924   2.180  0.00  0.00    +0.067 A 
ATOM      3  N   UNL     1      -5.796  -2.479   3.137  0.00  0.00    -0.170 NA
ATOM      4  N   UNL     1      -5.819  -1.605   4.232  0.00  0.00    -0.218 N 
ATOM      5  C   UNL     1      -5.100  -0.499   3.897  0.00  0.00    +0.130 A 
ATOM      6  C   UNL     1      -4.824  -2.527   0.826  0.00  0.00    +0.068 C 
ENDROOT
BRANCH   5   7
ATOM      7  N   UNL     1      -4.870   0.610   4.705  0.00  0.00    -0.318 N 
ATOM      8  C   UNL     1      -5.841   1.714   4.768  0.00  0.00    +0.088 C 
ATOM      9  C   UNL     1      -6.141   2.012   6.241  0.00  0.00    -0.060 C 
ATOM     10  N   UNL     1      -4.884   2.269   6.954  0.00  0.00    +0.382 N 
ATOM     11  C   UNL     1      -4.054   1.058   6.958  0.00  0.00    -0.060 C 
ATOM     12  C   UNL     1      -3.653   0.709   5.525  0.00  0.00    +0.088 C 
ATOM     13  H   UNL     1      -4.385   3.016   6.494  0.00  0.00    -0.082 HD
BRANCH  10  14
ATOM     14  C   UNL     1      -5.179   2.663   8.338  0.00  0.00    -0.082 C 
ATOM     15  C   UNL     1      -3.880   3.051   9.046  0.00  0.00    -0.017 C 
ENDBRANCH  10  14
ENDBRANCH   5   7
BRANCH   4  16
ATOM     16  C   UNL     1      -6.463  -1.832   5.456  0.00  0.00    +0.070 A 
ATOM     17  C   UNL     1      -5.768  -1.674   6.648  0.00  0.00    +0.028 A 
ATOM     18  C   UNL     1      -6.404  -1.897   7.853  0.00  0.00    +0.005 A 
ATOM     19  C   UNL     1      -7.733  -2.278   7.875  0.00  0.00    +0.038 A 
ATOM     20  C   UNL     1      -8.431  -2.436   6.689  0.00  0.00    +0.125 A 
ATOM     21  C   UNL     1      -7.799  -2.208   5.479  0.00  0.00    +0.066 A 
ATOM     22  F   UNL     1      -9.729  -2.808   6.713  0.00  0.00    -0.205 F 
ENDBRANCH   4  16
BRANCH   1  23
ATOM     23  C   UNL     1      -3.808   0.296   1.837  0.00  0.00    +0.148 C 
BRANCH  23  24
ATOM     24  N   UNL     1      -2.455  -0.243   1.681  0.00  0.00    -0.294 N 
ATOM     25  C   UNL     1      -1.471   0.157   2.510  0.00  0.00    +0.223 C 
ATOM     26  O   UNL     1      -1.715   0.927   3.415  0.00  0.00    -0.275 OA
BRANCH  24  27
ATOM     27  C   UNL     1      -2.172  -1.216   0.624  0.00  0.00    +0.073 C 
ATOM     28  C   UNL     1      -1.706  -2.531   1.252  0.00  0.00    +0.028 C 
BRANCH  27  30
ATOM     29  C   UNL     1      -1.610   0.528  -1.074  0.00  0.00    +0.005 C 
ATOM     30  C   UNL     1      -1.073  -0.671  -0.290  0.00  0.00    +0.019 C 
ENDBRANCH  27  30
ENDBRANCH  24  27
BRANCH  25  31
ATOM     31  C   UNL     1      -0.066  -0.353   2.313  0.00  0.00    +0.105 C 
BRANCH  31  32
ATOM     32  C   UNL     1       0.504  -0.779   3.642  0.00  0.00    -0.036 A 
ATOM     33  C   UNL     1       0.617   0.137   4.671  0.00  0.00    +0.004 A 
ATOM     34  C   UNL     1       1.141  -0.254   5.889  0.00  0.00    +0.000 A 
ATOM     35  C   UNL     1       1.550  -1.560   6.079  0.00  0.00    +0.000 A 
ATOM     36  C   UNL     1       1.436  -2.476   5.050  0.00  0.00    +0.000 A 
ATOM     37  C   UNL     1       0.909  -2.087   3.833  0.00  0.00    +0.004 A 
ENDBRANCH  31  32
BRANCH  31  38
ATOM     38  C   UNL     1       0.801   0.758   1.719  0.00  0.00    +0.014 C 
ATOM     39  C   UNL     1       2.200   0.212   1.427  0.00  0.00    +0.005 C 
ENDBRANCH  31  38
ENDBRANCH  25  31
ENDBRANCH  23  24
ENDBRANCH   1  23
TORSDOF 10
