REMARK  Name = ZINC21686682
REMARK  13 active torsions:
REMARK  status: ('A' for Active; 'I' for Inactive)
REMARK    1  A    between atoms: C_1  and  C_2
REMARK    2  A    between atoms: C_2  and  C_3
REMARK    3  A    between atoms: C_3  and  N_4
REMARK    4  A    between atoms: N_4  and  C_5
REMARK    5  A    between atoms: N_4  and  S_8
REMARK    6  A    between atoms: C_5  and  C_6
REMARK    7  A    between atoms: C_6  and  C_7
REMARK    8  A    between atoms: S_8  and  C_11
REMARK    9  A    between atoms: C_14  and  C_17
REMARK   10  A    between atoms: N_19  and  C_20
REMARK   11  A    between atoms: C_22  and  C_36
REMARK   12  A    between atoms: C_28  and  C_35
REMARK   13  A    between atoms: C_30  and  C_34
REMARK                            x       y       z     vdW  Elec       q    Type
REMARK                         _______ _______ _______ _____ _____    ______ ____
ROOT
ATOM      1  C   UNL     1       0.332   2.598   5.215  0.00  0.00    +0.249 C 
ATOM      2  O   UNL     1       1.284   2.245   4.547  0.00  0.00    -0.270 OA
ATOM      3  N   UNL     1      -0.900   2.631   4.668  0.00  0.00    -0.266 N 
ATOM      4  H   UNL     1      -1.762   2.951   5.273  0.00  0.00    +0.157 HD
ENDROOT
BRANCH   3   5
ATOM      5  C   UNL     1      -1.082   2.260   3.339  0.00  0.00    +0.131 A 
ATOM      6  C   UNL     1      -0.112   1.845   2.478  0.00  0.00    +0.068 A 
ATOM      7  C   UNL     1      -0.718   1.572   1.248  0.00  0.00    +0.062 A 
ATOM      8  N   UNL     1      -2.000   1.814   1.353  0.00  0.00    -0.168 NA
ATOM      9  N   UNL     1      -2.264   2.244   2.660  0.00  0.00    -0.194 N 
ATOM     10  C   UNL     1      -3.507   2.596   3.171  0.00  0.00    +0.196 A 
ATOM     11  N   UNL     1      -4.673   2.601   2.569  0.00  0.00    -0.221 NA
ATOM     12  C   UNL     1      -5.811   2.971   3.193  0.00  0.00    +0.083 A 
ATOM     13  C   UNL     1      -7.122   3.021   2.664  0.00  0.00    -0.024 A 
ATOM     14  C   UNL     1      -8.176   3.422   3.441  0.00  0.00    +0.009 A 
ATOM     15  C   UNL     1      -8.000   3.793   4.767  0.00  0.00    -0.049 A 
ATOM     16  C   UNL     1      -6.733   3.757   5.317  0.00  0.00    +0.020 A 
ATOM     17  C   UNL     1      -5.670   3.356   4.546  0.00  0.00    +0.042 A 
ATOM     18  S   UNL     1      -3.926   3.151   4.817  0.00  0.00    -0.048 S 
ATOM     19  C   UNL     1      -9.179   4.230   5.598  0.00  0.00    +0.044 C 
ATOM     20  C   UNL     1      -7.361   2.627   1.229  0.00  0.00    +0.046 C 
ATOM     21  C   UNL     1      -0.013   1.086   0.008  0.00  0.00    +0.067 C 
ENDBRANCH   3   5
BRANCH   1  25
ATOM     22  C   UNL     1       0.886   3.732   9.270  0.00  0.00    +0.106 A 
ATOM     23  C   UNL     1       1.972   3.330   8.513  0.00  0.00    +0.029 A 
ATOM     24  C   UNL     1       1.799   2.960   7.195  0.00  0.00    +0.015 A 
ATOM     25  C   UNL     1       0.525   2.993   6.626  0.00  0.00    +0.037 A 
ATOM     26  C   UNL     1      -0.566   3.405   7.394  0.00  0.00    +0.015 A 
ATOM     27  C   UNL     1      -0.379   3.766   8.713  0.00  0.00    +0.029 A 
BRANCH  22  28
ATOM     28  S   UNL     1       1.117   4.203  10.953  0.00  0.00    +0.061 S 
ATOM     29  O   UNL     1      -0.134   4.017  11.601  0.00  0.00    -0.153 OA
ATOM     30  O   UNL     1       2.306   3.563  11.394  0.00  0.00    -0.153 OA
BRANCH  28  31
ATOM     31  N   UNL     1       1.420   5.830  10.969  0.00  0.00    -0.177 NA
BRANCH  31  32
ATOM     32  C   UNL     1       0.312   6.782  11.081  0.00  0.00    +0.109 C 
BRANCH  32  34
ATOM     33  C   UNL     1      -1.036   8.166  12.666  0.00  0.00    +0.005 C 
ATOM     34  C   UNL     1       0.122   7.173  12.548  0.00  0.00    +0.014 C 
ENDBRANCH  32  34
ENDBRANCH  31  32
BRANCH  31  35
ATOM     35  C   UNL     1       2.798   6.319  10.870  0.00  0.00    +0.109 C 
BRANCH  35  36
ATOM     36  C   UNL     1       3.121   6.644   9.410  0.00  0.00    +0.014 C 
ATOM     37  C   UNL     1       4.559   7.154   9.308  0.00  0.00    +0.005 C 
ENDBRANCH  35  36
ENDBRANCH  31  35
ENDBRANCH  28  31
ENDBRANCH  22  28
ENDBRANCH   1  25
TORSDOF 8
