REMARK  Name = ZINC39599372
REMARK  7 active torsions:
REMARK  status: ('A' for Active; 'I' for Inactive)
REMARK    1  A    between atoms: C_1  and  O_2
REMARK    2  A    between atoms: O_2  and  C_3
REMARK    3  A    between atoms: C_9  and  C_12
REMARK    4  A    between atoms: C_12  and  C_13
REMARK    5  A    between atoms: C_13  and  N_14
REMARK    6  A    between atoms: C_15  and  C_17
REMARK    7  A    between atoms: C_28  and  C_30
REMARK                            x       y       z     vdW  Elec       q    Type
REMARK                         _______ _______ _______ _____ _____    ______ ____
ROOT
ATOM      1  C   UNL     1      -2.429  -8.487  -0.823  0.00  0.00    +0.100 C 
ATOM      2  C   UNL     1      -1.650  -9.727  -1.315  0.00  0.00    +0.121 C 
ATOM      3  N   UNL     1      -2.637 -10.832  -1.268  0.00  0.00    -0.300 N 
ATOM      4  C   UNL     1      -3.902 -10.216  -1.736  0.00  0.00    +0.115 C 
ATOM      5  C   UNL     1      -3.906  -8.811  -1.101  0.00  0.00    -0.004 C 
ATOM      6  C   UNL     1      -4.496  -7.795  -2.075  0.00  0.00    -0.010 C 
ATOM      7  C   UNL     1      -5.980  -8.105  -2.291  0.00  0.00    -0.082 C 
ATOM      8  N   UNL     1      -6.686  -8.048  -1.005  0.00  0.00    +0.379 N 
ATOM      9  C   UNL     1      -6.176  -9.090  -0.107  0.00  0.00    -0.082 C 
ATOM     10  C   UNL     1      -4.700  -8.823   0.202  0.00  0.00    -0.010 C 
ATOM     11  C   UNL     1      -2.431 -12.107  -0.885  0.00  0.00    +0.219 C 
ATOM     12  O   UNL     1      -3.348 -12.901  -0.902  0.00  0.00    -0.275 OA
ATOM     13  H   UNL     1      -6.542  -7.142  -0.584  0.00  0.00    -0.086 HD
ATOM     14  H   UNL     1      -7.673  -8.191  -1.158  0.00  0.00    -0.086 HD
ENDROOT
BRANCH  11  15
ATOM     15  C   UNL     1      -1.061 -12.547  -0.435  0.00  0.00    +0.079 C 
ATOM     16  C   UNL     1      -1.093 -14.036  -0.067  0.00  0.00    +0.017 C 
ATOM     17  C   UNL     1       0.256 -14.410   0.552  0.00  0.00    +0.027 C 
ATOM     18  C   UNL     1       1.376 -13.923  -0.319  0.00  0.00    -0.031 C 
ATOM     19  C   UNL     1       1.241 -13.025  -1.241  0.00  0.00    -0.030 C 
ATOM     20  C   UNL     1      -0.058 -12.348  -1.573  0.00  0.00    +0.039 C 
ENDBRANCH  11  15
BRANCH   1  22
ATOM     21  N   UNL     1      -2.079  -6.046  -1.017  0.00  0.00    -0.315 N 
ATOM     22  C   UNL     1      -2.007  -7.262  -1.593  0.00  0.00    +0.218 C 
ATOM     23  O   UNL     1      -1.602  -7.371  -2.731  0.00  0.00    -0.275 OA
ATOM     24  H   UNL     1      -2.402  -5.958  -0.106  0.00  0.00    +0.149 HD
BRANCH  21  25
ATOM     25  C   UNL     1      -1.668  -4.855  -1.766  0.00  0.00    +0.109 C 
BRANCH  25  26
ATOM     26  C   UNL     1      -1.847  -3.614  -0.889  0.00  0.00    +0.056 C 
BRANCH  26  33
ATOM     27  C   UNL     1      -4.066  -0.807  -3.935  0.00  0.00    +0.121 A 
ATOM     28  C   UNL     1      -3.256   0.225  -4.402  0.00  0.00    +0.047 A 
ATOM     29  C   UNL     1      -1.953   0.344  -3.969  0.00  0.00    +0.030 A 
ATOM     30  C   UNL     1      -1.437  -0.572  -3.059  0.00  0.00    +0.047 A 
ATOM     31  N   UNL     1      -0.205  -0.715  -2.455  0.00  0.00    -0.360 N 
ATOM     32  C   UNL     1      -0.218  -1.802  -1.625  0.00  0.00    +0.087 A 
ATOM     33  C   UNL     1      -1.425  -2.390  -1.659  0.00  0.00    -0.021 A 
ATOM     34  C   UNL     1      -2.253  -1.615  -2.586  0.00  0.00    +0.006 A 
ATOM     35  C   UNL     1      -3.574  -1.723  -3.027  0.00  0.00    +0.056 A 
ATOM     36  H   UNL     1       0.556  -0.131  -2.597  0.00  0.00    +0.165 HD
BRANCH  27  38
ATOM     37  C   UNL     1      -5.798   0.074  -5.307  0.00  0.00    +0.277 C 
ATOM     38  O   UNL     1      -5.350  -0.909  -4.372  0.00  0.00    -0.495 OA
ENDBRANCH  27  38
ENDBRANCH  26  33
ENDBRANCH  25  26
ENDBRANCH  21  25
ENDBRANCH   1  22
TORSDOF 6
