REMARK  Name = ZINC14475282
REMARK  5 active torsions:
REMARK  status: ('A' for Active; 'I' for Inactive)
REMARK    1  A    between atoms: C_4  and  C_7
REMARK    2  A    between atoms: C_7  and  N_8
REMARK    3  A    between atoms: N_8  and  S_9
REMARK    4  A    between atoms: S_9  and  C_12
REMARK    5  A    between atoms: C_25  and  C_28
REMARK                            x       y       z     vdW  Elec       q    Type
REMARK                         _______ _______ _______ _____ _____    ______ ____
ROOT
ATOM      1  C   UNL     1      -4.535   2.731   1.532  0.00  0.00    +0.106 A 
ATOM      2  C   UNL     1      -4.731   3.120   0.218  0.00  0.00    +0.030 A 
ATOM      3  C   UNL     1      -5.832   2.671  -0.481  0.00  0.00    +0.025 A 
ATOM      4  C   UNL     1      -6.761   1.838   0.132  0.00  0.00    +0.031 A 
ATOM      5  C   UNL     1      -6.555   1.446   1.459  0.00  0.00    -0.018 A 
ATOM      6  C   UNL     1      -5.449   1.896   2.148  0.00  0.00    +0.034 A 
ATOM      7  C   UNL     1      -7.552   0.537   2.065  0.00  0.00    +0.049 C 
ATOM      8  C   UNL     1      -7.790   0.499   3.531  0.00  0.00    -0.023 C 
ATOM      9  C   UNL     1      -9.062   0.187   3.746  0.00  0.00    -0.030 C 
ATOM     10  C   UNL     1      -9.793   0.023   2.413  0.00  0.00    +0.033 C 
ATOM     11  C   UNL     1      -8.950   0.910   1.487  0.00  0.00    +0.029 C 
ATOM     12  C   UNL     1      -8.888   0.547   0.014  0.00  0.00    +0.105 C 
ATOM     13  N   UNL     1      -7.881   1.455  -0.578  0.00  0.00    -0.336 N 
ATOM     14  H   UNL     1      -7.999   1.768  -1.488  0.00  0.00    +0.147 HD
ENDROOT
BRANCH  12  15
ATOM     15  C   UNL     1      -8.457  -0.888  -0.151  0.00  0.00    -0.026 A 
ATOM     16  C   UNL     1      -7.103  -1.185  -0.295  0.00  0.00    +0.006 A 
ATOM     17  C   UNL     1      -6.680  -2.470  -0.442  0.00  0.00    +0.009 A 
ATOM     18  C   UNL     1      -7.621  -3.514  -0.459  0.00  0.00    -0.018 A 
ATOM     19  C   UNL     1      -7.222  -4.853  -0.613  0.00  0.00    +0.008 A 
ATOM     20  C   UNL     1      -8.161  -5.838  -0.625  0.00  0.00    +0.001 A 
ATOM     21  C   UNL     1      -9.516  -5.540  -0.487  0.00  0.00    +0.001 A 
ATOM     22  C   UNL     1      -9.939  -4.255  -0.336  0.00  0.00    +0.008 A 
ATOM     23  C   UNL     1      -8.998  -3.211  -0.318  0.00  0.00    -0.018 A 
ATOM     24  C   UNL     1      -9.396  -1.873  -0.163  0.00  0.00    +0.014 A 
ENDBRANCH  12  15
BRANCH   1  25
ATOM     25  S   UNL     1      -3.127   3.307   2.421  0.00  0.00    +0.059 S 
ATOM     26  O   UNL     1      -3.465   3.244   3.800  0.00  0.00    -0.153 OA
ATOM     27  O   UNL     1      -2.714   4.512   1.792  0.00  0.00    -0.153 OA
BRANCH  25  28
ATOM     28  N   UNL     1      -1.913   2.207   2.180  0.00  0.00    -0.186 NA
ATOM     29  H   UNL     1      -1.571   1.691   2.927  0.00  0.00    +0.148 HD
BRANCH  28  30
ATOM     30  C   UNL     1      -1.357   2.012   0.839  0.00  0.00    +0.141 C 
BRANCH  30  34
ATOM     31  C   UNL     1       2.335  -0.121   1.113  0.00  0.00    +0.000 A 
ATOM     32  C   UNL     1       1.145  -0.812   0.978  0.00  0.00    +0.000 A 
ATOM     33  C   UNL     1      -0.049  -0.122   0.891  0.00  0.00    +0.005 A 
ATOM     34  C   UNL     1      -0.055   1.260   0.940  0.00  0.00    -0.032 A 
ATOM     35  C   UNL     1       1.135   1.951   1.076  0.00  0.00    +0.005 A 
ATOM     36  C   UNL     1       2.329   1.261   1.161  0.00  0.00    +0.000 A 
ENDBRANCH  30  34
ENDBRANCH  28  30
ENDBRANCH  25  28
ENDBRANCH   1  25
TORSDOF 5
