REMARK  Name = ZINC13544115
REMARK  2 active torsions:
REMARK  status: ('A' for Active; 'I' for Inactive)
REMARK    1  A    between atoms: C_6  and  C_7
REMARK    2  A    between atoms: CA_16  and  C_19
REMARK                            x       y       z     vdW  Elec       q    Type
REMARK                         _______ _______ _______ _____ _____    ______ ____
ROOT
ATOM      1  C   UNL     1      -1.293  -0.775   0.010  0.00  0.00    +0.134 C 
ATOM      2  C   UNL     1      -1.583  -1.265   1.404  0.00  0.00    +0.060 A 
ATOM      3  C   UNL     1      -2.018  -2.515   1.686  0.00  0.00    +0.066 A 
ATOM      4  N   UNL     1      -2.169  -2.612   3.006  0.00  0.00    -0.240 NA
ATOM      5  H   UNL     1      -1.188   0.313   2.711  0.00  0.00    +0.167 HD
ATOM      6  C   UNL     1      -1.847  -1.471   3.559  0.00  0.00    +0.197 A 
ATOM      7  N   UNL     1      -1.476  -0.605   2.587  0.00  0.00    -0.346 N 
ATOM      8  C   UNL     1      -2.268  -3.558   0.624  0.00  0.00    +0.087 C 
ATOM      9  CA  UNL     1      -2.336  -2.841  -0.733  0.00  0.00    +0.174 C 
ATOM     10  N   UNL     1      -1.181  -1.945  -0.878  0.00  0.00    -0.292 NA
ATOM     11  H   UNL     1      -1.062  -1.659  -1.839  0.00  0.00    +0.124 HD
ENDROOT
BRANCH   1  17
ATOM     12  C   UNL     1      -0.017   1.378   0.010  0.00  0.00    +0.008 A 
ATOM     13  C   UNL     1       1.170   2.086   0.002  0.00  0.00    +0.038 A 
ATOM     14  C   UNL     1       2.379   1.410  -0.013  0.00  0.00    +0.123 A 
ATOM     15  C   UNL     1       2.396   0.026  -0.021  0.00  0.00    +0.038 A 
ATOM     16  C   UNL     1       1.208  -0.680  -0.013  0.00  0.00    +0.008 A 
ATOM     17  C   UNL     1       0.002  -0.004   0.002  0.00  0.00    -0.024 A 
ATOM     18  F   UNL     1       3.540   2.101  -0.021  0.00  0.00    -0.205 F 
ENDBRANCH   1  17
BRANCH   9  19
ATOM     19  C   UNL     1      -2.319  -3.863  -1.840  0.00  0.00    +0.373 C 
ATOM     20  O   UNL     1      -3.367  -4.324  -2.261  0.00  0.00    -0.245 OA
ATOM     21  OXT UNL     1      -1.258  -4.229  -2.316  0.00  0.00    -0.245 OA
ENDBRANCH   9  19
TORSDOF 2
