REMARK  Name = ZINC36653000
REMARK  13 active torsions:
REMARK  status: ('A' for Active; 'I' for Inactive)
REMARK    1  A    between atoms: C_1  and  C_2
REMARK    2  A    between atoms: C_2  and  C_3
REMARK    3  A    between atoms: N_12  and  C_13
REMARK    4  A    between atoms: C_13  and  C_14
REMARK    5  A    between atoms: C_14  and  N_15
REMARK    6  A    between atoms: N_15  and  C_16
REMARK    7  A    between atoms: N_15  and  C_17
REMARK    8  A    between atoms: C_18  and  C_20
REMARK    9  A    between atoms: C_20  and  C_21
REMARK   10  A    between atoms: C_24  and  S_27
REMARK   11  A    between atoms: S_27  and  C_28
REMARK   12  A    between atoms: C_28  and  C_29
REMARK   13  A    between atoms: C_28  and  C_30
REMARK                            x       y       z     vdW  Elec       q    Type
REMARK                         _______ _______ _______ _____ _____    ______ ____
ROOT
ATOM      1  C   UNL     1      -1.504  -0.496  -0.089  0.00  0.00    -0.021 A 
ATOM      2  C   UNL     1      -2.141  -0.766   1.094  0.00  0.00    +0.006 A 
ATOM      3  C   UNL     1      -3.373  -1.403   1.125  0.00  0.00    +0.001 A 
ATOM      4  C   UNL     1      -3.974  -1.774  -0.064  0.00  0.00    +0.017 A 
ATOM      5  C   UNL     1      -3.344  -1.507  -1.253  0.00  0.00    +0.041 A 
ATOM      6  C   UNL     1      -2.092  -0.855  -1.324  0.00  0.00    +0.083 A 
ATOM      7  N   UNL     1      -1.604  -0.659  -2.568  0.00  0.00    -0.224 NA
ATOM      8  C   UNL     1      -2.247  -1.042  -3.647  0.00  0.00    +0.168 A 
ATOM      9  S   UNL     1      -3.722  -1.788  -2.966  0.00  0.00    -0.052 S 
ATOM     10  N   UNL     1      -1.874  -0.908  -4.974  0.00  0.00    -0.252 N 
ATOM     11  C   UNL     1      -0.705  -0.316  -5.289  0.00  0.00    +0.225 C 
ATOM     12  O   UNL     1       0.020   0.100  -4.411  0.00  0.00    -0.275 OA
ENDROOT
BRANCH   1  14
ATOM     13  C   UNL     1      -0.370   1.704  -0.252  0.00  0.00    +0.009 C 
ATOM     14  C   UNL     1      -0.166   0.198  -0.074  0.00  0.00    +0.034 C 
ENDBRANCH   1  14
BRANCH  10  15
ATOM     15  C   UNL     1      -2.750  -1.410  -6.035  0.00  0.00    +0.097 C 
BRANCH  15  16
ATOM     16  C   UNL     1      -3.719  -0.306  -6.463  0.00  0.00    -0.060 C 
BRANCH  16  17
ATOM     17  N   UNL     1      -4.597  -0.809  -7.527  0.00  0.00    +0.377 N 
ATOM     18  C   UNL     1      -5.445  -1.885  -6.994  0.00  0.00    -0.097 C 
ATOM     19  C   UNL     1      -5.446   0.284  -8.020  0.00  0.00    -0.097 C 
ATOM     20  H   UNL     1      -4.036  -1.168  -8.285  0.00  0.00    -0.083 HD
ENDBRANCH  16  17
ENDBRANCH  15  16
ENDBRANCH  10  15
BRANCH  11  21
ATOM     21  C   UNL     1      -0.299  -0.171  -6.733  0.00  0.00    +0.131 C 
BRANCH  21  22
ATOM     22  C   UNL     1       1.038   0.519  -6.812  0.00  0.00    -0.039 A 
ATOM     23  C   UNL     1       1.099   1.899  -6.891  0.00  0.00    +0.005 A 
ATOM     24  C   UNL     1       2.323   2.534  -6.964  0.00  0.00    +0.015 A 
ATOM     25  C   UNL     1       3.494   1.786  -6.958  0.00  0.00    +0.008 A 
ATOM     26  C   UNL     1       3.429   0.400  -6.878  0.00  0.00    +0.015 A 
ATOM     27  C   UNL     1       2.202  -0.228  -6.800  0.00  0.00    +0.005 A 
BRANCH  25  28
ATOM     28  S   UNL     1       5.058   2.593  -7.051  0.00  0.00    -0.122 S 
BRANCH  28  29
ATOM     29  C   UNL     1       5.575   2.750  -5.319  0.00  0.00    +0.045 C 
ATOM     30  C   UNL     1       7.010   3.276  -5.261  0.00  0.00    +0.019 C 
ATOM     31  C   UNL     1       4.644   3.725  -4.596  0.00  0.00    +0.019 C 
ENDBRANCH  28  29
ENDBRANCH  25  28
ENDBRANCH  21  22
ENDBRANCH  11  21
TORSDOF 8
