REMARK  Name = ZINC09474686
REMARK  11 active torsions:
REMARK  status: ('A' for Active; 'I' for Inactive)
REMARK    1  A    between atoms: C_1  and  C_2
REMARK    2  A    between atoms: C_2  and  O_3
REMARK    3  A    between atoms: O_3  and  C_4
REMARK    4  A    between atoms: C_7  and  N_10
REMARK    5  A    between atoms: C_11  and  C_13
REMARK    6  A    between atoms: C_13  and  S_14
REMARK    7  A    between atoms: S_14  and  C_15
REMARK    8  A    between atoms: N_24  and  C_25
REMARK    9  A    between atoms: C_31  and  O_33
REMARK   10  A    between atoms: O_33  and  C_34
REMARK   11  A    between atoms: C_34  and  C_35
REMARK                            x       y       z     vdW  Elec       q    Type
REMARK                         _______ _______ _______ _____ _____    ______ ____
ROOT
ATOM      1  C   UNL     1      -0.892  -2.162   0.012  0.00  0.00    +0.173 A 
ATOM      2  N   UNL     1      -1.057  -0.867   0.030  0.00  0.00    -0.222 NA
ATOM      3  C   UNL     1       0.002  -0.004   0.033  0.00  0.00    +0.086 A 
ATOM      4  C   UNL     1      -0.017   1.399   0.050  0.00  0.00    +0.036 A 
ATOM      5  C   UNL     1       1.140   2.094   0.051  0.00  0.00    +0.048 A 
ATOM      6  S   UNL     1       2.375   0.804   0.027  0.00  0.00    -0.090 S 
ATOM      7  C   UNL     1       1.280  -0.591   0.017  0.00  0.00    +0.102 A 
ATOM      8  C   UNL     1       1.447  -1.974  -0.001  0.00  0.00    +0.269 A 
ATOM      9  O   UNL     1       2.561  -2.469  -0.015  0.00  0.00    -0.266 OA
ATOM     10  N   UNL     1       0.339  -2.753  -0.003  0.00  0.00    -0.284 N 
ENDROOT
BRANCH  10  11
ATOM     11  C   UNL     1       0.460  -4.213  -0.022  0.00  0.00    +0.096 C 
ATOM     12  C   UNL     1       1.229  -4.677   1.217  0.00  0.00    +0.044 C 
ATOM     13  C   UNL     1       1.324  -6.206   1.211  0.00  0.00    +0.113 C 
ATOM     14  N   UNL     1       1.915  -6.639  -0.062  0.00  0.00    -0.267 N 
ATOM     15  C   UNL     1       1.307  -6.174  -1.317  0.00  0.00    +0.113 C 
ATOM     16  C   UNL     1       1.212  -4.646  -1.283  0.00  0.00    +0.044 C 
ATOM     17  C   UNL     1       2.994  -7.446  -0.080  0.00  0.00    +0.403 C 
ATOM     18  O   UNL     1       3.473  -7.797  -1.140  0.00  0.00    -0.226 OA
BRANCH  17  19
ATOM     19  O   UNL     1       3.540  -7.864   1.077  0.00  0.00    -0.451 OA
BRANCH  19  20
ATOM     20  C   UNL     1       4.700  -8.732   0.983  0.00  0.00    +0.230 C 
ATOM     21  C   UNL     1       5.178  -9.100   2.389  0.00  0.00    +0.048 C 
ENDBRANCH  19  20
ENDBRANCH  17  19
ENDBRANCH  10  11
BRANCH   1  22
ATOM     22  S   UNL     1      -2.321  -3.193   0.010  0.00  0.00    -0.078 S 
BRANCH  22  23
ATOM     23  C   UNL     1      -3.619  -1.931   0.033  0.00  0.00    +0.173 C 
BRANCH  23  25
ATOM     24  N   UNL     1      -6.091  -1.853   0.051  0.00  0.00    -0.285 N 
ATOM     25  C   UNL     1      -4.969  -2.600   0.035  0.00  0.00    +0.227 C 
ATOM     26  O   UNL     1      -5.047  -3.810   0.021  0.00  0.00    -0.275 OA
ATOM     27  H   UNL     1      -6.030  -0.888   0.130  0.00  0.00    +0.155 HD
BRANCH  24  31
ATOM     28  C   UNL     1      -9.824  -3.688  -0.236  0.00  0.00    +0.121 A 
ATOM     29  C   UNL     1      -8.793  -4.317   0.446  0.00  0.00    +0.047 A 
ATOM     30  C   UNL     1      -7.556  -3.710   0.542  0.00  0.00    +0.027 A 
ATOM     31  C   UNL     1      -7.345  -2.470  -0.046  0.00  0.00    +0.034 A 
ATOM     32  C   UNL     1      -8.379  -1.839  -0.724  0.00  0.00    +0.027 A 
ATOM     33  C   UNL     1      -9.614  -2.449  -0.823  0.00  0.00    +0.047 A 
BRANCH  28  34
ATOM     34  O   UNL     1     -11.041  -4.287  -0.329  0.00  0.00    -0.492 OA
BRANCH  34  36
ATOM     35  C   UNL     1     -13.347  -4.406  -1.044  0.00  0.00    +0.048 C 
ATOM     36  C   UNL     1     -12.057  -3.583  -1.046  0.00  0.00    +0.225 C 
ENDBRANCH  34  36
ENDBRANCH  28  34
ENDBRANCH  24  31
ENDBRANCH  23  25
ENDBRANCH  22  23
ENDBRANCH   1  22
TORSDOF 9
