REMARK  Name = ZINC63493311
REMARK  11 active torsions:
REMARK  status: ('A' for Active; 'I' for Inactive)
REMARK    1  A    between atoms: C_1  and  C_2
REMARK    2  A    between atoms: C_8  and  C_11
REMARK    3  A    between atoms: C_11  and  C_12
REMARK    4  A    between atoms: C_12  and  N_13
REMARK    5  A    between atoms: N_13  and  C_14
REMARK    6  A    between atoms: C_14  and  C_32
REMARK    7  A    between atoms: C_16  and  C_27
REMARK    8  A    between atoms: N_18  and  C_21
REMARK    9  A    between atoms: C_27  and  C_28
REMARK   10  A    between atoms: C_28  and  O_30
REMARK   11  A    between atoms: O_30  and  C_31
REMARK                            x       y       z     vdW  Elec       q    Type
REMARK                         _______ _______ _______ _____ _____    ______ ____
ROOT
ATOM      1  C   UNL     1      -2.300  -2.924   6.056  0.00  0.00    +0.015 C 
ATOM      2  C   UNL     1      -2.495  -2.566   7.378  0.00  0.00    +0.079 C 
ATOM      3  C   UNL     1      -3.777  -2.378   8.076  0.00  0.00    +0.084 C 
ATOM      4  N   UNL     1      -3.510  -2.046   9.302  0.00  0.00    -0.176 NA
ATOM      5  N   UNL     1      -2.135  -1.985   9.524  0.00  0.00    -0.156 N 
ATOM      6  C   UNL     1      -1.469  -2.297   8.393  0.00  0.00    +0.274 C 
ATOM      7  O   UNL     1      -0.259  -2.344   8.244  0.00  0.00    -0.268 OA
ATOM      8  C   UNL     1      -3.476  -3.014   5.118  0.00  0.00    +0.061 C 
ENDROOT
BRANCH   5   9
ATOM      9  C   UNL     1      -1.533  -1.653  10.744  0.00  0.00    +0.060 A 
ATOM     10  C   UNL     1      -0.149  -1.617  10.850  0.00  0.00    +0.025 A 
ATOM     11  C   UNL     1       0.442  -1.290  12.055  0.00  0.00    +0.002 A 
ATOM     12  C   UNL     1      -0.343  -0.999  13.155  0.00  0.00    +0.000 A 
ATOM     13  C   UNL     1      -1.722  -1.034  13.053  0.00  0.00    +0.002 A 
ATOM     14  C   UNL     1      -2.319  -1.355  11.849  0.00  0.00    +0.025 A 
ENDBRANCH   5   9
BRANCH   1  15
ATOM     15  N   UNL     1      -1.057  -3.192   5.606  0.00  0.00    -0.346 N 
ATOM     16  H   UNL     1      -0.300  -3.133   6.210  0.00  0.00    +0.146 HD
BRANCH  15  17
ATOM     17  C   UNL     1      -0.850  -3.570   4.206  0.00  0.00    +0.105 C 
BRANCH  17  18
ATOM     18  C   UNL     1       0.640  -3.818   3.960  0.00  0.00    +0.052 C 
BRANCH  18  26
ATOM     19  C   UNL     1       2.034   0.083   0.148  0.00  0.00    +0.044 C 
ATOM     20  C   UNL     1       1.769  -1.398   0.228  0.00  0.00    -0.050 A 
ATOM     21  C   UNL     1       1.863  -2.172  -0.937  0.00  0.00    +0.005 A 
ATOM     22  C   UNL     1       1.641  -3.503  -0.947  0.00  0.00    +0.026 A 
ATOM     23  C   UNL     1       1.294  -4.184   0.253  0.00  0.00    +0.043 A 
ATOM     24  N   UNL     1       1.034  -5.445   0.497  0.00  0.00    -0.380 N 
ATOM     25  C   UNL     1       0.733  -5.593   1.925  0.00  0.00    +0.144 C 
ATOM     26  C   UNL     1       0.853  -4.207   2.519  0.00  0.00    -0.040 C 
ATOM     27  C   UNL     1       1.188  -3.389   1.497  0.00  0.00    -0.001 A 
ATOM     28  C   UNL     1       1.452  -1.946   1.423  0.00  0.00    +0.013 A 
ATOM     29  H   UNL     1       1.039  -6.161  -0.158  0.00  0.00    +0.160 HD
ENDBRANCH  18  26
ENDBRANCH  17  18
ENDBRANCH  15  17
ENDBRANCH   1  15
BRANCH   3  30
ATOM     30  C   UNL     1      -5.149  -2.541   7.475  0.00  0.00    +0.178 C 
BRANCH  30  31
ATOM     31  C   UNL     1      -5.622  -1.216   6.935  0.00  0.00    +0.313 C 
ATOM     32  O   UNL     1      -4.916  -0.239   7.027  0.00  0.00    -0.250 OA
BRANCH  31  33
ATOM     33  O   UNL     1      -6.826  -1.120   6.350  0.00  0.00    -0.468 OA
ATOM     34  C   UNL     1      -7.210   0.166   5.860  0.00  0.00    +0.280 C 
ENDBRANCH  31  33
ENDBRANCH  30  31
ENDBRANCH   3  30
TORSDOF 8
