REMARK  Name = ZINC28377653
REMARK  15 active torsions:
REMARK  status: ('A' for Active; 'I' for Inactive)
REMARK    1  A    between atoms: C_1  and  C_2
REMARK    2  A    between atoms: C_4  and  N_13
REMARK    3  A    between atoms: C_8  and  C_12
REMARK    4  A    between atoms: N_10  and  C_11
REMARK    5  A    between atoms: N_13  and  N_14
REMARK    6  A    between atoms: C_15  and  C_16
REMARK    7  A    between atoms: N_18  and  C_19
REMARK    8  A    between atoms: C_19  and  C_20
REMARK    9  A    between atoms: C_20  and  C_21
REMARK   10  A    between atoms: C_21  and  C_22
REMARK   11  A    between atoms: C_22  and  C_23
REMARK   12  A    between atoms: C_23  and  C_24
REMARK   13  A    between atoms: C_24  and  C_25
REMARK   14  A    between atoms: C_25  and  N_26
REMARK   15  A    between atoms: N_26  and  C_27
REMARK                            x       y       z     vdW  Elec       q    Type
REMARK                         _______ _______ _______ _____ _____    ______ ____
ROOT
ATOM      1  C   UNL     1       5.026  -6.841  -0.251  0.00  0.00    +0.104 C 
ENDROOT
BRANCH   1   4
ATOM      2  C   UNL     1       3.745  -4.777  -0.056  0.00  0.00    +0.257 C 
ATOM      3  O   UNL     1       4.793  -4.158  -0.090  0.00  0.00    -0.269 OA
ATOM      4  N   UNL     1       3.755  -6.123  -0.129  0.00  0.00    -0.311 N 
ATOM      5  H   UNL     1       2.808  -6.682  -0.099  0.00  0.00    +0.149 HD
BRANCH   2   7
ATOM      6  N   UNL     1       2.466  -2.759   0.136  0.00  0.00    -0.184 NA
ATOM      7  C   UNL     1       2.475  -4.060   0.065  0.00  0.00    +0.197 C 
BRANCH   6   8
ATOM      8  N   UNL     1       1.250  -2.072   0.252  0.00  0.00    -0.221 N 
ATOM      9  H   UNL     1       0.304  -2.631   0.283  0.00  0.00    +0.176 HD
BRANCH   8  13
ATOM     10  C   UNL     1      -1.296   2.103   0.637  0.00  0.00    +0.044 C 
ATOM     11  C   UNL     1       0.004   1.351   0.518  0.00  0.00    -0.035 A 
ATOM     12  C   UNL     1       0.021  -0.014   0.443  0.00  0.00    +0.049 A 
ATOM     13  C   UNL     1       1.241  -0.684   0.328  0.00  0.00    +0.141 A 
ATOM     14  N   UNL     1       2.386  -0.026   0.290  0.00  0.00    -0.211 NA
ATOM     15  C   UNL     1       2.425   1.299   0.360  0.00  0.00    +0.161 A 
ATOM     16  C   UNL     1       1.228   2.033   0.477  0.00  0.00    +0.045 A 
ATOM     17  C   UNL     1       1.609   3.439   0.529  0.00  0.00    +0.069 A 
ATOM     18  N   UNL     1       2.908   3.501   0.449  0.00  0.00    -0.174 NA
ATOM     19  N   UNL     1       3.443   2.213   0.344  0.00  0.00    -0.249 N 
ATOM     20  C   UNL     1       4.869   1.893   0.235  0.00  0.00    +0.174 C 
ATOM     21  C   UNL     1       0.670   4.611   0.653  0.00  0.00    +0.068 C 
ENDBRANCH   8  13
ENDBRANCH   6   8
ENDBRANCH   2   7
ENDBRANCH   1   4
BRANCH   1  22
ATOM     22  C   UNL     1       4.758  -8.346  -0.315  0.00  0.00    +0.019 C 
BRANCH  22  23
ATOM     23  C   UNL     1       6.086  -9.095  -0.441  0.00  0.00    +0.002 C 
BRANCH  23  24
ATOM     24  C   UNL     1       5.817 -10.600  -0.505  0.00  0.00    +0.000 C 
BRANCH  24  25
ATOM     25  C   UNL     1       7.145 -11.350  -0.632  0.00  0.00    +0.002 C 
BRANCH  25  26
ATOM     26  C   UNL     1       6.877 -12.855  -0.696  0.00  0.00    +0.019 C 
BRANCH  26  27
ATOM     27  C   UNL     1       8.204 -13.605  -0.822  0.00  0.00    +0.101 C 
BRANCH  27  28
ATOM     28  N   UNL     1       7.947 -15.046  -0.884  0.00  0.00    -0.343 N 
ATOM     29  H   UNL     1       6.915 -15.423  -0.838  0.00  0.00    +0.146 HD
BRANCH  28  30
ATOM     30  C   UNL     1       9.005 -15.934  -1.000  0.00  0.00    +0.038 A 
ATOM     31  C   UNL     1      10.315 -15.483  -1.060  0.00  0.00    +0.041 A 
ATOM     32  C   UNL     1      11.352 -16.398  -1.177  0.00  0.00    +0.085 A 
ATOM     33  N   UNL     1      11.133 -17.691  -1.232  0.00  0.00    -0.361 N 
ATOM     34  C   UNL     1       9.896 -18.197  -1.179  0.00  0.00    +0.050 A 
ATOM     35  C   UNL     1       8.783 -17.331  -1.056  0.00  0.00    +0.019 A 
ATOM     36  C   UNL     1       7.489 -17.867  -0.995  0.00  0.00    +0.013 A 
ATOM     37  C   UNL     1       7.315 -19.216  -1.052  0.00  0.00    +0.021 A 
ATOM     38  C   UNL     1       8.409 -20.073  -1.169  0.00  0.00    +0.043 A 
ATOM     39  C   UNL     1       9.678 -19.584  -1.240  0.00  0.00    +0.046 A 
ATOM     40 CL   UNL     1       8.148 -21.788  -1.237  0.00  0.00    -0.083 Cl
ATOM     41  H   UNL     1      11.979 -18.388  -1.324  0.00  0.00    +0.165 HD
ENDBRANCH  28  30
ENDBRANCH  27  28
ENDBRANCH  26  27
ENDBRANCH  25  26
ENDBRANCH  24  25
ENDBRANCH  23  24
ENDBRANCH  22  23
ENDBRANCH   1  22
TORSDOF 12
