REMARK  Name = ZINC33115995
REMARK  13 active torsions:
REMARK  status: ('A' for Active; 'I' for Inactive)
REMARK    1  A    between atoms: C_1  and  C_2
REMARK    2  A    between atoms: C_2  and  N_3
REMARK    3  A    between atoms: N_3  and  C_4
REMARK    4  A    between atoms: N_3  and  C_6
REMARK    5  A    between atoms: C_4  and  C_5
REMARK    6  A    between atoms: C_6  and  C_7
REMARK    7  A    between atoms: C_7  and  C_8
REMARK    8  A    between atoms: C_8  and  N_9
REMARK    9  A    between atoms: C_10  and  C_12
REMARK   10  A    between atoms: C_12  and  C_14
REMARK   11  A    between atoms: C_12  and  C_15
REMARK   12  A    between atoms: C_21  and  C_23
REMARK   13  A    between atoms: C_30  and  C_32
REMARK                            x       y       z     vdW  Elec       q    Type
REMARK                         _______ _______ _______ _____ _____    ______ ____
ROOT
ATOM      1  C   UNL     1       5.918   2.013   0.977  0.00  0.00    +0.004 C 
ATOM      2  C   UNL     1       5.752   3.530   1.095  0.00  0.00    +0.023 C 
ATOM      3  C   UNL     1       5.040   4.061  -0.152  0.00  0.00    +0.108 C 
ATOM      4  N   UNL     1       3.778   3.327  -0.325  0.00  0.00    -0.298 N 
ATOM      5  C   UNL     1       3.814   1.859  -0.355  0.00  0.00    +0.108 C 
ATOM      6  C   UNL     1       4.541   1.353   0.889  0.00  0.00    +0.023 C 
ATOM      7  C   UNL     1       2.610   3.989  -0.447  0.00  0.00    +0.247 C 
ATOM      8  O   UNL     1       2.602   5.204  -0.492  0.00  0.00    -0.270 OA
ENDROOT
BRANCH   7   9
ATOM      9  C   UNL     1       1.342   3.238  -0.526  0.00  0.00    +0.041 A 
ATOM     10  C   UNL     1       0.241   3.643   0.240  0.00  0.00    +0.015 A 
ATOM     11  C   UNL     1      -0.934   2.958   0.175  0.00  0.00    +0.032 A 
ATOM     12  C   UNL     1      -1.048   1.838  -0.658  0.00  0.00    +0.110 A 
ATOM     13  C   UNL     1       0.051   1.429  -1.435  0.00  0.00    +0.156 A 
ATOM     14  C   UNL     1       1.242   2.128  -1.365  0.00  0.00    +0.061 A 
ATOM     15  O   UNL     1      -0.356   0.343  -2.130  0.00  0.00    -0.435 OA
ATOM     16  C   UNL     1      -1.634   0.088  -1.794  0.00  0.00    +0.228 A 
ATOM     17  N   UNL     1      -2.056   0.974  -0.926  0.00  0.00    -0.209 NA
BRANCH  16  18
ATOM     18  C   UNL     1      -2.446  -1.022  -2.336  0.00  0.00    +0.037 A 
ATOM     19  C   UNL     1      -1.895  -1.906  -3.264  0.00  0.00    +0.013 A 
ATOM     20  C   UNL     1      -2.657  -2.943  -3.761  0.00  0.00    +0.001 A 
ATOM     21  C   UNL     1      -3.969  -3.101  -3.350  0.00  0.00    +0.000 A 
ATOM     22  C   UNL     1      -4.523  -2.224  -2.434  0.00  0.00    +0.001 A 
ATOM     23  C   UNL     1      -3.770  -1.186  -1.925  0.00  0.00    +0.013 A 
ENDBRANCH  16  18
ENDBRANCH   7   9
BRANCH   1  24
ATOM     24  C   UNL     1       6.660   1.484   2.205  0.00  0.00    +0.075 C 
ATOM     25  C   UNL     1       6.827  -0.033   2.087  0.00  0.00    +0.017 C 
BRANCH  24  27
ATOM     26  N   UNL     1       8.854   1.817   3.300  0.00  0.00    -0.315 N 
ATOM     27  C   UNL     1       8.018   2.133   2.291  0.00  0.00    +0.216 C 
ATOM     28  O   UNL     1       8.358   2.940   1.451  0.00  0.00    -0.276 OA
ATOM     29  H   UNL     1       8.545   1.085   4.061  0.00  0.00    +0.149 HD
BRANCH  26  30
ATOM     30  C   UNL     1      10.173   2.448   3.383  0.00  0.00    +0.102 C 
BRANCH  30  31
ATOM     31  C   UNL     1      10.915   1.919   4.612  0.00  0.00    +0.000 C 
BRANCH  31  32
ATOM     32  C   UNL     1      12.293   2.578   4.698  0.00  0.00    -0.077 C 
BRANCH  32  33
ATOM     33  N   UNL     1      13.006   2.070   5.878  0.00  0.00    +0.379 N 
ATOM     34  H   UNL     1      12.345   2.188   6.749  0.00  0.00    -0.082 HD
BRANCH  33  36
ATOM     35  C   UNL     1      14.267   0.439   4.556  0.00  0.00    -0.017 C 
ATOM     36  C   UNL     1      13.310   0.640   5.734  0.00  0.00    -0.082 C 
ENDBRANCH  33  36
BRANCH  33  37
ATOM     37  C   UNL     1      14.227   2.845   6.130  0.00  0.00    -0.082 C 
ATOM     38  C   UNL     1      14.734   2.554   7.544  0.00  0.00    -0.017 C 
ENDBRANCH  33  37
ENDBRANCH  32  33
ENDBRANCH  31  32
ENDBRANCH  30  31
ENDBRANCH  26  30
ENDBRANCH  24  27
ENDBRANCH   1  24
TORSDOF 10
