REMARK  Name = ZINC19942991
REMARK  7 active torsions:
REMARK  status: ('A' for Active; 'I' for Inactive)
REMARK    1  A    between atoms: C_1  and  C_2
REMARK    2  A    between atoms: C_2  and  O_3
REMARK    3  A    between atoms: O_3  and  C_4
REMARK    4  A    between atoms: C_7  and  S_14
REMARK    5  A    between atoms: S_14  and  N_17
REMARK    6  A    between atoms: C_19  and  C_26
REMARK    7  A    between atoms: C_22  and  C_25
REMARK                            x       y       z     vdW  Elec       q    Type
REMARK                         _______ _______ _______ _____ _____    ______ ____
ROOT
ATOM      1  C   UNL     1      -2.766   1.084   0.138  0.00  0.00    +0.128 A 
ATOM      2  C   UNL     1      -3.886   1.866   0.080  0.00  0.00    +0.048 A 
ATOM      3  C   UNL     1      -3.788   3.254   0.054  0.00  0.00    +0.033 A 
ATOM      4  C   UNL     1      -2.576   3.874   0.087  0.00  0.00    +0.113 A 
ATOM      5  C   UNL     1      -1.401   3.106   0.147  0.00  0.00    +0.012 A 
ATOM      6  C   UNL     1      -1.495   1.692   0.168  0.00  0.00    +0.026 A 
ATOM      7  C   UNL     1      -0.320   0.925   0.234  0.00  0.00    +0.012 A 
ATOM      8  C   UNL     1       0.890   1.548   0.266  0.00  0.00    +0.001 A 
ATOM      9  C   UNL     1       0.983   2.938   0.241  0.00  0.00    +0.001 A 
ATOM     10  C   UNL     1      -0.134   3.713   0.182  0.00  0.00    +0.010 A 
ENDROOT
BRANCH   4  11
ATOM     11  S   UNL     1      -2.482   5.633   0.053  0.00  0.00    +0.061 S 
ATOM     12  O   UNL     1      -1.469   5.968  -0.886  0.00  0.00    -0.153 OA
ATOM     13  O   UNL     1      -3.816   6.109  -0.064  0.00  0.00    -0.153 OA
BRANCH  11  14
ATOM     14  N   UNL     1      -1.933   6.123   1.536  0.00  0.00    -0.176 NA
ATOM     15  C   UNL     1      -2.852   6.228   2.677  0.00  0.00    +0.112 C 
ATOM     16  C   UNL     1      -2.280   5.408   3.843  0.00  0.00    +0.002 C 
ATOM     17  C   UNL     1      -0.854   5.880   4.139  0.00  0.00    +0.009 C 
ATOM     18  C   UNL     1       0.027   5.649   2.910  0.00  0.00    +0.002 C 
ATOM     19  C   UNL     1      -0.518   6.467   1.735  0.00  0.00    +0.112 C 
ATOM     20  C   UNL     1       1.459   6.091   3.218  0.00  0.00    +0.009 C 
ATOM     21  C   UNL     1      -2.259   3.925   3.468  0.00  0.00    +0.009 C 
ENDBRANCH  11  14
ENDBRANCH   4  11
BRANCH   1  22
ATOM     22  O   UNL     1      -2.877  -0.269   0.162  0.00  0.00    -0.492 OA
BRANCH  22  24
ATOM     23  C   UNL     1      -4.123  -2.340   0.158  0.00  0.00    +0.048 C 
ATOM     24  C   UNL     1      -4.198  -0.812   0.123  0.00  0.00    +0.226 C 
ENDBRANCH  22  24
ENDBRANCH   1  22
TORSDOF 4
