REMARK  Name = ZINC67240499
REMARK  6 active torsions:
REMARK  status: ('A' for Active; 'I' for Inactive)
REMARK    1  A    between atoms: C_3  and  N_12
REMARK    2  A    between atoms: C_6  and  C_7
REMARK    3  A    between atoms: C_7  and  N_8
REMARK    4  A    between atoms: C_13  and  C_15
REMARK    5  A    between atoms: N_17  and  C_24
REMARK    6  A    between atoms: C_18  and  C_21
REMARK                            x       y       z     vdW  Elec       q    Type
REMARK                         _______ _______ _______ _____ _____    ______ ____
ROOT
ATOM      1  N   UNL     1       3.583   2.123  -0.021  0.00  0.00    -0.280 N 
ATOM      2  C   UNL     1       4.757   1.467   0.066  0.00  0.00    +0.264 C 
ATOM      3  O   UNL     1       4.776   0.249   0.060  0.00  0.00    -0.268 OA
ATOM      4  H   UNL     1       3.572   3.090  -0.093  0.00  0.00    +0.155 HD
ENDROOT
BRANCH   1   7
ATOM      5  C   UNL     1       1.083  -0.460   0.751  0.00  0.00    +0.007 A 
ATOM      6  C   UNL     1       2.272   0.243   0.739  0.00  0.00    +0.023 A 
ATOM      7  C   UNL     1       2.381   1.409  -0.007  0.00  0.00    +0.034 A 
ATOM      8  C   UNL     1       1.292   1.866  -0.739  0.00  0.00    +0.023 A 
ATOM      9  C   UNL     1       0.106   1.159  -0.723  0.00  0.00    +0.007 A 
ATOM     10  C   UNL     1       0.001  -0.002   0.021  0.00  0.00    -0.030 A 
BRANCH  10  11
ATOM     11  C   UNL     1      -1.295  -0.771   0.036  0.00  0.00    +0.141 C 
BRANCH  11  12
ATOM     12  N   UNL     1      -2.138  -0.284   1.131  0.00  0.00    -0.295 N 
ATOM     13  C   UNL     1      -3.353  -0.829   1.339  0.00  0.00    +0.297 C 
ATOM     14  O   UNL     1      -3.750  -1.724   0.618  0.00  0.00    -0.253 OA
ATOM     15  N   UNL     1      -4.130  -0.381   2.345  0.00  0.00    -0.313 N 
ATOM     16  H   UNL     1      -1.822   0.430   1.706  0.00  0.00    +0.151 HD
ATOM     17  H   UNL     1      -3.813   0.333   2.921  0.00  0.00    +0.146 HD
ATOM     18  H   UNL     1      -5.004  -0.773   2.495  0.00  0.00    +0.146 HD
ENDBRANCH  11  12
ENDBRANCH  10  11
ENDBRANCH   1   7
BRANCH   2  19
ATOM     19  C   UNL     1       6.008   2.217   0.168  0.00  0.00    +0.123 C 
ATOM     20  N   UNL     1       6.107   3.508   0.189  0.00  0.00    -0.178 NA
ATOM     21  N   UNL     1       7.415   3.974   0.292  0.00  0.00    -0.212 N 
ATOM     22  C   UNL     1       8.329   2.823   0.348  0.00  0.00    +0.189 C 
ATOM     23  C   UNL     1       7.387   1.606   0.271  0.00  0.00    +0.096 C 
BRANCH  21  24
ATOM     24  C   UNL     1       7.798   5.317   0.335  0.00  0.00    +0.053 A 
ATOM     25  C   UNL     1       9.142   5.655   0.433  0.00  0.00    +0.028 A 
ATOM     26  C   UNL     1       9.517   6.984   0.474  0.00  0.00    +0.040 A 
ATOM     27  C   UNL     1       8.555   7.978   0.418  0.00  0.00    +0.124 A 
ATOM     28  C   UNL     1       7.215   7.644   0.321  0.00  0.00    +0.040 A 
ATOM     29  C   UNL     1       6.835   6.317   0.273  0.00  0.00    +0.028 A 
ATOM     30  F   UNL     1       8.925   9.277   0.460  0.00  0.00    -0.205 F 
ENDBRANCH  21  24
BRANCH  22  31
ATOM     31  C   UNL     1       9.280   2.843  -0.822  0.00  0.00    +0.233 C 
ATOM     32  O   UNL     1       9.020   3.508  -1.802  0.00  0.00    -0.274 OA
ATOM     33  N   UNL     1      10.418   2.122  -0.778  0.00  0.00    -0.328 N 
ATOM     34  H   UNL     1      10.625   1.591   0.006  0.00  0.00    +0.145 HD
ATOM     35  H   UNL     1      11.029   2.135  -1.531  0.00  0.00    +0.145 HD
ENDBRANCH  22  31
ENDBRANCH   2  19
TORSDOF 6
