REMARK  Name = ZINC55168816
REMARK  2 active torsions:
REMARK  status: ('A' for Active; 'I' for Inactive)
REMARK    1  A    between atoms: C_6  and  C_7
REMARK    2  A    between atoms: C_13  and  C_15
REMARK                            x       y       z     vdW  Elec       q    Type
REMARK                         _______ _______ _______ _____ _____    ______ ____
ROOT
ATOM      1  C   UNL     1      -0.017   1.395   0.015  0.00  0.00    +0.017 A 
ATOM      2  C   UNL     1       1.164   2.097   0.006  0.00  0.00    +0.024 A 
ATOM      3  C   UNL     1       2.389   1.420  -0.011  0.00  0.00    +0.040 A 
ATOM      4  C   UNL     1       2.398   0.030  -0.018  0.00  0.00    -0.024 A 
ATOM      5  C   UNL     1       1.229  -0.676  -0.010  0.00  0.00    +0.020 A 
ATOM      6  C   UNL     1       0.002  -0.004   0.007  0.00  0.00    +0.064 A 
ATOM      7  C   UNL     1       3.836  -0.439  -0.035  0.00  0.00    +0.056 C 
ATOM      8  C   UNL     1       4.664   0.856  -0.037  0.00  0.00    +0.119 C 
ATOM      9  N   UNL     1       3.680   1.941  -0.022  0.00  0.00    -0.264 N 
ATOM     10  C   UNL     1       3.981   3.255  -0.019  0.00  0.00    +0.290 C 
ATOM     11  O   UNL     1       3.094   4.082  -0.099  0.00  0.00    -0.266 OA
ENDROOT
BRANCH  10  12
ATOM     12  C   UNL     1       5.390   3.690   0.082  0.00  0.00    +0.238 A 
ATOM     13  N   UNL     1       5.809   4.962   0.197  0.00  0.00    -0.190 NA
ATOM     14  C   UNL     1       7.119   4.990   0.264  0.00  0.00    +0.209 A 
ATOM     15  N   UNL     1       7.572   3.717   0.193  0.00  0.00    -0.246 N 
ATOM     16  H   UNL     1       8.498   3.428   0.217  0.00  0.00    +0.192 HD
ATOM     17  N   UNL     1       6.438   2.896   0.081  0.00  0.00    -0.146 NA
ATOM     18  N   UNL     1       7.901   6.124   0.385  0.00  0.00    -0.328 N 
ATOM     19  H   UNL     1       7.484   6.999   0.428  0.00  0.00    +0.145 HD
ATOM     20  H   UNL     1       8.867   6.045   0.427  0.00  0.00    +0.145 HD
ENDBRANCH  10  12
BRANCH   6  21
ATOM     21  C   UNL     1      -1.260  -0.763   0.017  0.00  0.00    +0.387 C 
ATOM     22  O   UNL     1      -2.330  -0.170   0.031  0.00  0.00    -0.241 OA
ATOM     23  O   UNL     1      -1.238  -1.986   0.010  0.00  0.00    -0.241 OA
ENDBRANCH   6  21
TORSDOF 2
