REMARK  Name = ZINC21487090
REMARK  2 active torsions:
REMARK  status: ('A' for Active; 'I' for Inactive)
REMARK    1  A    between atoms: N_7  and  N_8
REMARK    2  A    between atoms: N_22  and  N_23
REMARK                            x       y       z     vdW  Elec       q    Type
REMARK                         _______ _______ _______ _____ _____    ______ ____
ROOT
ATOM      1  C   UNL     1      -0.019   1.557   0.011  0.00  0.00    +0.009 C 
ATOM      2  C   UNL     1       1.530   1.756  -0.003  0.00  0.00    +0.002 C 
ATOM      3  C   UNL     1       1.944   0.880  -1.231  0.00  0.00    +0.047 C 
ATOM      4  C   UNL     1       3.305   0.327  -0.837  0.00  0.00    +0.041 C 
ATOM      5  N   UNL     1       4.250  -0.011  -1.632  0.00  0.00    -0.188 NA
ATOM      6  C   UNL     1       3.329   0.253   0.675  0.00  0.00    +0.057 C 
ATOM      7  C   UNL     1       1.988   0.846   1.185  0.00  0.00    +0.002 C 
ATOM      8  C   UNL     1       0.945  -0.297   1.239  0.00  0.00    +0.002 C 
ATOM      9  C   UNL     1       0.002  -0.004   0.002  0.00  0.00    +0.002 C 
ATOM     10  C   UNL     1       0.938  -0.312  -1.206  0.00  0.00    +0.047 C 
ATOM     11  C   UNL     1       1.761  -1.508  -0.744  0.00  0.00    +0.041 C 
ATOM     12  N   UNL     1       2.474  -2.270  -1.485  0.00  0.00    -0.188 NA
ATOM     13  C   UNL     1       1.632  -1.618   0.834  0.00  0.00    +0.057 C 
ENDROOT
BRANCH   5  14
ATOM     14  N   UNL     1       5.455  -0.508  -1.117  0.00  0.00    -0.191 N 
ATOM     15  C   UNL     1       6.449  -0.864  -1.954  0.00  0.00    +0.317 C 
ATOM     16  O   UNL     1       7.495  -1.296  -1.507  0.00  0.00    -0.251 OA
ATOM     17  N   UNL     1       6.285  -0.742  -3.286  0.00  0.00    -0.312 N 
ATOM     18  H   UNL     1       5.573  -0.597  -0.159  0.00  0.00    +0.179 HD
ATOM     19  H   UNL     1       5.452  -0.398  -3.643  0.00  0.00    +0.147 HD
ATOM     20  H   UNL     1       7.001  -0.998  -3.889  0.00  0.00    +0.147 HD
ENDBRANCH   5  14
BRANCH  12  21
ATOM     21  N   UNL     1       3.180  -3.338  -0.917  0.00  0.00    -0.191 N 
ATOM     22  C   UNL     1       3.931  -4.140  -1.698  0.00  0.00    +0.317 C 
ATOM     23  O   UNL     1       4.545  -5.067  -1.205  0.00  0.00    -0.251 OA
ATOM     24  N   UNL     1       4.003  -3.914  -3.025  0.00  0.00    -0.312 N 
ATOM     25  H   UNL     1       3.129  -3.500   0.037  0.00  0.00    +0.179 HD
ATOM     26  H   UNL     1       3.513  -3.175  -3.418  0.00  0.00    +0.147 HD
ATOM     27  H   UNL     1       4.543  -4.492  -3.587  0.00  0.00    +0.147 HD
ENDBRANCH  12  21
TORSDOF 2
