REMARK  Name = ZINC45991964
REMARK  10 active torsions:
REMARK  status: ('A' for Active; 'I' for Inactive)
REMARK    1  A    between atoms: C_1  and  C_2
REMARK    2  A    between atoms: C_2  and  C_3
REMARK    3  A    between atoms: C_8  and  N_9
REMARK    4  A    between atoms: C_10  and  C_12
REMARK    5  A    between atoms: C_12  and  C_14
REMARK    6  A    between atoms: C_12  and  O_15
REMARK    7  A    between atoms: O_15  and  C_16
REMARK    8  A    between atoms: C_18  and  C_27
REMARK    9  A    between atoms: C_20  and  C_26
REMARK   10  A    between atoms: N_22  and  C_25
REMARK                            x       y       z     vdW  Elec       q    Type
REMARK                         _______ _______ _______ _____ _____    ______ ____
ROOT
ATOM      1  C   UNL     1       6.980  -1.053   2.073  0.00  0.00    +0.218 A 
ATOM      2  C   UNL     1       8.308  -1.448   1.940  0.00  0.00    +0.076 A 
ATOM      3  C   UNL     1       9.001  -1.895   3.059  0.00  0.00    -0.000 A 
ATOM      4  C   UNL     1       8.315  -1.927   4.294  0.00  0.00    +0.049 A 
ATOM      5  C   UNL     1       8.679  -2.308   5.604  0.00  0.00    +0.070 A 
ATOM      6  N   UNL     1       7.651  -2.140   6.385  0.00  0.00    -0.174 NA
ATOM      7  N   UNL     1       6.571  -1.647   5.644  0.00  0.00    -0.249 N 
ATOM      8  C   UNL     1       6.972  -1.511   4.341  0.00  0.00    +0.163 A 
ATOM      9  N   UNL     1       6.363  -1.088   3.239  0.00  0.00    -0.193 NA
ATOM     10  C   UNL     1       5.240  -1.332   6.169  0.00  0.00    +0.174 C 
ATOM     11  C   UNL     1      10.031  -2.823   6.027  0.00  0.00    +0.068 C 
ENDROOT
BRANCH   3  12
ATOM     12  C   UNL     1      10.416  -2.324   2.960  0.00  0.00    -0.017 A 
ATOM     13  C   UNL     1      11.364  -1.822   3.851  0.00  0.00    +0.008 A 
ATOM     14  C   UNL     1      12.680  -2.226   3.753  0.00  0.00    +0.001 A 
ATOM     15  C   UNL     1      13.059  -3.126   2.774  0.00  0.00    +0.000 A 
ATOM     16  C   UNL     1      12.123  -3.627   1.887  0.00  0.00    +0.001 A 
ATOM     17  C   UNL     1      10.803  -3.236   1.978  0.00  0.00    +0.008 A 
ENDBRANCH   3  12
BRANCH   1  18
ATOM     18  O   UNL     1       6.305  -0.617   0.979  0.00  0.00    -0.464 OA
BRANCH  18  19
ATOM     19  C   UNL     1       4.947  -0.219   1.171  0.00  0.00    +0.257 C 
ATOM     20  C   UNL     1       4.896   1.273   1.510  0.00  0.00    +0.062 C 
BRANCH  19  22
ATOM     21  N   UNL     1       2.833  -0.268  -0.113  0.00  0.00    -0.282 N 
ATOM     22  C   UNL     1       4.165  -0.474  -0.091  0.00  0.00    +0.258 C 
ATOM     23  O   UNL     1       4.734  -0.865  -1.088  0.00  0.00    -0.271 OA
ATOM     24  H   UNL     1       2.388   0.106   0.663  0.00  0.00    +0.155 HD
BRANCH  21  30
ATOM     25  C   UNL     1       0.800  -1.084  -1.129  0.00  0.00    -0.026 A 
ATOM     26  C   UNL     1       0.070  -1.399  -2.259  0.00  0.00    +0.005 A 
ATOM     27  C   UNL     1       0.627  -1.233  -3.513  0.00  0.00    +0.000 A 
ATOM     28  C   UNL     1       1.917  -0.751  -3.641  0.00  0.00    +0.002 A 
ATOM     29  C   UNL     1       2.652  -0.433  -2.516  0.00  0.00    +0.023 A 
ATOM     30  C   UNL     1       2.093  -0.594  -1.255  0.00  0.00    +0.037 A 
BRANCH  25  32
ATOM     31  C   UNL     1      -0.422   0.058   0.702  0.00  0.00    +0.009 C 
ATOM     32  C   UNL     1       0.191  -1.265   0.237  0.00  0.00    +0.033 C 
ENDBRANCH  25  32
ENDBRANCH  21  30
ENDBRANCH  19  22
ENDBRANCH  18  19
ENDBRANCH   1  18
TORSDOF 6
