REMARK  Name = ZINC13023847
REMARK  13 active torsions:
REMARK  status: ('A' for Active; 'I' for Inactive)
REMARK    1  A    between atoms: C_1  and  C_2
REMARK    2  A    between atoms: C_2  and  C_3
REMARK    3  A    between atoms: C_3  and  C_4
REMARK    4  A    between atoms: C_3  and  C_5
REMARK    5  A    between atoms: C_3  and  N_6
REMARK    6  A    between atoms: C_7  and  C_9
REMARK    7  A    between atoms: C_9  and  C_11
REMARK    8  A    between atoms: C_9  and  N_17
REMARK    9  A    between atoms: N_17  and  C_18
REMARK   10  A    between atoms: C_23  and  O_24
REMARK   11  A    between atoms: O_24  and  C_25
REMARK   12  A    between atoms: C_27  and  C_29
REMARK   13  A    between atoms: C_29  and  N_30
REMARK                            x       y       z     vdW  Elec       q    Type
REMARK                         _______ _______ _______ _____ _____    ______ ____
ROOT
ATOM      1  N   UNL     1      -5.502   3.416  -1.656  0.00  0.00    -0.250 N 
ATOM      2  C   UNL     1      -4.212   3.674  -1.363  0.00  0.00    +0.242 C 
ATOM      3  O   UNL     1      -3.435   3.963  -2.248  0.00  0.00    -0.273 OA
ENDROOT
BRANCH   1   4
ATOM      4  C   UNL     1      -6.400   3.083  -0.634  0.00  0.00    +0.081 A 
ATOM      5  C   UNL     1      -7.089   4.081   0.040  0.00  0.00    +0.047 A 
ATOM      6  C   UNL     1      -7.975   3.749   1.049  0.00  0.00    +0.043 A 
ATOM      7  C   UNL     1      -8.176   2.422   1.388  0.00  0.00    +0.024 A 
ATOM      8  C   UNL     1      -7.492   1.423   0.721  0.00  0.00    +0.049 A 
ATOM      9  C   UNL     1      -6.608   1.748  -0.295  0.00  0.00    +0.142 A 
ATOM     10 CL   UNL     1      -8.836   4.998   1.891  0.00  0.00    -0.083 Cl
BRANCH   9  11
ATOM     11  O   UNL     1      -5.940   0.765  -0.956  0.00  0.00    -0.493 OA
ATOM     12  C   UNL     1      -6.202  -0.581  -0.556  0.00  0.00    +0.277 C 
ENDBRANCH   9  11
ENDBRANCH   1   4
BRANCH   1  13
ATOM     13  C   UNL     1      -5.966   3.485  -3.044  0.00  0.00    +0.197 C 
BRANCH  13  14
ATOM     14  C   UNL     1      -6.650   2.193  -3.410  0.00  0.00    -0.015 A 
ATOM     15  C   UNL     1      -6.106   1.348  -4.366  0.00  0.00    +0.025 A 
ATOM     16  C   UNL     1      -6.760   0.169  -4.672  0.00  0.00    +0.111 A 
ATOM     17  N   UNL     1      -7.891  -0.150  -4.074  0.00  0.00    -0.263 NA
ATOM     18  C   UNL     1      -8.439   0.632  -3.165  0.00  0.00    +0.111 A 
ATOM     19  C   UNL     1      -7.840   1.824  -2.803  0.00  0.00    +0.025 A 
ENDBRANCH  13  14
BRANCH  13  21
ATOM     20  N   UNL     1      -7.497   4.883  -4.393  0.00  0.00    -0.308 N 
ATOM     21  C   UNL     1      -6.937   4.627  -3.194  0.00  0.00    +0.239 C 
ATOM     22  O   UNL     1      -7.215   5.316  -2.235  0.00  0.00    -0.273 OA
ATOM     23  H   UNL     1      -7.275   4.332  -5.160  0.00  0.00    +0.149 HD
BRANCH  20  24
ATOM     24  C   UNL     1      -8.441   5.994  -4.538  0.00  0.00    +0.029 C 
ATOM     25  C   UNL     1      -9.638   5.770  -3.611  0.00  0.00    +0.031 C 
ATOM     26  C   UNL     1      -7.747   7.306  -4.167  0.00  0.00    +0.031 C 
BRANCH  24  28
ATOM     27  C   UNL     1      -9.911   7.226  -6.139  0.00  0.00    +0.006 C 
ATOM     28  C   UNL     1      -8.925   6.066  -5.988  0.00  0.00    +0.022 C 
ENDBRANCH  24  28
ENDBRANCH  20  24
ENDBRANCH  13  21
ENDBRANCH   1  13
BRANCH   2  29
ATOM     29  C   UNL     1      -3.736   3.604   0.065  0.00  0.00    +0.242 C 
BRANCH  29  30
ATOM     30  N   UNL     1      -2.307   3.923   0.119  0.00  0.00    -0.235 N 
ATOM     31  C   UNL     1      -1.261   3.037   0.015  0.00  0.00    +0.090 A 
ATOM     32  C   UNL     1      -1.175   1.661  -0.166  0.00  0.00    +0.029 A 
ATOM     33  C   UNL     1       0.050   1.059  -0.226  0.00  0.00    +0.002 A 
ATOM     34  C   UNL     1       1.213   1.811  -0.119  0.00  0.00    +0.002 A 
ATOM     35  C   UNL     1       1.156   3.163   0.054  0.00  0.00    +0.032 A 
ATOM     36  C   UNL     1      -0.088   3.804   0.125  0.00  0.00    +0.113 A 
ATOM     37  N   UNL     1      -0.455   5.091   0.286  0.00  0.00    -0.129 NA
ATOM     38  N   UNL     1      -1.737   5.194   0.288  0.00  0.00    -0.064 NA
ENDBRANCH  29  30
ENDBRANCH   2  29
TORSDOF 9
