REMARK  Name = ZINC15082623
REMARK  13 active torsions:
REMARK  status: ('A' for Active; 'I' for Inactive)
REMARK    1  A    between atoms: C_1  and  C_2
REMARK    2  A    between atoms: C_3  and  C_12
REMARK    3  A    between atoms: C_12  and  C_13
REMARK    4  A    between atoms: C_13  and  C_14
REMARK    5  A    between atoms: C_14  and  N_64
REMARK    6  A    between atoms: C_15  and  C_16
REMARK    7  A    between atoms: C_15  and  N_64
REMARK    8  A    between atoms: C_19  and  C_22
REMARK    9  A    between atoms: C_22  and  C_23
REMARK   10  A    between atoms: C_25  and  O_34
REMARK   11  A    between atoms: C_28  and  O_29
REMARK   12  A    between atoms: O_29  and  C_30
REMARK   13  A    between atoms: O_34  and  C_35
REMARK                            x       y       z     vdW  Elec       q    Type
REMARK                         _______ _______ _______ _____ _____    ______ ____
ROOT
ATOM      1  C   UNL     1       2.626   3.866   0.941  0.00  0.00    +0.044 C 
ATOM      2  N   UNL     1       2.937   2.791   1.556  0.00  0.00    -0.096 NA
ATOM      3  O   UNL     1       2.100   1.700   1.226  0.00  0.00    -0.390 OA
ATOM      4  C   UNL     1       1.417   2.032  -0.001  0.00  0.00    +0.214 C 
ATOM      5  C   UNL     1       1.438   3.579   0.043  0.00  0.00    +0.099 C 
ENDROOT
BRANCH   1   6
ATOM      6  C   UNL     1       3.321   5.195   1.085  0.00  0.00    -0.027 C 
BRANCH   6   7
ATOM      7  N   UNL     1       4.425   5.061   2.054  0.00  0.00    +0.383 N 
ATOM      8  H   UNL     1       4.045   4.766   2.962  0.00  0.00    -0.085 HD
ATOM      9  H   UNL     1       5.089   4.355   1.715  0.00  0.00    -0.085 HD
BRANCH   7  10
ATOM     10  C   UNL     1       5.125   6.349   2.215  0.00  0.00    -0.082 C 
BRANCH  10  11
ATOM     11  C   UNL     1       6.263   6.180   3.224  0.00  0.00    -0.014 C 
BRANCH  11  12
ATOM     12  C   UNL     1       6.994   7.512   3.397  0.00  0.00    +0.036 C 
BRANCH  12  15
ATOM     13  C   UNL     1       9.915   6.695   2.738  0.00  0.00    +0.063 C 
ATOM     14  C   UNL     1       9.380   6.992   4.115  0.00  0.00    +0.017 A 
ATOM     15  C   UNL     1       8.114   7.345   4.391  0.00  0.00    -0.019 A 
ATOM     16  C   UNL     1       8.031   7.543   5.840  0.00  0.00    +0.003 A 
ATOM     17  C   UNL     1       7.001   7.899   6.713  0.00  0.00    +0.010 A 
ATOM     18  C   UNL     1       7.250   7.994   8.053  0.00  0.00    +0.001 A 
ATOM     19  C   UNL     1       8.518   7.731   8.555  0.00  0.00    +0.002 A 
ATOM     20  C   UNL     1       9.546   7.372   7.712  0.00  0.00    +0.026 A 
ATOM     21  C   UNL     1       9.315   7.270   6.344  0.00  0.00    +0.047 A 
ATOM     22  N   UNL     1      10.112   6.942   5.270  0.00  0.00    -0.358 N 
ATOM     23  H   UNL     1      11.053   6.710   5.324  0.00  0.00    +0.166 HD
ENDBRANCH  12  15
ENDBRANCH  11  12
ENDBRANCH  10  11
ENDBRANCH   7  10
ENDBRANCH   6   7
ENDBRANCH   1   6
BRANCH   4  24
ATOM     24  C   UNL     1      -0.018   1.503   0.010  0.00  0.00    +0.086 C 
BRANCH  24  25
ATOM     25  C   UNL     1       0.002  -0.004   0.002  0.00  0.00    +0.005 A 
ATOM     26  C   UNL     1      -0.110  -0.690  -1.194  0.00  0.00    +0.057 A 
ATOM     27  C   UNL     1      -0.086  -2.075  -1.207  0.00  0.00    +0.166 A 
ATOM     28  C   UNL     1       0.040  -2.779  -0.014  0.00  0.00    +0.211 A 
ATOM     29  C   UNL     1       0.147  -2.091   1.188  0.00  0.00    +0.211 A 
ATOM     30  C   UNL     1       0.128  -0.701   1.193  0.00  0.00    +0.169 A 
ATOM     31  O   UNL     1       0.258  -2.998   2.203  0.00  0.00    -0.449 OA
ATOM     32  C   UNL     1       0.628  -4.238   1.572  0.00  0.00    +0.467 C 
ATOM     33  O   UNL     1       0.084  -4.120   0.244  0.00  0.00    -0.449 OA
BRANCH  30  34
ATOM     34  O   UNL     1       0.233  -0.024   2.369  0.00  0.00    -0.491 OA
ATOM     35  C   UNL     1      -0.985   0.282   3.053  0.00  0.00    +0.277 C 
ENDBRANCH  30  34
BRANCH  27  36
ATOM     36  O   UNL     1      -0.191  -2.746  -2.385  0.00  0.00    -0.491 OA
ATOM     37  C   UNL     1      -0.316  -1.959  -3.571  0.00  0.00    +0.277 C 
ENDBRANCH  27  36
ENDBRANCH  24  25
ENDBRANCH   4  24
TORSDOF 10
