REMARK  Name = ZINC55175544
REMARK  5 active torsions:
REMARK  status: ('A' for Active; 'I' for Inactive)
REMARK    1  A    between atoms: C_1  and  C_2
REMARK    2  A    between atoms: C_3  and  C_8
REMARK    3  A    between atoms: N_10  and  C_11
REMARK    4  A    between atoms: C_11  and  C_19
REMARK    5  A    between atoms: C_15  and  C_18
REMARK                            x       y       z     vdW  Elec       q    Type
REMARK                         _______ _______ _______ _____ _____    ______ ____
ROOT
ATOM      1  C   UNL     1      -1.244  -2.713  -3.389  0.00  0.00    +0.253 C 
ATOM      2  O   UNL     1      -1.905  -3.301  -4.225  0.00  0.00    -0.270 OA
ATOM      3  N   UNL     1      -0.526  -1.628  -3.739  0.00  0.00    -0.295 N 
ATOM      4  H   UNL     1       0.001  -1.159  -3.072  0.00  0.00    +0.150 HD
ENDROOT
BRANCH   1   7
ATOM      5  C   UNL     1      -2.777  -5.173  -2.235  0.00  0.00    +0.067 C 
ATOM      6  C   UNL     1      -1.884  -4.265  -1.429  0.00  0.00    +0.060 A 
ATOM      7  C   UNL     1      -1.230  -3.185  -2.005  0.00  0.00    +0.098 A 
ATOM      8  S   UNL     1      -0.364  -2.531  -0.586  0.00  0.00    -0.048 S 
ATOM      9  C   UNL     1      -0.899  -3.651   0.551  0.00  0.00    +0.156 A 
ATOM     10  N   UNL     1      -1.688  -4.449  -0.148  0.00  0.00    -0.230 NA
ATOM     11  N   UNL     1      -0.592  -3.717   1.893  0.00  0.00    -0.337 N 
ATOM     12  H   UNL     1       0.003  -3.060   2.287  0.00  0.00    +0.144 HD
ATOM     13  H   UNL     1      -0.972  -4.420   2.443  0.00  0.00    +0.144 HD
ENDBRANCH   1   7
BRANCH   3  14
ATOM     14  C   UNL     1      -0.540  -1.156  -5.125  0.00  0.00    +0.136 C 
ATOM     15  C   UNL     1       0.333   0.095  -5.247  0.00  0.00    +0.037 C 
ATOM     16  C   UNL     1       1.768  -0.243  -4.838  0.00  0.00    +0.003 C 
ATOM     17  C   UNL     1       2.315  -1.339  -5.756  0.00  0.00    +0.003 C 
ATOM     18  C   UNL     1       1.442  -2.589  -5.634  0.00  0.00    -0.012 C 
ATOM     19  C   UNL     1       0.007  -2.251  -6.043  0.00  0.00    +0.040 C 
ATOM     20  C   UNL     1       1.457  -3.083  -4.186  0.00  0.00    +0.007 C 
BRANCH  14  21
ATOM     21  C   UNL     1      -1.953  -0.823  -5.528  0.00  0.00    +0.379 C 
ATOM     22  O   UNL     1      -2.864  -0.966  -4.730  0.00  0.00    -0.244 OA
ATOM     23  O   UNL     1      -2.186  -0.409  -6.651  0.00  0.00    -0.244 OA
ENDBRANCH  14  21
ENDBRANCH   3  14
TORSDOF 3
