REMARK  Name = ZINC16780299
REMARK  14 active torsions:
REMARK  status: ('A' for Active; 'I' for Inactive)
REMARK    1  A    between atoms: C_1  and  C_2
REMARK    2  A    between atoms: C_2  and  N_73
REMARK    3  A    between atoms: C_3  and  C_4
REMARK    4  A    between atoms: C_3  and  N_73
REMARK    5  A    between atoms: C_5  and  C_6
REMARK    6  A    between atoms: C_5  and  N_73
REMARK    7  A    between atoms: C_9  and  C_12
REMARK    8  A    between atoms: C_12  and  N_13
REMARK    9  A    between atoms: C_14  and  C_16
REMARK   10  A    between atoms: N_19  and  S_22
REMARK   11  A    between atoms: S_22  and  C_25
REMARK   12  A    between atoms: C_28  and  C_31
REMARK   13  A    between atoms: C_31  and  C_32
REMARK   14  A    between atoms: C_31  and  C_33
REMARK                            x       y       z     vdW  Elec       q    Type
REMARK                         _______ _______ _______ _____ _____    ______ ____
ROOT
ATOM      1  N   UNL     1      -0.132   2.366   6.271  0.00  0.00    -0.311 N 
ATOM      2  C   UNL     1       0.830   2.087   5.369  0.00  0.00    +0.216 C 
ATOM      3  O   UNL     1       1.774   1.394   5.684  0.00  0.00    -0.276 OA
ATOM      4  H   UNL     1      -0.887   2.920   6.019  0.00  0.00    +0.149 HD
ENDROOT
BRANCH   2   5
ATOM      5  C   UNL     1       0.732   2.637   3.969  0.00  0.00    +0.077 C 
ATOM      6  C   UNL     1       1.942   2.174   3.154  0.00  0.00    +0.030 C 
ATOM      7  C   UNL     1       1.857   2.763   1.743  0.00  0.00    +0.110 C 
ATOM      8  N   UNL     1       0.560   2.400   1.156  0.00  0.00    -0.177 NA
ATOM      9  C   UNL     1      -0.666   2.723   1.898  0.00  0.00    +0.110 C 
ATOM     10  C   UNL     1      -0.553   2.129   3.311  0.00  0.00    +0.030 C 
BRANCH   8  11
ATOM     11  S   UNL     1       0.482   1.647  -0.317  0.00  0.00    +0.061 S 
ATOM     12  O   UNL     1       1.681   1.976  -1.006  0.00  0.00    -0.153 OA
ATOM     13  O   UNL     1      -0.805   1.931  -0.850  0.00  0.00    -0.153 OA
BRANCH  11  14
ATOM     14  C   UNL     1       0.532  -0.088  -0.019  0.00  0.00    +0.105 A 
ATOM     15  C   UNL     1      -0.643  -0.791   0.173  0.00  0.00    +0.029 A 
ATOM     16  C   UNL     1      -0.603  -2.153   0.407  0.00  0.00    +0.006 A 
ATOM     17  C   UNL     1       0.611  -2.812   0.449  0.00  0.00    -0.045 A 
ATOM     18  C   UNL     1       1.786  -2.110   0.256  0.00  0.00    +0.006 A 
ATOM     19  C   UNL     1       1.746  -0.748   0.022  0.00  0.00    +0.029 A 
BRANCH  17  20
ATOM     20  C   UNL     1       0.654  -4.297   0.705  0.00  0.00    +0.013 C 
ATOM     21  C   UNL     1       1.315  -5.000  -0.483  0.00  0.00    +0.012 C 
ATOM     22  C   UNL     1       1.463  -4.572   1.974  0.00  0.00    +0.012 C 
ENDBRANCH  17  20
ENDBRANCH  11  14
ENDBRANCH   8  11
ENDBRANCH   2   5
BRANCH   1  23
ATOM     23  C   UNL     1      -0.037   1.831   7.632  0.00  0.00    +0.139 C 
BRANCH  23  27
ATOM     24  C   UNL     1      -3.414   3.122   9.907  0.00  0.00    -0.064 A 
ATOM     25  C   UNL     1      -3.471   1.937   9.197  0.00  0.00    +0.002 A 
ATOM     26  C   UNL     1      -2.378   1.519   8.461  0.00  0.00    +0.005 A 
ATOM     27  C   UNL     1      -1.229   2.287   8.434  0.00  0.00    -0.030 A 
ATOM     28  C   UNL     1      -1.170   3.469   9.148  0.00  0.00    +0.005 A 
ATOM     29  C   UNL     1      -2.265   3.889   9.881  0.00  0.00    +0.002 A 
BRANCH  24  30
ATOM     30  C   UNL     1      -4.606   3.577  10.709  0.00  0.00    -0.043 C 
BRANCH  30  31
ATOM     31  N   UNL     1      -4.508   3.013  12.071  0.00  0.00    +0.382 N 
ATOM     32  H   UNL     1      -4.358   1.999  12.002  0.00  0.00    -0.081 HD
BRANCH  31  34
ATOM     33  C   UNL     1      -3.566   5.130  12.931  0.00  0.00    -0.017 C 
ATOM     34  C   UNL     1      -3.368   3.620  12.789  0.00  0.00    -0.082 C 
ENDBRANCH  31  34
BRANCH  31  35
ATOM     35  C   UNL     1      -5.762   3.262  12.813  0.00  0.00    -0.082 C 
ATOM     36  C   UNL     1      -5.782   2.374  14.059  0.00  0.00    -0.017 C 
ENDBRANCH  31  35
ENDBRANCH  30  31
ENDBRANCH  24  30
ENDBRANCH  23  27
ENDBRANCH   1  23
TORSDOF 10
