REMARK  Name = ZINC36594743
REMARK  15 active torsions:
REMARK  status: ('A' for Active; 'I' for Inactive)
REMARK    1  A    between atoms: C_1  and  C_2
REMARK    2  A    between atoms: C_2  and  C_3
REMARK    3  A    between atoms: C_3  and  C_4
REMARK    4  A    between atoms: C_4  and  C_5
REMARK    5  A    between atoms: N_7  and  C_8
REMARK    6  A    between atoms: N_7  and  C_33
REMARK    7  A    between atoms: C_8  and  C_10
REMARK    8  A    between atoms: C_8  and  C_19
REMARK    9  A    between atoms: N_21  and  C_22
REMARK   10  A    between atoms: C_22  and  S_23
REMARK   11  A    between atoms: S_23  and  C_26
REMARK   12  A    between atoms: C_29  and  C_32
REMARK   13  A    between atoms: C_33  and  C_34
REMARK   14  A    between atoms: C_33  and  C_35
REMARK   15  A    between atoms: C_33  and  C_36
REMARK                            x       y       z     vdW  Elec       q    Type
REMARK                         _______ _______ _______ _____ _____    ______ ____
ROOT
ATOM      1  C   UNL     1      -4.401  -3.460   0.787  0.00  0.00    +0.193 C 
ENDROOT
BRANCH   1   2
ATOM      2  C   UNL     1      -4.671  -3.620   2.261  0.00  0.00    -0.015 A 
ATOM      3  C   UNL     1      -3.969  -4.560   2.993  0.00  0.00    +0.010 A 
ATOM      4  C   UNL     1      -4.213  -4.710   4.345  0.00  0.00    +0.050 A 
ATOM      5  C   UNL     1      -5.162  -3.917   4.970  0.00  0.00    +0.166 A 
ATOM      6  C   UNL     1      -5.869  -2.971   4.233  0.00  0.00    +0.167 A 
ATOM      7  C   UNL     1      -5.615  -2.822   2.879  0.00  0.00    +0.055 A 
ATOM      8  O   UNL     1      -6.736  -2.326   5.068  0.00  0.00    -0.453 OA
ATOM      9  C   UNL     1      -6.843  -3.165   6.233  0.00  0.00    +0.466 C 
ATOM     10  O   UNL     1      -5.586  -3.866   6.267  0.00  0.00    -0.453 OA
ENDBRANCH   1   2
BRANCH   1  11
ATOM     11  C   UNL     1      -5.432  -4.229   0.001  0.00  0.00    +0.239 C 
ATOM     12  O   UNL     1      -5.084  -5.111  -0.755  0.00  0.00    -0.273 OA
ATOM     13  N   UNL     1      -6.740  -3.935   0.138  0.00  0.00    -0.294 N 
ATOM     14  H   UNL     1      -7.018  -3.229   0.743  0.00  0.00    +0.150 HD
BRANCH  13  15
ATOM     15  C   UNL     1      -7.742  -4.682  -0.626  0.00  0.00    +0.278 C 
BRANCH  15  16
ATOM     16  S   UNL     1      -8.386  -6.042   0.388  0.00  0.00    +0.013 S 
ATOM     17  O   UNL     1      -9.405  -6.738  -0.316  0.00  0.00    -0.168 OA
ATOM     18  O   UNL     1      -7.313  -6.748   0.997  0.00  0.00    -0.168 OA
BRANCH  16  19
ATOM     19  C   UNL     1      -9.220  -5.254   1.725  0.00  0.00    +0.090 A 
ATOM     20  C   UNL     1      -8.532  -4.945   2.884  0.00  0.00    +0.027 A 
ATOM     21  C   UNL     1      -9.187  -4.327   3.933  0.00  0.00    +0.005 A 
ATOM     22  C   UNL     1     -10.530  -4.017   3.823  0.00  0.00    -0.050 A 
ATOM     23  C   UNL     1     -11.218  -4.325   2.664  0.00  0.00    +0.005 A 
ATOM     24  C   UNL     1     -10.562  -4.940   1.613  0.00  0.00    +0.027 A 
ATOM     25  C   UNL     1     -11.244  -3.344   4.966  0.00  0.00    +0.044 C 
ENDBRANCH  16  19
ENDBRANCH  15  16
ENDBRANCH  13  15
ENDBRANCH   1  11
BRANCH   1  28
ATOM     26  C   UNL     1      -2.824  -5.301   0.539  0.00  0.00    +0.217 C 
ATOM     27  O   UNL     1      -3.735  -6.075   0.740  0.00  0.00    -0.276 OA
ATOM     28  N   UNL     1      -3.065  -3.977   0.476  0.00  0.00    -0.281 N 
BRANCH  28  29
ATOM     29  C   UNL     1      -1.993  -3.053   0.097  0.00  0.00    +0.030 C 
ATOM     30  C   UNL     1      -1.605  -3.295  -1.363  0.00  0.00    +0.031 C 
ATOM     31  C   UNL     1      -2.478  -1.612   0.263  0.00  0.00    +0.031 C 
ATOM     32  C   UNL     1      -0.776  -3.289   0.994  0.00  0.00    +0.031 C 
ENDBRANCH  28  29
BRANCH  26  33
ATOM     33  C   UNL     1      -1.420  -5.820   0.361  0.00  0.00    +0.096 C 
BRANCH  33  34
ATOM     34  C   UNL     1      -1.441  -7.350   0.342  0.00  0.00    +0.009 C 
BRANCH  34  36
ATOM     35  C   UNL     1      -0.036  -9.406   0.142  0.00  0.00    +0.004 C 
ATOM     36  C   UNL     1      -0.016  -7.877   0.161  0.00  0.00    -0.003 C 
ENDBRANCH  34  36
ENDBRANCH  33  34
ENDBRANCH  26  33
ENDBRANCH   1  28
TORSDOF 10
