REMARK  Name = ZINC02625551
REMARK  5 active torsions:
REMARK  status: ('A' for Active; 'I' for Inactive)
REMARK    1  A    between atoms: C_1  and  C_2
REMARK    2  A    between atoms: C_6  and  N_8
REMARK    3  A    between atoms: C_9  and  S_13
REMARK    4  A    between atoms: S_13  and  C_14
REMARK    5  A    between atoms: C_14  and  C_15
REMARK                            x       y       z     vdW  Elec       q    Type
REMARK                         _______ _______ _______ _____ _____    ______ ____
ROOT
ATOM      1  N   UNL     1      -0.069   5.244   0.032  0.00  0.00    -0.187 N 
ATOM      2  C   UNL     1      -0.969   6.064  -0.579  0.00  0.00    +0.214 A 
ATOM      3  N   UNL     1      -0.609   7.300  -0.306  0.00  0.00    -0.101 NA
ATOM      4  N   UNL     1       0.450   7.311   0.420  0.00  0.00    -0.022 NA
ATOM      5  N   UNL     1       0.840   6.108   0.669  0.00  0.00    -0.038 NA
ENDROOT
BRANCH   1  11
ATOM      6  C   UNL     1       2.490   1.044  -0.016  0.00  0.00    +0.044 C 
ATOM      7  C   UNL     1       1.176   1.782   0.000  0.00  0.00    -0.048 A 
ATOM      8  C   UNL     1      -0.013   1.076   0.008  0.00  0.00    +0.003 A 
ATOM      9  C   UNL     1      -1.220   1.749   0.017  0.00  0.00    +0.002 A 
ATOM     10  C   UNL     1      -1.242   3.131   0.031  0.00  0.00    +0.028 A 
ATOM     11  C   UNL     1      -0.050   3.842   0.024  0.00  0.00    +0.070 A 
ATOM     12  C   UNL     1       1.161   3.163   0.008  0.00  0.00    +0.031 A 
ENDBRANCH   1  11
BRANCH   2  13
ATOM     13  S   UNL     1      -2.353   5.565  -1.548  0.00  0.00    -0.079 S 
BRANCH  13  14
ATOM     14  C   UNL     1      -3.027   7.185  -1.991  0.00  0.00    +0.114 C 
BRANCH  14  15
ATOM     15  C   UNL     1      -4.255   7.002  -2.846  0.00  0.00    -0.019 A 
ATOM     16  C   UNL     1      -5.500   6.903  -2.254  0.00  0.00    +0.009 A 
ATOM     17  C   UNL     1      -6.627   6.736  -3.037  0.00  0.00    +0.039 A 
ATOM     18  C   UNL     1      -6.508   6.667  -4.415  0.00  0.00    +0.125 A 
ATOM     19  C   UNL     1      -5.261   6.766  -5.008  0.00  0.00    +0.058 A 
ATOM     20  C   UNL     1      -4.135   6.939  -4.223  0.00  0.00    +0.048 A 
ATOM     21 CL   UNL     1      -2.572   7.071  -4.965  0.00  0.00    -0.083 Cl
ATOM     22  F   UNL     1      -7.609   6.504  -5.181  0.00  0.00    -0.205 F 
ENDBRANCH  14  15
ENDBRANCH  13  14
ENDBRANCH   2  13
TORSDOF 4
