REMARK  Name = ZINC29616278
REMARK  3 active torsions:
REMARK  status: ('A' for Active; 'I' for Inactive)
REMARK    1  A    between atoms: C_11  and  C_13
REMARK    2  A    between atoms: N_15  and  C_16
REMARK    3  A    between atoms: C_20  and  N_22
REMARK                            x       y       z     vdW  Elec       q    Type
REMARK                         _______ _______ _______ _____ _____    ______ ____
ROOT
ATOM      1  C   UNL     1       0.167   9.501  -0.102  0.00  0.00    +0.255 C 
ATOM      2  O   UNL     1       1.154  10.197  -0.256  0.00  0.00    -0.269 OA
ATOM      3  N   UNL     1      -1.042  10.073   0.067  0.00  0.00    -0.281 N 
ATOM      4  H   UNL     1      -1.944   9.446   0.121  0.00  0.00    +0.155 HD
ENDROOT
BRANCH   1  15
ATOM      5  C   UNL     1      -1.203   1.765   0.196  0.00  0.00    +0.001 A 
ATOM      6  C   UNL     1      -0.004   1.086   0.035  0.00  0.00    +0.001 A 
ATOM      7  C   UNL     1       1.165   1.800  -0.145  0.00  0.00    +0.016 A 
ATOM      8  C   UNL     1       1.123   3.180  -0.158  0.00  0.00    +0.021 A 
ATOM      9  C   UNL     1      -0.079   3.891   0.008  0.00  0.00    +0.004 A 
ATOM     10  C   UNL     1      -1.254   3.125   0.190  0.00  0.00    +0.010 A 
ATOM     11  C   UNL     1       0.046   5.350  -0.029  0.00  0.00    +0.035 A 
ATOM     12  C   UNL     1       1.316   5.890  -0.222  0.00  0.00    +0.028 A 
ATOM     13  S   UNL     1       2.355   4.439  -0.354  0.00  0.00    -0.088 S 
ATOM     14  C   UNL     1       1.427   7.272  -0.256  0.00  0.00    +0.036 A 
ATOM     15  C   UNL     1       0.293   8.042  -0.101  0.00  0.00    +0.076 A 
ATOM     16  S   UNL     1      -0.979   6.810   0.101  0.00  0.00    -0.083 S 
ENDBRANCH   1  15
BRANCH   3  17
ATOM     17  C   UNL     1      -1.149  11.463   0.172  0.00  0.00    +0.035 A 
ATOM     18  C   UNL     1      -2.268  12.115  -0.331  0.00  0.00    +0.023 A 
ATOM     19  C   UNL     1      -2.375  13.488  -0.227  0.00  0.00    +0.004 A 
ATOM     20  C   UNL     1      -1.370  14.218   0.377  0.00  0.00    +0.023 A 
ATOM     21  C   UNL     1      -0.248  13.573   0.882  0.00  0.00    +0.037 A 
ATOM     22  C   UNL     1      -0.140  12.193   0.784  0.00  0.00    +0.046 A 
BRANCH  21  23
ATOM     23  N   UNL     1       0.770  14.314   1.493  0.00  0.00    -0.270 N 
ATOM     24  C   UNL     1       0.464  15.401   2.228  0.00  0.00    +0.301 C 
ATOM     25  O   UNL     1      -0.687  15.787   2.292  0.00  0.00    -0.253 OA
ATOM     26  N   UNL     1       1.434  16.060   2.893  0.00  0.00    -0.313 N 
ATOM     27  H   UNL     1       1.821  14.008   1.373  0.00  0.00    +0.156 HD
ATOM     28  H   UNL     1       1.185  16.947   3.493  0.00  0.00    +0.146 HD
ATOM     29  H   UNL     1       2.476  15.710   2.835  0.00  0.00    +0.146 HD
ENDBRANCH  21  23
ENDBRANCH   3  17
TORSDOF 3
