REMARK  Name = ZINC42228402
REMARK  3 active torsions:
REMARK  status: ('A' for Active; 'I' for Inactive)
REMARK    1  A    between atoms: C_6  and  C_7
REMARK    2  A    between atoms: C_7  and  N_8
REMARK    3  A    between atoms: C_10  and  N_16
REMARK                            x       y       z     vdW  Elec       q    Type
REMARK                         _______ _______ _______ _____ _____    ______ ____
ROOT
ATOM      1  N   UNL     1      -1.726  -1.017  -1.368  0.00  0.00    -0.324 N 
ATOM      2  C   UNL     1      -2.905  -1.717  -1.615  0.00  0.00    +0.140 A 
ATOM      3  C   UNL     1      -3.310  -1.950  -2.933  0.00  0.00    +0.066 A 
ATOM      4  C   UNL     1      -4.487  -2.648  -3.161  0.00  0.00    +0.043 A 
ATOM      5  C   UNL     1      -5.218  -3.089  -2.064  0.00  0.00    +0.038 A 
ATOM      6  C   UNL     1      -4.756  -2.822  -0.791  0.00  0.00    +0.128 A 
ATOM      7  N   UNL     1      -3.630  -2.159  -0.602  0.00  0.00    -0.238 NA
ATOM      8 BR   UNL     1      -6.831  -4.045  -2.314  0.00  0.00    -0.049 Br
ATOM      9  H   UNL     1      -1.191  -0.691  -2.109  0.00  0.00    +0.148 HD
ENDROOT
BRANCH   3  10
ATOM     10  N   UNL     1      -2.539  -1.486  -4.005  0.00  0.00    -0.355 N 
ATOM     11  H   UNL     1      -1.718  -0.998  -3.837  0.00  0.00    +0.142 HD
ATOM     12  H   UNL     1      -2.827  -1.651  -4.917  0.00  0.00    +0.142 HD
ENDBRANCH   3  10
BRANCH   1  13
ATOM     13  C   UNL     1      -1.293  -0.775   0.010  0.00  0.00    +0.138 C 
BRANCH  13  19
ATOM     14  C   UNL     1      -0.017   1.378   0.010  0.00  0.00    +0.006 A 
ATOM     15  C   UNL     1       1.171   2.086   0.002  0.00  0.00    +0.015 A 
ATOM     16  C   UNL     1       2.378   1.411  -0.013  0.00  0.00    +0.018 A 
ATOM     17  C   UNL     1       2.396   0.027  -0.021  0.00  0.00    +0.015 A 
ATOM     18  C   UNL     1       1.208  -0.679  -0.013  0.00  0.00    +0.006 A 
ATOM     19  C   UNL     1       0.002  -0.004   0.002  0.00  0.00    -0.030 A 
ATOM     20 BR   UNL     1       4.003   2.378  -0.024  0.00  0.00    -0.050 Br
ENDBRANCH  13  19
ENDBRANCH   1  13
TORSDOF 3
