REMARK  Name = ZINC13581662
REMARK  13 active torsions:
REMARK  status: ('A' for Active; 'I' for Inactive)
REMARK    1  A    between atoms: C_1  and  C_2
REMARK    2  A    between atoms: C_2  and  O_3
REMARK    3  A    between atoms: O_3  and  C_4
REMARK    4  A    between atoms: C_7  and  C_12
REMARK    5  A    between atoms: C_9  and  O_10
REMARK    6  A    between atoms: O_10  and  C_11
REMARK    7  A    between atoms: N_13  and  N_14
REMARK    8  A    between atoms: C_15  and  C_17
REMARK    9  A    between atoms: C_17  and  S_18
REMARK   10  A    between atoms: S_18  and  C_19
REMARK   11  A    between atoms: C_22  and  S_24
REMARK   12  A    between atoms: S_24  and  C_25
REMARK   13  A    between atoms: C_25  and  C_26
REMARK                            x       y       z     vdW  Elec       q    Type
REMARK                         _______ _______ _______ _____ _____    ______ ____
ROOT
ATOM      1  N   UNL     1       1.222  -6.284  -0.044  0.00  0.00    -0.206 N 
ATOM      2  C   UNL     1       2.400  -6.938  -0.059  0.00  0.00    +0.242 C 
ATOM      3  O   UNL     1       3.440  -6.315  -0.065  0.00  0.00    -0.273 OA
ATOM      4  H   UNL     1       0.390  -6.782  -0.039  0.00  0.00    +0.177 HD
ENDROOT
BRANCH   1   6
ATOM      5  C   UNL     1       0.065  -4.252  -0.022  0.00  0.00    +0.138 C 
ATOM      6  N   UNL     1       1.199  -4.883  -0.036  0.00  0.00    -0.188 NA
BRANCH   5  10
ATOM      7  C   UNL     1       0.002  -0.004   0.002  0.00  0.00    +0.162 A 
ATOM      8  C   UNL     1       1.214  -0.679  -0.019  0.00  0.00    +0.050 A 
ATOM      9  C   UNL     1       1.238  -2.058  -0.021  0.00  0.00    +0.013 A 
ATOM     10  C   UNL     1       0.041  -2.778  -0.013  0.00  0.00    -0.002 A 
ATOM     11  C   UNL     1      -1.179  -2.097   0.002  0.00  0.00    +0.059 A 
ATOM     12  C   UNL     1      -1.196  -0.715   0.010  0.00  0.00    +0.162 A 
BRANCH  12  13
ATOM     13  O   UNL     1      -2.382  -0.050   0.025  0.00  0.00    -0.491 OA
ATOM     14  C   UNL     1      -3.571  -0.842   0.032  0.00  0.00    +0.277 C 
ENDBRANCH  12  13
BRANCH   7  15
ATOM     15  O   UNL     1      -0.016   1.355   0.009  0.00  0.00    -0.489 OA
BRANCH  15  17
ATOM     16  C   UNL     1       1.027   3.535   0.011  0.00  0.00    +0.048 C 
ATOM     17  C   UNL     1       1.248   2.021   0.001  0.00  0.00    +0.226 C 
ENDBRANCH  15  17
ENDBRANCH   7  15
ENDBRANCH   5  10
ENDBRANCH   1   6
BRANCH   2  18
ATOM     18  C   UNL     1       2.424  -8.445  -0.068  0.00  0.00    +0.173 C 
BRANCH  18  19
ATOM     19  S   UNL     1       4.144  -9.022  -0.087  0.00  0.00    -0.088 S 
BRANCH  19  20
ATOM     20  C   UNL     1       4.004 -10.778  -0.096  0.00  0.00    +0.160 A 
ATOM     21  N   UNL     1       2.920 -11.531  -0.091  0.00  0.00    -0.134 NA
ATOM     22  N   UNL     1       3.039 -12.902  -0.100  0.00  0.00    -0.134 NA
ATOM     23  C   UNL     1       4.236 -13.457  -0.114  0.00  0.00    +0.160 A 
ATOM     24  S   UNL     1       5.292 -12.016  -0.122  0.00  0.00    -0.033 S 
BRANCH  23  25
ATOM     25  S   UNL     1       4.674 -15.163  -0.129  0.00  0.00    -0.092 S 
BRANCH  25  26
ATOM     26  C   UNL     1       3.079 -16.027  -0.119  0.00  0.00    +0.113 C 
BRANCH  26  27
ATOM     27  C   UNL     1       3.314 -17.515  -0.131  0.00  0.00    -0.019 A 
ATOM     28  C   UNL     1       3.405 -18.192  -1.333  0.00  0.00    +0.006 A 
ATOM     29  C   UNL     1       3.624 -19.556  -1.343  0.00  0.00    +0.000 A 
ATOM     30  C   UNL     1       3.743 -20.247  -0.152  0.00  0.00    +0.001 A 
ATOM     31  C   UNL     1       3.648 -19.573   1.051  0.00  0.00    +0.020 A 
ATOM     32  C   UNL     1       3.433 -18.206   1.062  0.00  0.00    +0.045 A 
ATOM     33 CL   UNL     1       3.312 -17.358   2.572  0.00  0.00    -0.083 Cl
ENDBRANCH  26  27
ENDBRANCH  25  26
ENDBRANCH  23  25
ENDBRANCH  19  20
ENDBRANCH  18  19
ENDBRANCH   2  18
TORSDOF 11
