REMARK  Name = ZINC40556049
REMARK  18 active torsions:
REMARK  status: ('A' for Active; 'I' for Inactive)
REMARK    1  A    between atoms: C_1  and  C_2
REMARK    2  A    between atoms: C_2  and  C_4
REMARK    3  A    between atoms: C_2  and  N_14
REMARK    4  A    between atoms: C_4  and  C_6
REMARK    5  A    between atoms: C_4  and  O_13
REMARK    6  A    between atoms: C_9  and  O_12
REMARK    7  A    between atoms: C_16  and  C_33
REMARK    8  A    between atoms: C_19  and  C_22
REMARK    9  A    between atoms: C_22  and  O_23
REMARK   10  A    between atoms: O_23  and  C_24
REMARK   11  A    between atoms: C_24  and  C_25
REMARK   12  A    between atoms: C_30  and  O_31
REMARK   13  A    between atoms: O_31  and  C_32
REMARK   14  A    between atoms: C_33  and  O_34
REMARK   15  A    between atoms: O_34  and  C_35
REMARK   16  A    between atoms: C_35  and  C_36
REMARK   17  A    between atoms: C_41  and  O_42
REMARK   18  A    between atoms: O_42  and  C_43
REMARK                            x       y       z     vdW  Elec       q    Type
REMARK                         _______ _______ _______ _____ _____    ______ ____
ROOT
ATOM      1  N   UNL     1       0.713  -0.491   1.192  0.00  0.00    -0.292 NA
ATOM      2  C   UNL     1       0.828  -1.956   1.174  0.00  0.00    +0.118 C 
ATOM      3  C   UNL     1       1.625  -2.415   2.399  0.00  0.00    +0.158 C 
ATOM      4  O   UNL     1       0.984  -1.937   3.585  0.00  0.00    -0.366 OA
ATOM      5  C   UNL     1       0.856  -0.513   3.635  0.00  0.00    +0.158 C 
ATOM      6  C   UNL     1       0.051  -0.035   2.424  0.00  0.00    +0.118 C 
ENDROOT
BRANCH   1   8
ATOM      7  C   UNL     1      -0.019   1.526   0.010  0.00  0.00    +0.027 C 
ATOM      8  C   UNL     1       0.002  -0.004   0.002  0.00  0.00    +0.087 C 
BRANCH   8   9
ATOM      9  C   UNL     1       0.718  -0.497  -1.257  0.00  0.00    +0.161 C 
BRANCH   9  10
ATOM     10  C   UNL     1      -0.077  -0.103  -2.474  0.00  0.00    -0.017 A 
ATOM     11  C   UNL     1       0.094   1.150  -3.034  0.00  0.00    +0.010 A 
ATOM     12  C   UNL     1      -0.634   1.514  -4.151  0.00  0.00    +0.046 A 
ATOM     13  C   UNL     1      -1.537   0.622  -4.710  0.00  0.00    +0.117 A 
ATOM     14  C   UNL     1      -1.707  -0.635  -4.146  0.00  0.00    +0.046 A 
ATOM     15  C   UNL     1      -0.973  -0.996  -3.033  0.00  0.00    +0.010 A 
BRANCH  13  16
ATOM     16  O   UNL     1      -2.255   0.978  -5.807  0.00  0.00    -0.507 OA
ATOM     17  H   UNL     1      -1.825   0.762  -6.646  0.00  0.00    +0.292 HD
ENDBRANCH  13  16
ENDBRANCH   9  10
BRANCH   9  18
ATOM     18  O   UNL     1       2.019   0.090  -1.326  0.00  0.00    -0.386 OA
ATOM     19  H   UNL     1       2.012   1.057  -1.362  0.00  0.00    +0.210 HD
ENDBRANCH   9  18
ENDBRANCH   8   9
ENDBRANCH   1   8
BRANCH   5  20
ATOM     20  C   UNL     1       0.131  -0.111   4.921  0.00  0.00    +0.193 C 
BRANCH  20  21
ATOM     21  O   UNL     1       0.936  -0.458   6.050  0.00  0.00    -0.372 OA
BRANCH  21  22
ATOM     22  C   UNL     1       0.348  -0.123   7.309  0.00  0.00    +0.198 C 
BRANCH  22  23
ATOM     23  C   UNL     1       1.278  -0.531   8.422  0.00  0.00    +0.020 A 
ATOM     24  C   UNL     1       2.490  -1.125   8.128  0.00  0.00    +0.009 A 
ATOM     25  C   UNL     1       3.343  -1.500   9.149  0.00  0.00    +0.001 A 
ATOM     26  C   UNL     1       2.986  -1.282  10.467  0.00  0.00    +0.004 A 
ATOM     27  C   UNL     1       1.776  -0.688  10.766  0.00  0.00    +0.046 A 
ATOM     28  C   UNL     1       0.920  -0.306   9.743  0.00  0.00    +0.125 A 
BRANCH  28  29
ATOM     29  O   UNL     1      -0.269   0.284  10.035  0.00  0.00    -0.495 OA
ATOM     30  C   UNL     1      -0.572   0.485  11.417  0.00  0.00    +0.277 C 
ENDBRANCH  28  29
ENDBRANCH  22  23
ENDBRANCH  21  22
ENDBRANCH  20  21
ENDBRANCH   5  20
BRANCH   3  31
ATOM     31  C   UNL     1       1.680  -3.944   2.428  0.00  0.00    +0.193 C 
BRANCH  31  32
ATOM     32  O   UNL     1       2.520  -4.369   3.504  0.00  0.00    -0.372 OA
BRANCH  32  33
ATOM     33  C   UNL     1       2.641  -5.788   3.621  0.00  0.00    +0.198 C 
BRANCH  33  34
ATOM     34  C   UNL     1       3.544  -6.121   4.780  0.00  0.00    +0.020 A 
ATOM     35  C   UNL     1       4.100  -5.108   5.537  0.00  0.00    +0.009 A 
ATOM     36  C   UNL     1       4.929  -5.413   6.601  0.00  0.00    +0.001 A 
ATOM     37  C   UNL     1       5.203  -6.732   6.910  0.00  0.00    +0.004 A 
ATOM     38  C   UNL     1       4.650  -7.749   6.157  0.00  0.00    +0.046 A 
ATOM     39  C   UNL     1       3.813  -7.446   5.092  0.00  0.00    +0.125 A 
BRANCH  39  40
ATOM     40  O   UNL     1       3.263  -8.444   4.352  0.00  0.00    -0.495 OA
ATOM     41  C   UNL     1       3.584  -9.784   4.731  0.00  0.00    +0.277 C 
ENDBRANCH  39  40
ENDBRANCH  33  34
ENDBRANCH  32  33
ENDBRANCH  31  32
ENDBRANCH   3  31
TORSDOF 15
