REMARK  Name = ZINC13026002
REMARK  12 active torsions:
REMARK  status: ('A' for Active; 'I' for Inactive)
REMARK    1  A    between atoms: C_1  and  C_2
REMARK    2  A    between atoms: C_2  and  C_4
REMARK    3  A    between atoms: C_8  and  N_10
REMARK    4  A    between atoms: N_10  and  C_11
REMARK    5  A    between atoms: C_11  and  C_13
REMARK    6  A    between atoms: C_11  and  C_23
REMARK    7  A    between atoms: C_17  and  O_21
REMARK    8  A    between atoms: C_18  and  O_19
REMARK    9  A    between atoms: O_19  and  C_20
REMARK   10  A    between atoms: O_21  and  C_22
REMARK   11  A    between atoms: N_25  and  C_26
REMARK   12  A    between atoms: C_31  and  C_33
REMARK                            x       y       z     vdW  Elec       q    Type
REMARK                         _______ _______ _______ _____ _____    ______ ____
ROOT
ATOM      1  C   UNL     1      -0.279  -4.687  -4.022  0.00  0.00    +0.201 C 
ENDROOT
BRANCH   1   2
ATOM      2  C   UNL     1      -1.537  -5.517  -4.004  0.00  0.00    +0.027 A 
ATOM      3  C   UNL     1      -1.461  -6.884  -3.809  0.00  0.00    +0.010 A 
ATOM      4  C   UNL     1      -2.612  -7.648  -3.793  0.00  0.00    +0.004 A 
ATOM      5  C   UNL     1      -3.846  -7.049  -3.971  0.00  0.00    +0.049 A 
ATOM      6  C   UNL     1      -3.929  -5.680  -4.167  0.00  0.00    +0.162 A 
ATOM      7  C   UNL     1      -2.770  -4.910  -4.177  0.00  0.00    +0.167 A 
BRANCH   7   8
ATOM      8  O   UNL     1      -2.847  -3.565  -4.363  0.00  0.00    -0.491 OA
ATOM      9  C   UNL     1      -2.906  -3.099  -5.713  0.00  0.00    +0.277 C 
ENDBRANCH   7   8
BRANCH   6  10
ATOM     10  O   UNL     1      -5.142  -5.089  -4.342  0.00  0.00    -0.491 OA
ATOM     11  C   UNL     1      -6.289  -5.941  -4.313  0.00  0.00    +0.277 C 
ENDBRANCH   6  10
ENDBRANCH   1   2
BRANCH   1  12
ATOM     12  C   UNL     1       0.913  -5.587  -4.217  0.00  0.00    +0.239 C 
ATOM     13  O   UNL     1       1.690  -5.771  -3.304  0.00  0.00    -0.273 OA
ATOM     14  N   UNL     1       1.118  -6.187  -5.407  0.00  0.00    -0.311 N 
ATOM     15  H   UNL     1       0.541  -5.980  -6.159  0.00  0.00    +0.149 HD
BRANCH  14  16
ATOM     16  C   UNL     1       2.210  -7.151  -5.563  0.00  0.00    +0.073 C 
ATOM     17  C   UNL     1       3.509  -6.418  -5.955  0.00  0.00    +0.022 C 
ATOM     18  C   UNL     1       4.202  -7.379  -6.953  0.00  0.00    +0.002 C 
ATOM     19  C   UNL     1       3.009  -7.952  -7.759  0.00  0.00    +0.002 C 
ATOM     20  C   UNL     1       1.892  -8.126  -6.710  0.00  0.00    +0.022 C 
ENDBRANCH  14  16
ENDBRANCH   1  12
BRANCH   1  21
ATOM     21  N   UNL     1      -0.148  -3.971  -2.750  0.00  0.00    -0.249 N 
ATOM     22  C   UNL     1      -0.174  -4.653  -1.588  0.00  0.00    +0.287 C 
ATOM     23  O   UNL     1      -0.369  -5.854  -1.591  0.00  0.00    -0.266 OA
BRANCH  21  28
ATOM     24  C   UNL     1       1.329  -0.620  -3.181  0.00  0.00    +0.019 A 
ATOM     25  C   UNL     1       0.281   0.183  -2.718  0.00  0.00    +0.011 A 
ATOM     26  C   UNL     1      -0.888  -0.397  -2.275  0.00  0.00    +0.002 A 
ATOM     27  C   UNL     1      -1.031  -1.772  -2.285  0.00  0.00    +0.023 A 
ATOM     28  C   UNL     1       0.003  -2.581  -2.743  0.00  0.00    +0.039 A 
ATOM     29  C   UNL     1       1.181  -2.010  -3.196  0.00  0.00    +0.035 A 
BRANCH  24  31
ATOM     30  C   UNL     1       2.700   1.496  -3.728  0.00  0.00    +0.091 C 
ATOM     31  C   UNL     1       2.579  -0.005  -3.655  0.00  0.00    +0.160 C 
ATOM     32  O   UNL     1       3.511  -0.705  -3.988  0.00  0.00    -0.292 OA
ENDBRANCH  24  31
ENDBRANCH  21  28
BRANCH  22  33
ATOM     33  C   UNL     1       0.035  -3.947  -0.320  0.00  0.00    +0.190 A 
ATOM     34  C   UNL     1      -0.001  -4.507   0.925  0.00  0.00    +0.054 A 
ATOM     35  C   UNL     1       0.250  -3.473   1.840  0.00  0.00    +0.042 A 
ATOM     36  C   UNL     1       0.427  -2.341   1.123  0.00  0.00    +0.196 A 
ATOM     37  O   UNL     1       0.302  -2.633  -0.178  0.00  0.00    -0.458 OA
ENDBRANCH  22  33
ENDBRANCH   1  21
TORSDOF 9
