REMARK  Name = ZINC38688978
REMARK  14 active torsions:
REMARK  status: ('A' for Active; 'I' for Inactive)
REMARK    1  A    between atoms: C_1  and  C_2
REMARK    2  A    between atoms: C_2  and  O_3
REMARK    3  A    between atoms: O_3  and  C_4
REMARK    4  A    between atoms: C_9  and  C_34
REMARK    5  A    between atoms: C_11  and  N_14
REMARK    6  A    between atoms: C_15  and  C_17
REMARK    7  A    between atoms: C_17  and  N_18
REMARK    8  A    between atoms: N_21  and  C_26
REMARK    9  A    between atoms: C_23  and  C_25
REMARK   10  A    between atoms: C_29  and  O_32
REMARK   11  A    between atoms: O_32  and  C_33
REMARK   12  A    between atoms: C_34  and  O_36
REMARK   13  A    between atoms: O_36  and  C_37
REMARK   14  A    between atoms: C_37  and  C_38
REMARK                            x       y       z     vdW  Elec       q    Type
REMARK                         _______ _______ _______ _____ _____    ______ ____
ROOT
ATOM      1  N   UNL     1      -4.409  -3.712   0.153  0.00  0.00    -0.285 N 
ATOM      2  C   UNL     1      -5.072  -2.567   0.408  0.00  0.00    +0.231 C 
ATOM      3  O   UNL     1      -4.456  -1.550   0.648  0.00  0.00    -0.274 OA
ATOM      4  H   UNL     1      -4.897  -4.504  -0.121  0.00  0.00    +0.155 HD
ENDROOT
BRANCH   1  11
ATOM      5  C   UNL     1      -1.425  -6.920  -0.875  0.00  0.00    +0.121 A 
ATOM      6  C   UNL     1      -0.103  -6.558  -0.579  0.00  0.00    +0.047 A 
ATOM      7  C   UNL     1       0.205  -5.355  -0.039  0.00  0.00    +0.029 A 
ATOM      8  C   UNL     1      -0.826  -4.421   0.243  0.00  0.00    +0.045 A 
ATOM      9  N   UNL     1      -0.787  -3.208   0.759  0.00  0.00    -0.367 N 
ATOM     10  C   UNL     1      -2.151  -2.676   0.835  0.00  0.00    +0.234 C 
ATOM     11  C   UNL     1      -3.052  -3.757   0.281  0.00  0.00    +0.053 C 
ATOM     12  C   UNL     1      -2.215  -4.802  -0.068  0.00  0.00    +0.021 A 
ATOM     13  C   UNL     1      -2.463  -6.075  -0.637  0.00  0.00    +0.057 A 
ATOM     14  H   UNL     1       0.016  -2.743   1.042  0.00  0.00    +0.161 HD
BRANCH  10  15
ATOM     15  C   UNL     1      -2.513  -2.379   2.267  0.00  0.00    +0.336 C 
ATOM     16  O   UNL     1      -2.078  -3.073   3.156  0.00  0.00    -0.248 OA
BRANCH  15  17
ATOM     17  O   UNL     1      -3.318  -1.345   2.556  0.00  0.00    -0.463 OA
BRANCH  17  18
ATOM     18  C   UNL     1      -3.619  -1.122   3.935  0.00  0.00    +0.229 C 
ATOM     19  C   UNL     1      -4.543   0.090   4.066  0.00  0.00    +0.048 C 
ENDBRANCH  17  18
ENDBRANCH  15  17
ENDBRANCH  10  15
BRANCH   5  20
ATOM     20  O   UNL     1      -1.674  -8.142  -1.416  0.00  0.00    -0.492 OA
BRANCH  20  22
ATOM     21  C   UNL     1      -1.021 -10.313  -2.254  0.00  0.00    +0.048 C 
ATOM     22  C   UNL     1      -0.548  -8.992  -1.646  0.00  0.00    +0.225 C 
ENDBRANCH  20  22
ENDBRANCH   5  20
ENDBRANCH   1  11
BRANCH   2  23
ATOM     23  C   UNL     1      -6.579  -2.549   0.394  0.00  0.00    +0.181 C 
BRANCH  23  24
ATOM     24  N   UNL     1      -7.056  -1.194   0.698  0.00  0.00    -0.288 NA
ATOM     25  C   UNL     1      -6.830  -0.289  -0.436  0.00  0.00    +0.104 C 
ATOM     26  C   UNL     1      -7.171   1.145  -0.018  0.00  0.00    +0.120 C 
ATOM     27  N   UNL     1      -8.537   1.161   0.528  0.00  0.00    -0.327 N 
ATOM     28  C   UNL     1      -8.879   0.186   1.575  0.00  0.00    +0.123 C 
ATOM     29  C   UNL     1      -8.470  -1.210   1.094  0.00  0.00    +0.071 C 
ATOM     30  C   UNL     1      -8.673  -2.220   2.225  0.00  0.00    +0.026 C 
BRANCH  27  31
ATOM     31  C   UNL     1      -9.486   2.078   0.062  0.00  0.00    +0.030 A 
ATOM     32  C   UNL     1     -10.730   2.160   0.674  0.00  0.00    +0.027 A 
ATOM     33  C   UNL     1     -11.666   3.066   0.214  0.00  0.00    +0.047 A 
ATOM     34  C   UNL     1     -11.364   3.893  -0.858  0.00  0.00    +0.120 A 
ATOM     35  C   UNL     1     -10.121   3.810  -1.469  0.00  0.00    +0.047 A 
ATOM     36  C   UNL     1      -9.182   2.909  -1.007  0.00  0.00    +0.027 A 
BRANCH  34  37
ATOM     37  O   UNL     1     -12.286   4.785  -1.309  0.00  0.00    -0.495 OA
ATOM     38  C   UNL     1     -11.907   5.604  -2.417  0.00  0.00    +0.277 C 
ENDBRANCH  34  37
ENDBRANCH  27  31
ENDBRANCH  23  24
ENDBRANCH   2  23
TORSDOF 10
