REMARK  Name = ZINC20345192
REMARK  7 active torsions:
REMARK  status: ('A' for Active; 'I' for Inactive)
REMARK    1  A    between atoms: C_1  and  C_2
REMARK    2  A    between atoms: C_2  and  C_3
REMARK    3  A    between atoms: C_2  and  C_4
REMARK    4  A    between atoms: C_7  and  C_10
REMARK    5  A    between atoms: C_11  and  C_12
REMARK    6  A    between atoms: N_14  and  C_15
REMARK    7  A    between atoms: C_19  and  N_21
REMARK                            x       y       z     vdW  Elec       q    Type
REMARK                         _______ _______ _______ _____ _____    ______ ____
ROOT
ATOM      1  C   UNL     1       0.002  -0.004  -0.000  0.00  0.00    +0.241 C 
ATOM      2  O   UNL     1       1.064  -0.598  -0.022  0.00  0.00    -0.270 OA
ATOM      3  N   UNL     1      -1.156  -0.694   0.009  0.00  0.00    -0.282 N 
ATOM      4  H   UNL     1      -2.113  -0.161   0.106  0.00  0.00    +0.155 HD
ENDROOT
BRANCH   3   5
ATOM      5  C   UNL     1      -1.140  -2.088  -0.104  0.00  0.00    +0.035 A 
ATOM      6  C   UNL     1      -2.157  -2.741  -0.790  0.00  0.00    +0.025 A 
ATOM      7  C   UNL     1      -2.139  -4.117  -0.908  0.00  0.00    +0.023 A 
ATOM      8  C   UNL     1      -1.117  -4.850  -0.333  0.00  0.00    +0.062 A 
ATOM      9  C   UNL     1      -0.100  -4.203   0.359  0.00  0.00    +0.045 A 
ATOM     10  C   UNL     1      -0.113  -2.820   0.474  0.00  0.00    +0.047 A 
ATOM     11 CL   UNL     1      -1.103  -6.580  -0.477  0.00  0.00    -0.082 Cl
BRANCH   9  12
ATOM     12  N   UNL     1       0.933  -4.943   0.939  0.00  0.00    -0.357 N 
ATOM     13  H   UNL     1       1.737  -4.430   1.487  0.00  0.00    +0.142 HD
ATOM     14  H   UNL     1       0.942  -6.040   0.848  0.00  0.00    +0.142 HD
ENDBRANCH   9  12
ENDBRANCH   3   5
BRANCH   1  16
ATOM     15  C   UNL     1       1.140   2.150   0.007  0.00  0.00    +0.013 C 
ATOM     16  C   UNL     1      -0.018   1.460   0.017  0.00  0.00    +0.068 C 
BRANCH  15  20
ATOM     17  C   UNL     1       1.083   6.391   0.054  0.00  0.00    -0.045 A 
ATOM     18  C   UNL     1       2.292   5.720   0.029  0.00  0.00    +0.004 A 
ATOM     19  C   UNL     1       2.319   4.341   0.014  0.00  0.00    +0.008 A 
ATOM     20  C   UNL     1       1.120   3.622   0.024  0.00  0.00    -0.025 A 
ATOM     21  C   UNL     1      -0.098   4.308   0.044  0.00  0.00    +0.008 A 
ATOM     22  C   UNL     1      -0.109   5.686   0.064  0.00  0.00    +0.004 A 
BRANCH  17  24
ATOM     23  C   UNL     1       0.316   8.411  -1.164  0.00  0.00    +0.012 C 
ATOM     24  C   UNL     1       1.062   7.898   0.070  0.00  0.00    +0.013 C 
ATOM     25  C   UNL     1       0.352   8.385   1.334  0.00  0.00    +0.012 C 
ENDBRANCH  17  24
ENDBRANCH  15  20
ENDBRANCH   1  16
TORSDOF 5
