REMARK  Name = ZINC30499813
REMARK  13 active torsions:
REMARK  status: ('A' for Active; 'I' for Inactive)
REMARK    1  A    between atoms: C_1  and  C_2
REMARK    2  A    between atoms: C_2  and  C_3
REMARK    3  A    between atoms: N_5  and  C_6
REMARK    4  A    between atoms: C_9  and  C_12
REMARK    5  A    between atoms: C_12  and  C_14
REMARK    6  A    between atoms: C_12  and  N_15
REMARK    7  A    between atoms: N_15  and  C_16
REMARK    8  A    between atoms: C_16  and  C_18
REMARK    9  A    between atoms: C_16  and  C_19
REMARK   10  A    between atoms: N_24  and  C_25
REMARK   11  A    between atoms: C_25  and  C_26
REMARK   12  A    between atoms: C_26  and  C_27
REMARK   13  A    between atoms: C_26  and  C_28
REMARK                            x       y       z     vdW  Elec       q    Type
REMARK                         _______ _______ _______ _____ _____    ______ ____
ROOT
ATOM      1  N   UNL     1      -0.195   1.360  -0.566  0.00  0.00    +0.391 N 
ATOM      2  H   UNL     1      -0.641   1.662   0.394  0.00  0.00    -0.084 HD
ATOM      3  H   UNL     1      -0.123   0.263  -0.607  0.00  0.00    -0.084 HD
ENDROOT
BRANCH   1   4
ATOM      4  C   UNL     1      -1.040   1.836  -1.669  0.00  0.00    -0.043 C 
ATOM      5  C   UNL     1      -0.912   0.881  -2.858  0.00  0.00    -0.009 C 
BRANCH   4   9
ATOM      6  C   UNL     1      -5.115   1.977  -0.387  0.00  0.00    +0.033 A 
ATOM      7  C   UNL     1      -4.602   2.988  -1.189  0.00  0.00    +0.023 A 
ATOM      8  C   UNL     1      -3.285   2.940  -1.601  0.00  0.00    +0.004 A 
ATOM      9  C   UNL     1      -2.477   1.886  -1.217  0.00  0.00    -0.062 A 
ATOM     10  C   UNL     1      -2.985   0.875  -0.423  0.00  0.00    +0.004 A 
ATOM     11  C   UNL     1      -4.300   0.920  -0.002  0.00  0.00    +0.023 A 
BRANCH   6  14
ATOM     12  C   UNL     1      -7.394   2.533  -0.782  0.00  0.00    +0.217 C 
ATOM     13  O   UNL     1      -7.107   2.860  -1.914  0.00  0.00    -0.275 OA
ATOM     14  N   UNL     1      -6.449   2.023   0.032  0.00  0.00    -0.286 N 
ATOM     15  H   UNL     1      -6.726   1.643   1.026  0.00  0.00    +0.155 HD
BRANCH  12  17
ATOM     16  C   UNL     1      -9.673   3.292  -1.399  0.00  0.00    +0.013 C 
ATOM     17  C   UNL     1      -8.807   2.696  -0.286  0.00  0.00    +0.093 C 
ENDBRANCH  12  17
ENDBRANCH   6  14
ENDBRANCH   4   9
ENDBRANCH   1   4
BRANCH   1  18
ATOM     18  C   UNL     1       1.157   1.925  -0.656  0.00  0.00    +0.014 C 
ATOM     19  C   UNL     1       2.127   1.061   0.153  0.00  0.00    -0.004 C 
BRANCH  18  20
ATOM     20  C   UNL     1       1.153   3.327  -0.103  0.00  0.00    +0.206 C 
ATOM     21  O   UNL     1       0.126   3.808   0.323  0.00  0.00    -0.277 OA
ATOM     22  N   UNL     1       2.293   4.047  -0.084  0.00  0.00    -0.242 N 
ATOM     23  C   UNL     1       2.289   5.301   0.410  0.00  0.00    +0.306 C 
ATOM     24  O   UNL     1       1.259   5.783   0.838  0.00  0.00    -0.252 OA
ATOM     25  N   UNL     1       3.429   6.021   0.430  0.00  0.00    -0.299 N 
ATOM     26  H   UNL     1       3.226   3.611  -0.471  0.00  0.00    +0.159 HD
ATOM     27  H   UNL     1       4.362   5.585   0.043  0.00  0.00    +0.150 HD
BRANCH  25  28
ATOM     28  C   UNL     1       3.425   7.384   0.967  0.00  0.00    +0.108 C 
BRANCH  28  29
ATOM     29  C   UNL     1       4.834   7.973   0.873  0.00  0.00    -0.000 C 
ATOM     30  C   UNL     1       5.229   8.118  -0.598  0.00  0.00    +0.009 C 
ATOM     31  C   UNL     1       4.858   9.346   1.546  0.00  0.00    +0.009 C 
ENDBRANCH  28  29
ENDBRANCH  25  28
ENDBRANCH  18  20
ENDBRANCH   1  18
TORSDOF 8
