REMARK  Name = ZINC21864194
REMARK  10 active torsions:
REMARK  status: ('A' for Active; 'I' for Inactive)
REMARK    1  A    between atoms: C_1  and  C_2
REMARK    2  A    between atoms: C_2  and  C_28
REMARK    3  A    between atoms: C_5  and  C_23
REMARK    4  A    between atoms: N_11  and  C_12
REMARK    5  A    between atoms: C_12  and  C_13
REMARK    6  A    between atoms: C_13  and  C_14
REMARK    7  A    between atoms: C_14  and  N_15
REMARK    8  A    between atoms: N_15  and  C_16
REMARK    9  A    between atoms: N_15  and  C_17
REMARK   10  A    between atoms: N_30  and  C_31
REMARK                            x       y       z     vdW  Elec       q    Type
REMARK                         _______ _______ _______ _____ _____    ______ ____
ROOT
ATOM      1  C   UNL     1       2.160   1.474  -2.032  0.00  0.00    +0.043 C 
ATOM      2  C   UNL     1       2.223   1.534  -0.505  0.00  0.00    +0.128 C 
ATOM      3  C   UNL     1       2.644   0.163   0.026  0.00  0.00    +0.157 C 
ATOM      4  N   UNL     1       1.520  -0.768  -0.106  0.00  0.00    -0.331 N 
ATOM      5  C   UNL     1       1.516  -2.112  -0.283  0.00  0.00    +0.085 A 
ATOM      6  C   UNL     1       0.198  -2.541  -0.316  0.00  0.00    +0.032 A 
ATOM      7  C   UNL     1      -0.619  -1.420  -0.162  0.00  0.00    +0.033 A 
ATOM      8  C   UNL     1       0.200  -0.331  -0.049  0.00  0.00    +0.105 A 
ATOM      9  C   UNL     1      -0.112   1.091   0.127  0.00  0.00    +0.264 C 
ATOM     10  O   UNL     1      -1.242   1.474   0.367  0.00  0.00    -0.268 OA
ATOM     11  N   UNL     1       0.923   1.955   0.003  0.00  0.00    -0.281 N 
ENDROOT
BRANCH   5  12
ATOM     12  C   UNL     1       2.704  -2.967  -0.416  0.00  0.00    +0.151 A 
ATOM     13  C   UNL     1       2.703  -4.304  -0.683  0.00  0.00    +0.051 A 
ATOM     14  C   UNL     1       4.049  -4.710  -0.724  0.00  0.00    +0.042 A 
ATOM     15  C   UNL     1       4.800  -3.617  -0.475  0.00  0.00    +0.196 A 
ATOM     16  O   UNL     1       3.985  -2.567  -0.289  0.00  0.00    -0.461 OA
ENDBRANCH   5  12
BRANCH   2  17
ATOM     17  C   UNL     1       3.258   2.552  -0.100  0.00  0.00    +0.238 C 
ATOM     18  O   UNL     1       4.027   2.996  -0.925  0.00  0.00    -0.273 OA
ATOM     19  N   UNL     1       3.328   2.969   1.180  0.00  0.00    -0.311 N 
ATOM     20  H   UNL     1       2.688   2.505   1.945  0.00  0.00    +0.149 HD
BRANCH  19  21
ATOM     21  C   UNL     1       4.256   4.040   1.551  0.00  0.00    +0.073 C 
ATOM     22  C   UNL     1       5.659   3.455   1.815  0.00  0.00    +0.022 C 
ATOM     23  C   UNL     1       6.202   4.290   3.001  0.00  0.00    +0.002 C 
ATOM     24  C   UNL     1       4.944   4.493   3.881  0.00  0.00    +0.002 C 
ATOM     25  C   UNL     1       3.801   4.699   2.865  0.00  0.00    +0.022 C 
ENDBRANCH  19  21
ENDBRANCH   2  17
BRANCH  11  26
ATOM     26  C   UNL     1       0.730   3.355   0.389  0.00  0.00    +0.107 C 
BRANCH  26  27
ATOM     27  C   UNL     1       0.363   4.179  -0.846  0.00  0.00    +0.000 C 
BRANCH  27  28
ATOM     28  C   UNL     1       0.270   5.658  -0.464  0.00  0.00    -0.077 C 
BRANCH  28  29
ATOM     29  N   UNL     1      -0.200   6.434  -1.619  0.00  0.00    +0.380 N 
ATOM     30  C   UNL     1       0.745   6.333  -2.740  0.00  0.00    -0.096 C 
ATOM     31  H   UNL     1      -1.159   6.007  -1.946  0.00  0.00    -0.082 HD
BRANCH  29  32
ATOM     32  C   UNL     1      -0.432   7.837  -1.251  0.00  0.00    -0.069 C 
ATOM     33  C   UNL     1      -1.413   7.901  -0.079  0.00  0.00    -0.015 C 
ATOM     34  C   UNL     1      -1.655   9.363   0.304  0.00  0.00    -0.002 C 
ATOM     35  C   UNL     1      -2.242  10.113  -0.893  0.00  0.00    -0.000 C 
ATOM     36  C   UNL     1      -1.261  10.049  -2.066  0.00  0.00    -0.002 C 
ATOM     37  C   UNL     1      -1.019   8.588  -2.449  0.00  0.00    -0.015 C 
ENDBRANCH  29  32
ENDBRANCH  28  29
ENDBRANCH  27  28
ENDBRANCH  26  27
ENDBRANCH  11  26
TORSDOF 8
