REMARK  Name = ZINC04836859
REMARK  5 active torsions:
REMARK  status: ('A' for Active; 'I' for Inactive)
REMARK    1  A    between atoms: C_4  and  C_7
REMARK    2  A    between atoms: N_9  and  C_10
REMARK    3  A    between atoms: C_10  and  C_19
REMARK    4  A    between atoms: C_11  and  C_12
REMARK    5  A    between atoms: N_21  and  N_22
REMARK                            x       y       z     vdW  Elec       q    Type
REMARK                         _______ _______ _______ _____ _____    ______ ____
ROOT
ATOM      1  C   UNL     1      -1.064  -2.101  -0.024  0.00  0.00    +0.098 C 
ATOM      2  C   UNL     1      -2.207  -2.818  -0.114  0.00  0.00    +0.036 C 
ENDROOT
BRANCH   2   3
ATOM      3  C   UNL     1      -3.502  -2.128  -0.222  0.00  0.00    -0.023 A 
ATOM      4  C   UNL     1      -3.641  -0.818   0.248  0.00  0.00    +0.009 A 
ATOM      5  C   UNL     1      -4.856  -0.175   0.140  0.00  0.00    +0.020 A 
ATOM      6  C   UNL     1      -5.940  -0.828  -0.424  0.00  0.00    +0.041 A 
ATOM      7  C   UNL     1      -5.811  -2.127  -0.887  0.00  0.00    +0.020 A 
ATOM      8  C   UNL     1      -4.601  -2.780  -0.790  0.00  0.00    +0.009 A 
ATOM      9 CL   UNL     1      -7.468  -0.013  -0.550  0.00  0.00    -0.084 Cl
ENDBRANCH   2   3
BRANCH   1  12
ATOM     10  C   UNL     1      -0.647   0.099   0.778  0.00  0.00    +0.248 C 
ATOM     11  O   UNL     1      -0.302  -0.368   1.846  0.00  0.00    -0.270 OA
ATOM     12  N   UNL     1      -1.092  -0.714  -0.201  0.00  0.00    -0.277 N 
ATOM     13  H   UNL     1      -1.433  -0.337  -1.027  0.00  0.00    +0.155 HD
BRANCH  10  17
ATOM     14  C   UNL     1      -0.445   4.291   0.128  0.00  0.00    +0.000 A 
ATOM     15  C   UNL     1      -0.052   3.763   1.345  0.00  0.00    +0.001 A 
ATOM     16  C   UNL     1      -0.115   2.402   1.563  0.00  0.00    +0.013 A 
ATOM     17  C   UNL     1      -0.576   1.558   0.551  0.00  0.00    +0.037 A 
ATOM     18  C   UNL     1      -0.965   2.096  -0.676  0.00  0.00    +0.013 A 
ATOM     19  C   UNL     1      -0.903   3.459  -0.879  0.00  0.00    +0.001 A 
ENDBRANCH  10  17
ENDBRANCH   1  12
BRANCH   1  20
ATOM     20  C   UNL     1       0.209  -2.780   0.258  0.00  0.00    +0.272 C 
ATOM     21  O   UNL     1       1.249  -2.148   0.259  0.00  0.00    -0.268 OA
ATOM     22  N   UNL     1       0.225  -4.102   0.517  0.00  0.00    -0.249 N 
ATOM     23  H   UNL     1      -0.604  -4.606   0.516  0.00  0.00    +0.169 HD
BRANCH  22  24
ATOM     24  N   UNL     1       1.407  -4.733   0.779  0.00  0.00    -0.254 NA
ATOM     25  H   UNL     1       1.262  -5.716   0.953  0.00  0.00    +0.140 HD
ATOM     26  H   UNL     1       2.067  -4.592   0.029  0.00  0.00    +0.140 HD
ENDBRANCH  22  24
ENDBRANCH   1  20
TORSDOF 5
