REMARK  Name = ZINC35854411
REMARK  10 active torsions:
REMARK  status: ('A' for Active; 'I' for Inactive)
REMARK    1  A    between atoms: C_1  and  C_2
REMARK    2  A    between atoms: C_5  and  C_8
REMARK    3  A    between atoms: C_8  and  N_9
REMARK    4  A    between atoms: N_9  and  C_10
REMARK    5  A    between atoms: C_14  and  C_16
REMARK    6  A    between atoms: C_16  and  C_17
REMARK    7  A    between atoms: N_19  and  C_20
REMARK    8  A    between atoms: C_20  and  C_21
REMARK    9  A    between atoms: C_25  and  C_27
REMARK   10  A    between atoms: C_28  and  C_30
REMARK                            x       y       z     vdW  Elec       q    Type
REMARK                         _______ _______ _______ _____ _____    ______ ____
ROOT
ATOM      1  N   UNL     1       1.528  -5.695  -0.355  0.00  0.00    -0.263 N 
ATOM      2  C   UNL     1       1.345  -6.868  -0.992  0.00  0.00    +0.251 C 
ATOM      3  O   UNL     1       2.128  -7.783  -0.818  0.00  0.00    -0.270 OA
ENDROOT
BRANCH   2   4
ATOM      4  C   UNL     1       0.196  -7.044  -1.901  0.00  0.00    +0.041 A 
ATOM      5  C   UNL     1      -0.181  -6.010  -2.762  0.00  0.00    +0.017 A 
ATOM      6  C   UNL     1      -1.254  -6.176  -3.609  0.00  0.00    +0.050 A 
ATOM      7  C   UNL     1      -1.965  -7.369  -3.612  0.00  0.00    +0.166 A 
ATOM      8  C   UNL     1      -1.593  -8.406  -2.755  0.00  0.00    +0.167 A 
ATOM      9  C   UNL     1      -0.515  -8.247  -1.906  0.00  0.00    +0.062 A 
ATOM     10  O   UNL     1      -2.442  -9.457  -2.950  0.00  0.00    -0.453 OA
ATOM     11  C   UNL     1      -3.582  -8.908  -3.638  0.00  0.00    +0.466 C 
ATOM     12  O   UNL     1      -3.043  -7.774  -4.342  0.00  0.00    -0.453 OA
ENDBRANCH   2   4
BRANCH   1  13
ATOM     13  C   UNL     1       2.519  -5.577   0.625  0.00  0.00    +0.037 A 
ATOM     14  C   UNL     1       2.267  -6.001   1.923  0.00  0.00    +0.023 A 
ATOM     15  C   UNL     1       3.248  -5.884   2.888  0.00  0.00    +0.002 A 
ATOM     16  C   UNL     1       4.479  -5.346   2.563  0.00  0.00    +0.004 A 
ATOM     17  C   UNL     1       4.733  -4.923   1.271  0.00  0.00    -0.037 A 
ATOM     18  C   UNL     1       3.758  -5.042   0.300  0.00  0.00    +0.027 A 
BRANCH  17  19
ATOM     19  C   UNL     1       6.076  -4.336   0.922  0.00  0.00    +0.131 C 
BRANCH  19  20
ATOM     20  C   UNL     1       7.004  -5.436   0.475  0.00  0.00    +0.218 C 
ATOM     21  O   UNL     1       6.613  -6.583   0.443  0.00  0.00    -0.275 OA
ATOM     22  N   UNL     1       8.268  -5.144   0.110  0.00  0.00    -0.311 N 
ATOM     23  H   UNL     1       8.581  -4.226   0.135  0.00  0.00    +0.149 HD
BRANCH  22  24
ATOM     24  C   UNL     1       9.170  -6.214  -0.325  0.00  0.00    +0.139 C 
BRANCH  24  25
ATOM     25  C   UNL     1      10.514  -5.627  -0.674  0.00  0.00    -0.030 A 
ATOM     26  C   UNL     1      10.766  -5.198  -1.964  0.00  0.00    +0.005 A 
ATOM     27  C   UNL     1      11.998  -4.660  -2.285  0.00  0.00    +0.001 A 
ATOM     28  C   UNL     1      12.978  -4.550  -1.316  0.00  0.00    +0.003 A 
ATOM     29  C   UNL     1      12.725  -4.977  -0.026  0.00  0.00    -0.050 A 
ATOM     30  C   UNL     1      11.491  -5.512   0.296  0.00  0.00    +0.008 A 
ATOM     31  C   UNL     1      13.793  -4.858   1.030  0.00  0.00    +0.044 C 
ENDBRANCH  24  25
ENDBRANCH  22  24
ENDBRANCH  19  20
ENDBRANCH  17  19
ENDBRANCH   1  13
BRANCH   1  32
ATOM     32  C   UNL     1       0.688  -4.542  -0.690  0.00  0.00    +0.149 C 
BRANCH  32  37
ATOM     33  C   UNL     1       4.014  -0.224  -2.608  0.00  0.00    +0.044 C 
ATOM     34  C   UNL     1       3.147  -1.350  -2.108  0.00  0.00    -0.050 A 
ATOM     35  C   UNL     1       2.746  -2.350  -2.973  0.00  0.00    +0.003 A 
ATOM     36  C   UNL     1       1.950  -3.383  -2.514  0.00  0.00    +0.005 A 
ATOM     37  C   UNL     1       1.556  -3.416  -1.190  0.00  0.00    -0.030 A 
ATOM     38  C   UNL     1       1.958  -2.416  -0.324  0.00  0.00    +0.005 A 
ATOM     39  C   UNL     1       2.757  -1.385  -0.782  0.00  0.00    +0.003 A 
ENDBRANCH  32  37
ENDBRANCH   1  32
TORSDOF 8
