REMARK  Name = ZINC37382737
REMARK  9 active torsions:
REMARK  status: ('A' for Active; 'I' for Inactive)
REMARK    1  A    between atoms: C_1  and  C_2
REMARK    2  A    between atoms: C_2  and  C_3
REMARK    3  A    between atoms: C_2  and  C_4
REMARK    4  A    between atoms: C_2  and  C_5
REMARK    5  A    between atoms: C_8  and  C_11
REMARK    6  A    between atoms: N_13  and  C_14
REMARK    7  A    between atoms: C_14  and  C_15
REMARK    8  A    between atoms: C_15  and  N_16
REMARK    9  A    between atoms: C_25  and  C_27
REMARK                            x       y       z     vdW  Elec       q    Type
REMARK                         _______ _______ _______ _____ _____    ______ ____
ROOT
ATOM      1  N   UNL     1       6.790  -1.942  -7.371  0.00  0.00    -0.327 N 
ATOM      2  C   UNL     1       8.105  -1.595  -7.597  0.00  0.00    +0.130 A 
ATOM      3  C   UNL     1       8.784  -2.037  -8.760  0.00  0.00    +0.040 A 
ATOM      4  C   UNL     1       8.161  -2.838  -9.723  0.00  0.00    +0.015 A 
ATOM      5  C   UNL     1       8.862  -3.235 -10.823  0.00  0.00    +0.021 A 
ATOM      6  C   UNL     1      10.190  -2.855 -11.001  0.00  0.00    +0.043 A 
ATOM      7  C   UNL     1      10.826  -2.074 -10.081  0.00  0.00    +0.048 A 
ATOM      8  C   UNL     1      10.135  -1.648  -8.938  0.00  0.00    +0.078 A 
ATOM      9  N   UNL     1      10.714  -0.880  -8.005  0.00  0.00    -0.227 NA
ATOM     10  C   UNL     1      10.036  -0.495  -6.941  0.00  0.00    +0.162 A 
ATOM     11  N   UNL     1       8.764  -0.834  -6.736  0.00  0.00    -0.212 NA
ATOM     12 CL   UNL     1      11.048  -3.382 -12.415  0.00  0.00    -0.083 Cl
ATOM     13  H   UNL     1       6.319  -2.500  -8.010  0.00  0.00    +0.148 HD
ENDROOT
BRANCH  10  14
ATOM     14  C   UNL     1      10.716   0.353  -5.933  0.00  0.00    +0.019 A 
ATOM     15  C   UNL     1      10.031   0.772  -4.794  0.00  0.00    +0.011 A 
ATOM     16  C   UNL     1      10.669   1.562  -3.859  0.00  0.00    +0.001 A 
ATOM     17  C   UNL     1      11.987   1.938  -4.051  0.00  0.00    +0.000 A 
ATOM     18  C   UNL     1      12.672   1.524  -5.180  0.00  0.00    +0.001 A 
ATOM     19  C   UNL     1      12.045   0.730  -6.118  0.00  0.00    +0.011 A 
ENDBRANCH  10  14
BRANCH   1  20
ATOM     20  C   UNL     1       6.104  -1.469  -6.166  0.00  0.00    +0.121 C 
BRANCH  20  21
ATOM     21  C   UNL     1       4.667  -1.994  -6.158  0.00  0.00    +0.123 C 
BRANCH  21  24
ATOM     22  C   UNL     1       2.696  -1.860  -4.732  0.00  0.00    +0.244 C 
ATOM     23  O   UNL     1       2.106  -2.559  -5.533  0.00  0.00    -0.270 OA
ATOM     24  N   UNL     1       3.981  -1.521  -4.953  0.00  0.00    -0.310 N 
ATOM     25  H   UNL     1       4.452  -0.963  -4.314  0.00  0.00    +0.149 HD
BRANCH  22  29
ATOM     26  C   UNL     1       0.707  -0.490  -1.238  0.00  0.00    -0.042 A 
ATOM     27  C   UNL     1       0.033  -1.285  -2.147  0.00  0.00    +0.005 A 
ATOM     28  C   UNL     1       0.672  -1.733  -3.284  0.00  0.00    +0.013 A 
ATOM     29  C   UNL     1       2.004  -1.383  -3.516  0.00  0.00    +0.037 A 
ATOM     30  C   UNL     1       2.679  -0.581  -2.595  0.00  0.00    +0.013 A 
ATOM     31  C   UNL     1       2.025  -0.135  -1.464  0.00  0.00    +0.005 A 
BRANCH  26  33
ATOM     32  C   UNL     1      -0.019   1.526   0.010  0.00  0.00    +0.015 C 
ATOM     33  C   UNL     1       0.002  -0.004   0.002  0.00  0.00    -0.013 C 
ATOM     34  C   UNL     1       0.742  -0.511   1.242  0.00  0.00    +0.015 C 
ATOM     35  C   UNL     1      -1.433  -0.534   0.013  0.00  0.00    +0.015 C 
ENDBRANCH  26  33
ENDBRANCH  22  29
ENDBRANCH  21  24
ENDBRANCH  20  21
ENDBRANCH   1  20
TORSDOF 6
