REMARK  Name = ZINC17196561
REMARK  5 active torsions:
REMARK  status: ('A' for Active; 'I' for Inactive)
REMARK    1  A    between atoms: N_5  and  C1*_6
REMARK    2  A    between atoms: C2*_8  and  O2*_18
REMARK    3  A    between atoms: C3*_10  and  O3*_17
REMARK    4  A    between atoms: C4*_12  and  C5*_15
REMARK    5  A    between atoms: C5*_15  and  O5*_16
REMARK                            x       y       z     vdW  Elec       q    Type
REMARK                         _______ _______ _______ _____ _____    ______ ____
ROOT
ATOM      1  C   UNL     1      -0.013   1.076   0.008  0.00  0.00    +0.105 A 
ATOM      2  C   UNL     1       1.077   1.870   0.002  0.00  0.00    +0.047 A 
ATOM      3  C   UNL     1       0.632   3.209   0.012  0.00  0.00    +0.060 A 
ATOM      4  C   UNL     1      -0.767   3.170   0.025  0.00  0.00    +0.122 A 
ATOM      5  N   UNL     1      -1.136   1.848   0.017  0.00  0.00    -0.313 N 
ATOM      6  C   UNL     1      -1.480   4.387   0.037  0.00  0.00    +0.289 A 
ATOM      7  O   UNL     1      -2.701   4.381   0.049  0.00  0.00    -0.264 OA
ATOM      8  N   UNL     1      -0.812   5.556   0.037  0.00  0.00    -0.240 N 
ATOM      9  H   UNL     1      -1.366   6.507   0.046  0.00  0.00    +0.192 HD
ATOM     10  N   UNL     1       0.584   5.604   0.025  0.00  0.00    -0.156 NA
ATOM     11  C   UNL     1       1.303   4.510   0.012  0.00  0.00    +0.147 A 
ATOM     12  N   UNL     1       2.693   4.583   0.000  0.00  0.00    -0.341 N 
ATOM     13 BR   UNL     1       2.878   1.294  -0.017  0.00  0.00    -0.048 Br
ATOM     14  H   UNL     1       3.193   5.563   0.000  0.00  0.00    +0.144 HD
ATOM     15  H   UNL     1       3.292   3.660  -0.009  0.00  0.00    +0.144 HD
ENDROOT
BRANCH   5  16
ATOM     16  C1* UNL     1      -2.513   1.349   0.021  0.00  0.00    +0.251 C 
ATOM     17  C2* UNL     1      -3.042   1.282   1.466  0.00  0.00    +0.195 C 
ATOM     18  C3* UNL     1      -3.324  -0.223   1.698  0.00  0.00    +0.178 C 
ATOM     19  C4* UNL     1      -2.442  -0.889   0.612  0.00  0.00    +0.177 C 
ATOM     20  O4* UNL     1      -2.550   0.013  -0.510  0.00  0.00    -0.346 OA
BRANCH  18  21
ATOM     21  O3* UNL     1      -2.911  -0.623   3.007  0.00  0.00    -0.386 OA
ATOM     22  H3* UNL     1      -3.042  -1.666   3.330  0.00  0.00    +0.210 HD
ENDBRANCH  18  21
BRANCH  17  23
ATOM     23  O2* UNL     1      -4.246   2.042   1.594  0.00  0.00    -0.385 OA
ATOM     24  H2* UNL     1      -4.758   2.101   2.565  0.00  0.00    +0.210 HD
ENDBRANCH  17  23
BRANCH  19  25
ATOM     25  C5* UNL     1      -2.987  -2.272   0.250  0.00  0.00    +0.190 C 
BRANCH  25  26
ATOM     26  O5* UNL     1      -2.094  -2.912  -0.665  0.00  0.00    -0.392 OA
ATOM     27  H5* UNL     1      -2.321  -3.920  -1.040  0.00  0.00    +0.210 HD
ENDBRANCH  25  26
ENDBRANCH  19  25
ENDBRANCH   5  16
TORSDOF 5
