REMARK  Name = ZINC28884565
REMARK  11 active torsions:
REMARK  status: ('A' for Active; 'I' for Inactive)
REMARK    1  A    between atoms: C_1  and  O_2
REMARK    2  A    between atoms: O_2  and  C_3
REMARK    3  A    between atoms: C_5  and  C_13
REMARK    4  A    between atoms: C_7  and  O_11
REMARK    5  A    between atoms: C_8  and  O_9
REMARK    6  A    between atoms: O_9  and  C_10
REMARK    7  A    between atoms: O_11  and  C_12
REMARK    8  A    between atoms: C_16  and  N_32
REMARK    9  A    between atoms: C_21  and  C_22
REMARK   10  A    between atoms: C_26  and  C_28
REMARK   11  A    between atoms: C_28  and  C_29
REMARK                            x       y       z     vdW  Elec       q    Type
REMARK                         _______ _______ _______ _____ _____    ______ ____
ROOT
ATOM      1  C   UNL     1       1.832   0.270  -4.546  0.00  0.00    +0.013 A 
ATOM      2  C   UNL     1       0.997   0.808  -5.520  0.00  0.00    +0.093 A 
ATOM      3  N   UNL     1       1.500   1.566  -6.480  0.00  0.00    -0.349 N 
ATOM      4  C   UNL     1       2.781   1.853  -6.579  0.00  0.00    +0.103 A 
ATOM      5  C   UNL     1       3.721   1.356  -5.638  0.00  0.00    +0.035 A 
ATOM      6  C   UNL     1       3.195   0.553  -4.608  0.00  0.00    +0.032 A 
ATOM      7  S   UNL     1       4.612   0.123  -3.635  0.00  0.00    -0.095 S 
ATOM      8  C   UNL     1       5.862   0.990  -4.564  0.00  0.00    +0.055 A 
ATOM      9  C   UNL     1       5.166   1.560  -5.576  0.00  0.00    +0.000 A 
ATOM     10  H   UNL     1       0.895   1.928  -7.146  0.00  0.00    +0.167 HD
ENDROOT
BRANCH   1  13
ATOM     11  C   UNL     1      -0.331  -0.945  -1.717  0.00  0.00    +0.166 A 
ATOM     12  C   UNL     1       0.180  -0.149  -2.727  0.00  0.00    +0.058 A 
ATOM     13  C   UNL     1       1.283  -0.581  -3.463  0.00  0.00    -0.008 A 
ATOM     14  C   UNL     1       1.868  -1.814  -3.180  0.00  0.00    +0.058 A 
ATOM     15  C   UNL     1       1.354  -2.607  -2.168  0.00  0.00    +0.166 A 
ATOM     16  C   UNL     1       0.258  -2.172  -1.431  0.00  0.00    +0.204 A 
BRANCH  11  18
ATOM     17  C   UNL     1      -1.961   0.746  -1.345  0.00  0.00    +0.277 C 
ATOM     18  O   UNL     1      -1.407  -0.524  -0.999  0.00  0.00    -0.491 OA
ENDBRANCH  11  18
BRANCH  16  19
ATOM     19  O   UNL     1      -0.243  -2.951  -0.434  0.00  0.00    -0.488 OA
ATOM     20  C   UNL     1      -1.260  -3.889  -0.791  0.00  0.00    +0.277 C 
ENDBRANCH  16  19
BRANCH  15  21
ATOM     21  O   UNL     1       1.925  -3.810  -1.892  0.00  0.00    -0.491 OA
ATOM     22  C   UNL     1       3.051  -4.192  -2.684  0.00  0.00    +0.277 C 
ENDBRANCH  15  21
ENDBRANCH   1  13
BRANCH   9  23
ATOM     23  C   UNL     1       5.856   2.388  -6.594  0.00  0.00    -0.016 A 
ATOM     24  C   UNL     1       5.468   3.712  -6.799  0.00  0.00    +0.008 A 
ATOM     25  C   UNL     1       6.113   4.478  -7.747  0.00  0.00    +0.001 A 
ATOM     26  C   UNL     1       7.144   3.935  -8.494  0.00  0.00    +0.004 A 
ATOM     27  C   UNL     1       7.533   2.623  -8.296  0.00  0.00    -0.038 A 
ATOM     28  C   UNL     1       6.899   1.848  -7.345  0.00  0.00    +0.012 A 
BRANCH  27  29
ATOM     29  C   UNL     1       8.655   2.039  -9.114  0.00  0.00    +0.130 C 
BRANCH  29  30
ATOM     30  C   UNL     1       9.966   2.270  -8.407  0.00  0.00    +0.215 C 
ATOM     31  O   UNL     1       9.986   2.852  -7.343  0.00  0.00    -0.276 OA
ATOM     32  N   UNL     1      11.115   1.831  -8.956  0.00  0.00    -0.329 N 
ATOM     33  H   UNL     1      11.099   1.366  -9.807  0.00  0.00    +0.145 HD
ATOM     34  H   UNL     1      11.959   1.980  -8.501  0.00  0.00    +0.145 HD
ENDBRANCH  29  30
ENDBRANCH  27  29
ENDBRANCH   9  23
BRANCH   4  35
ATOM     35  N   UNL     1       3.221   2.657  -7.621  0.00  0.00    -0.344 N 
ATOM     36  H   UNL     1       2.624   3.316  -8.011  0.00  0.00    +0.144 HD
ATOM     37  H   UNL     1       4.124   2.560  -7.961  0.00  0.00    +0.144 HD
ENDBRANCH   4  35
TORSDOF 8
