REMARK  Name = ZINC08740249
REMARK  16 active torsions:
REMARK  status: ('A' for Active; 'I' for Inactive)
REMARK    1  A    between atoms: C_1  and  C_2
REMARK    2  A    between atoms: C_4  and  O_39
REMARK    3  A    between atoms: C_6  and  O_35
REMARK    4  A    between atoms: C_8  and  O_31
REMARK    5  A    between atoms: C_10  and  O_13
REMARK    6  A    between atoms: O_13  and  C_14
REMARK    7  A    between atoms: C_19  and  O_20
REMARK    8  A    between atoms: O_20  and  C_21
REMARK    9  A    between atoms: C_25  and  O_26
REMARK   10  A    between atoms: O_26  and  C_27
REMARK   11  A    between atoms: O_31  and  C_32
REMARK   12  A    between atoms: C_32  and  C_34
REMARK   13  A    between atoms: O_35  and  C_36
REMARK   14  A    between atoms: C_36  and  C_38
REMARK   15  A    between atoms: O_39  and  C_40
REMARK   16  A    between atoms: C_40  and  C_42
REMARK                            x       y       z     vdW  Elec       q    Type
REMARK                         _______ _______ _______ _____ _____    ______ ____
ROOT
ATOM      1  C   UNL     1      -0.019   1.526   0.010  0.00  0.00    +0.042 C 
ATOM      2  C   UNL     1       0.002  -0.004   0.002  0.00  0.00    +0.164 C 
ATOM      3  C   UNL     1      -1.434  -0.534   0.013  0.00  0.00    +0.249 C 
ATOM      4  C   UNL     1      -1.405  -2.065   0.066  0.00  0.00    +0.266 C 
ATOM      5  C   UNL     1      -0.612  -2.507   1.299  0.00  0.00    +0.289 C 
ATOM      6  C   UNL     1       0.793  -1.901   1.238  0.00  0.00    +0.353 C 
ATOM      7  O   UNL     1       0.693  -0.478   1.160  0.00  0.00    -0.332 OA
ENDROOT
BRANCH   6   8
ATOM      8  O   UNL     1       1.520  -2.264   2.413  0.00  0.00    -0.456 OA
BRANCH   8   9
ATOM      9  C   UNL     1       2.827  -1.892   2.470  0.00  0.00    +0.168 A 
ATOM     10  C   UNL     1       3.389  -1.183   1.406  0.00  0.00    +0.050 A 
ATOM     11  C   UNL     1       4.694  -0.798   1.437  0.00  0.00    +0.017 A 
ATOM     12  C   UNL     1       5.492  -1.115   2.550  0.00  0.00    +0.045 A 
ATOM     13  C   UNL     1       4.935  -1.834   3.637  0.00  0.00    +0.098 A 
ATOM     14  C   UNL     1       3.579  -2.215   3.580  0.00  0.00    +0.186 A 
ATOM     15  N   UNL     1       5.682  -2.142   4.702  0.00  0.00    -0.322 N 
ATOM     16  C   UNL     1       6.953  -1.795   4.786  0.00  0.00    +0.209 A 
ATOM     17  C   UNL     1       7.573  -1.078   3.741  0.00  0.00    +0.080 A 
ATOM     18  C   UNL     1       6.847  -0.728   2.606  0.00  0.00    +0.142 A 
ATOM     19  C   UNL     1       8.961  -0.870   4.172  0.00  0.00    +0.055 A 
ATOM     20  C   UNL     1       9.066  -1.445   5.376  0.00  0.00    +0.198 A 
ATOM     21  O   UNL     1       7.890  -1.988   5.739  0.00  0.00    -0.447 OA
ATOM     22  H   UNL     1       5.279  -2.634   5.434  0.00  0.00    +0.169 HD
BRANCH  14  23
ATOM     23  O   UNL     1       3.017  -2.901   4.612  0.00  0.00    -0.490 OA
ATOM     24  C   UNL     1       3.087  -4.327   4.556  0.00  0.00    +0.277 C 
ENDBRANCH  14  23
BRANCH  18  25
ATOM     25  O   UNL     1       7.422  -0.040   1.589  0.00  0.00    -0.494 OA
ATOM     26  C   UNL     1       7.362   1.386   1.656  0.00  0.00    +0.277 C 
ENDBRANCH  18  25
ENDBRANCH   8   9
ENDBRANCH   6   8
BRANCH   5  27
ATOM     27  O   UNL     1      -1.277  -2.057   2.481  0.00  0.00    -0.451 OA
BRANCH  27  28
ATOM     28  C   UNL     1      -1.133  -2.808   3.585  0.00  0.00    +0.305 C 
ATOM     29  O   UNL     1      -0.465  -3.814   3.549  0.00  0.00    -0.251 OA
ATOM     30  C   UNL     1      -1.805  -2.395   4.869  0.00  0.00    +0.136 C 
ENDBRANCH  27  28
ENDBRANCH   5  27
BRANCH   4  31
ATOM     31  O   UNL     1      -2.740  -2.566   0.149  0.00  0.00    -0.454 OA
BRANCH  31  32
ATOM     32  C   UNL     1      -2.974  -3.770  -0.397  0.00  0.00    +0.304 C 
ATOM     33  O   UNL     1      -2.075  -4.378  -0.927  0.00  0.00    -0.251 OA
ATOM     34  C   UNL     1      -4.359  -4.363  -0.348  0.00  0.00    +0.136 C 
ENDBRANCH  31  32
ENDBRANCH   4  31
BRANCH   3  35
ATOM     35  O   UNL     1      -2.110  -0.109  -1.172  0.00  0.00    -0.455 OA
BRANCH  35  36
ATOM     36  C   UNL     1      -2.759   1.065  -1.115  0.00  0.00    +0.304 C 
ATOM     37  O   UNL     1      -2.755   1.709  -0.092  0.00  0.00    -0.251 OA
ATOM     38  C   UNL     1      -3.495   1.578  -2.326  0.00  0.00    +0.136 C 
ENDBRANCH  35  36
ENDBRANCH   3  35
TORSDOF 10
