REMARK  Name = ZINC57373859
REMARK  10 active torsions:
REMARK  status: ('A' for Active; 'I' for Inactive)
REMARK    1  A    between atoms: C_1  and  C_2
REMARK    2  A    between atoms: C_2  and  C_4
REMARK    3  A    between atoms: C_2  and  N_17
REMARK    4  A    between atoms: C_7  and  N_10
REMARK    5  A    between atoms: N_13  and  C_14
REMARK    6  A    between atoms: N_20  and  C_21
REMARK    7  A    between atoms: C_21  and  C_22
REMARK    8  A    between atoms: C_22  and  C_23
REMARK    9  A    between atoms: C_23  and  C_24
REMARK   10  A    between atoms: C_24  and  N_25
REMARK                            x       y       z     vdW  Elec       q    Type
REMARK                         _______ _______ _______ _____ _____    ______ ____
ROOT
ATOM      1  C   UNL     1       0.162   1.539  -0.084  0.00  0.00    +0.033 C 
ATOM      2  C   UNL     1       0.000   0.020   0.013  0.00  0.00    +0.102 C 
ENDROOT
BRANCH   2   3
ATOM      3  C   UNL     1       0.730  -0.485   1.231  0.00  0.00    -0.027 A 
ATOM      4  C   UNL     1       0.143  -0.382   2.479  0.00  0.00    +0.007 A 
ATOM      5  C   UNL     1       0.809  -0.845   3.597  0.00  0.00    +0.023 A 
ATOM      6  C   UNL     1       2.069  -1.414   3.467  0.00  0.00    +0.035 A 
ATOM      7  C   UNL     1       2.655  -1.516   2.213  0.00  0.00    +0.023 A 
ATOM      8  C   UNL     1       1.982  -1.057   1.098  0.00  0.00    +0.007 A 
BRANCH   6   9
ATOM      9  N   UNL     1       2.746  -1.883   4.598  0.00  0.00    -0.269 N 
ATOM     10  C   UNL     1       2.054  -2.412   5.627  0.00  0.00    +0.304 C 
ATOM     11  O   UNL     1       0.853  -2.571   5.534  0.00  0.00    -0.253 OA
ATOM     12  N   UNL     1       2.695  -2.765   6.759  0.00  0.00    -0.296 N 
ATOM     13  H   UNL     1       3.713  -1.827   4.642  0.00  0.00    +0.156 HD
ATOM     14  H   UNL     1       3.654  -2.639   6.833  0.00  0.00    +0.151 HD
BRANCH  12  15
ATOM     15  C   UNL     1       1.943  -3.341   7.877  0.00  0.00    +0.075 C 
ATOM     16  C   UNL     1       2.270  -2.834   9.283  0.00  0.00    +0.024 C 
ATOM     17  C   UNL     1       2.706  -4.237   8.854  0.00  0.00    +0.024 C 
ENDBRANCH  12  15
ENDBRANCH   6   9
ENDBRANCH   2   3
BRANCH   2  18
ATOM     18  N   UNL     1      -1.422  -0.313   0.122  0.00  0.00    -0.293 N 
ATOM     19  C   UNL     1      -2.173  -0.434  -0.990  0.00  0.00    +0.300 C 
ATOM     20  O   UNL     1      -1.670  -0.267  -2.085  0.00  0.00    -0.253 OA
ATOM     21  N   UNL     1      -3.482  -0.741  -0.890  0.00  0.00    -0.299 N 
ATOM     22  H   UNL     1      -1.823  -0.447   0.995  0.00  0.00    +0.151 HD
ATOM     23  H   UNL     1      -3.883  -0.875  -0.017  0.00  0.00    +0.150 HD
BRANCH  21  24
ATOM     24  C   UNL     1      -4.298  -0.873  -2.099  0.00  0.00    +0.106 C 
BRANCH  24  25
ATOM     25  C   UNL     1      -5.735  -1.223  -1.709  0.00  0.00    +0.020 C 
BRANCH  25  26
ATOM     26  C   UNL     1      -6.588  -1.361  -2.972  0.00  0.00    +0.023 C 
BRANCH  26  27
ATOM     27  C   UNL     1      -8.025  -1.711  -2.582  0.00  0.00    +0.123 C 
BRANCH  27  28
ATOM     28  N   UNL     1      -8.841  -1.842  -3.791  0.00  0.00    -0.338 N 
ATOM     29  C   UNL     1      -9.537  -0.842  -4.415  0.00  0.00    +0.104 A 
ATOM     30  C   UNL     1     -10.143  -1.395  -5.482  0.00  0.00    +0.101 A 
ATOM     31  N   UNL     1      -9.827  -2.699  -5.509  0.00  0.00    -0.352 N 
ATOM     32  C   UNL     1      -9.043  -2.972  -4.502  0.00  0.00    +0.173 A 
ATOM     33  H   UNL     1     -10.130  -3.336  -6.174  0.00  0.00    +0.166 HD
ENDBRANCH  27  28
ENDBRANCH  26  27
ENDBRANCH  25  26
ENDBRANCH  24  25
ENDBRANCH  21  24
ENDBRANCH   2  18
TORSDOF 9
