REMARK  Name = ZINC14131725
REMARK  13 active torsions:
REMARK  status: ('A' for Active; 'I' for Inactive)
REMARK    1  A    between atoms: C_1  and  C_2
REMARK    2  A    between atoms: C_5  and  N_8
REMARK    3  A    between atoms: C_9  and  C_27
REMARK    4  A    between atoms: C_12  and  S_13
REMARK    5  A    between atoms: S_13  and  C_14
REMARK    6  A    between atoms: C_14  and  C_16
REMARK    7  A    between atoms: C_14  and  C_17
REMARK    8  A    between atoms: N_22  and  C_23
REMARK    9  A    between atoms: C_23  and  C_24
REMARK   10  A    between atoms: C_24  and  C_25
REMARK   11  A    between atoms: C_24  and  C_26
REMARK   12  A    between atoms: C_30  and  O_33
REMARK   13  A    between atoms: O_33  and  C_34
REMARK                            x       y       z     vdW  Elec       q    Type
REMARK                         _______ _______ _______ _____ _____    ______ ____
ROOT
ATOM      1  N   UNL     1       0.038  -0.004  -0.020  0.00  0.00    -0.270 N 
ATOM      2  C   UNL     1      -0.549  -0.840  -0.945  0.00  0.00    +0.169 A 
ATOM      3  N   UNL     1      -0.333  -2.071  -0.543  0.00  0.00    -0.128 NA
ATOM      4  N   UNL     1       0.332  -2.065   0.556  0.00  0.00    -0.122 NA
ATOM      5  C   UNL     1       0.587  -0.829   0.924  0.00  0.00    +0.197 A 
ENDROOT
BRANCH   1  10
ATOM      6  C   UNL     1       0.137   5.670  -0.094  0.00  0.00    +0.044 C 
ATOM      7  C   UNL     1       0.111   4.163  -0.074  0.00  0.00    -0.050 A 
ATOM      8  C   UNL     1       1.281   3.450  -0.261  0.00  0.00    +0.005 A 
ATOM      9  C   UNL     1       1.260   2.069  -0.243  0.00  0.00    +0.026 A 
ATOM     10  C   UNL     1       0.062   1.397  -0.038  0.00  0.00    +0.051 A 
ATOM     11  C   UNL     1      -1.112   2.116   0.142  0.00  0.00    +0.026 A 
ATOM     12  C   UNL     1      -1.083   3.497   0.129  0.00  0.00    +0.005 A 
ENDBRANCH   1  10
BRANCH   2  13
ATOM     13  C   UNL     1      -1.282  -0.428  -2.160  0.00  0.00    +0.020 A 
ATOM     14  C   UNL     1      -1.129   0.865  -2.665  0.00  0.00    +0.015 A 
ATOM     15  C   UNL     1      -1.810   1.243  -3.803  0.00  0.00    +0.046 A 
ATOM     16  C   UNL     1      -2.655   0.344  -4.440  0.00  0.00    +0.120 A 
ATOM     17  C   UNL     1      -2.813  -0.941  -3.938  0.00  0.00    +0.046 A 
ATOM     18  C   UNL     1      -2.132  -1.329  -2.804  0.00  0.00    +0.015 A 
BRANCH  16  19
ATOM     19  O   UNL     1      -3.328   0.723  -5.558  0.00  0.00    -0.495 OA
ATOM     20  C   UNL     1      -3.119   2.058  -6.020  0.00  0.00    +0.277 C 
ENDBRANCH  16  19
ENDBRANCH   2  13
BRANCH   5  21
ATOM     21  S   UNL     1       1.471  -0.328   2.364  0.00  0.00    -0.073 S 
BRANCH  21  22
ATOM     22  C   UNL     1       1.857  -1.947   3.075  0.00  0.00    +0.137 C 
ATOM     23  C   UNL     1       2.797  -2.705   2.135  0.00  0.00    +0.029 C 
BRANCH  22  24
ATOM     24  C   UNL     1       2.526  -1.762   4.412  0.00  0.00    +0.233 C 
ATOM     25  O   UNL     1       3.047  -0.703   4.688  0.00  0.00    -0.274 OA
ATOM     26  N   UNL     1       2.546  -2.774   5.302  0.00  0.00    -0.239 N 
ATOM     27  C   UNL     1       3.144  -2.608   6.498  0.00  0.00    +0.306 C 
ATOM     28  O   UNL     1       3.666  -1.546   6.775  0.00  0.00    -0.252 OA
ATOM     29  N   UNL     1       3.163  -3.620   7.388  0.00  0.00    -0.299 N 
ATOM     30  H   UNL     1       2.129  -3.622   5.082  0.00  0.00    +0.159 HD
ATOM     31  H   UNL     1       2.746  -4.468   7.168  0.00  0.00    +0.150 HD
BRANCH  29  32
ATOM     32  C   UNL     1       3.813  -3.440   8.689  0.00  0.00    +0.108 C 
BRANCH  32  33
ATOM     33  C   UNL     1       3.693  -4.731   9.502  0.00  0.00    -0.000 C 
ATOM     34  C   UNL     1       4.478  -5.846   8.808  0.00  0.00    +0.009 C 
ATOM     35  C   UNL     1       4.261  -4.504  10.905  0.00  0.00    +0.009 C 
ENDBRANCH  32  33
ENDBRANCH  29  32
ENDBRANCH  22  24
ENDBRANCH  21  22
ENDBRANCH   5  21
TORSDOF 8
