REMARK  Name = ZINC43292378
REMARK  12 active torsions:
REMARK  status: ('A' for Active; 'I' for Inactive)
REMARK    1  A    between atoms: C_1  and  C_2
REMARK    2  A    between atoms: C_2  and  C_3
REMARK    3  A    between atoms: C_3  and  C_5
REMARK    4  A    between atoms: C_3  and  N_19
REMARK    5  A    between atoms: C_5  and  C_7
REMARK    6  A    between atoms: C_5  and  N_11
REMARK    7  A    between atoms: C_7  and  C_8
REMARK    8  A    between atoms: C_7  and  C_9
REMARK    9  A    between atoms: C_7  and  C_10
REMARK   10  A    between atoms: N_11  and  C_12
REMARK   11  A    between atoms: N_11  and  C_14
REMARK   12  A    between atoms: C_12  and  C_13
REMARK                            x       y       z     vdW  Elec       q    Type
REMARK                         _______ _______ _______ _____ _____    ______ ____
ROOT
ATOM      1  C   UNL     1       0.805  -2.135  -0.764  0.00  0.00    -0.078 C 
ENDROOT
BRANCH   1   2
ATOM      2  C   UNL     1       2.111  -2.622  -0.135  0.00  0.00    -0.051 C 
ATOM      3  C   UNL     1       1.994  -2.569   1.389  0.00  0.00    +0.009 C 
ATOM      4  C   UNL     1       2.383  -4.062  -0.576  0.00  0.00    +0.009 C 
ATOM      5  C   UNL     1       3.263  -1.724  -0.590  0.00  0.00    +0.009 C 
ENDBRANCH   1   2
BRANCH   1   6
ATOM      6  N   UNL     1       0.765  -2.529  -2.179  0.00  0.00    +0.383 N 
ATOM      7  H   UNL     1       0.173  -1.890  -2.689  0.00  0.00    -0.081 HD
BRANCH   6   8
ATOM      8  C   UNL     1       2.124  -2.489  -2.736  0.00  0.00    -0.068 C 
ATOM      9  C   UNL     1       2.570  -1.025  -2.936  0.00  0.00    -0.015 C 
ATOM     10  C   UNL     1       3.389  -1.054  -4.250  0.00  0.00    -0.002 C 
ATOM     11  C   UNL     1       2.600  -2.062  -5.123  0.00  0.00    -0.002 C 
ATOM     12  C   UNL     1       2.143  -3.147  -4.127  0.00  0.00    -0.015 C 
ENDBRANCH   6   8
BRANCH   6  13
ATOM     13  C   UNL     1       0.229  -3.891  -2.293  0.00  0.00    -0.082 C 
ATOM     14  C   UNL     1      -1.253  -3.890  -1.913  0.00  0.00    -0.017 C 
ENDBRANCH   6  13
ENDBRANCH   1   6
BRANCH   1  15
ATOM     15  C   UNL     1       0.725  -0.610  -0.657  0.00  0.00    -0.089 C 
BRANCH  15  16
ATOM     16  N   UNL     1      -0.330  -0.111  -1.550  0.00  0.00    +0.379 N 
ATOM     17  H   UNL     1      -0.336   0.898  -1.531  0.00  0.00    -0.090 HD
ATOM     18  H   UNL     1      -0.152  -0.429  -2.491  0.00  0.00    -0.090 HD
ATOM     19  H   UNL     1      -1.225  -0.459  -1.241  0.00  0.00    -0.090 HD
ENDBRANCH  15  16
BRANCH  15  21
ATOM     20  C   UNL     1       0.367   1.308   0.903  0.00  0.00    +0.002 C 
ATOM     21  C   UNL     1       0.400  -0.217   0.785  0.00  0.00    -0.021 C 
ENDBRANCH  15  21
ENDBRANCH   1  15
TORSDOF 7
