REMARK  Name = ZINC67148707
REMARK  10 active torsions:
REMARK  status: ('A' for Active; 'I' for Inactive)
REMARK    1  A    between atoms: C_1  and  C_2
REMARK    2  A    between atoms: N_4  and  C_5
REMARK    3  A    between atoms: C_5  and  C_7
REMARK    4  A    between atoms: C_5  and  C_21
REMARK    5  A    between atoms: C_7  and  C_8
REMARK    6  A    between atoms: N_10  and  C_11
REMARK    7  A    between atoms: C_13  and  C_19
REMARK    8  A    between atoms: C_13  and  C_20
REMARK    9  A    between atoms: C_15  and  C_17
REMARK   10  A    between atoms: C_15  and  C_18
REMARK                            x       y       z     vdW  Elec       q    Type
REMARK                         _______ _______ _______ _____ _____    ______ ____
ROOT
ATOM      1  C   UNL     1      -1.206  -2.457  -2.341  0.00  0.00    +0.215 C 
ATOM      2  O   UNL     1      -2.347  -2.046  -2.298  0.00  0.00    -0.276 OA
ATOM      3  N   UNL     1      -0.619  -2.691  -3.531  0.00  0.00    -0.312 N 
ATOM      4  H   UNL     1       0.293  -3.020  -3.565  0.00  0.00    +0.149 HD
ENDROOT
BRANCH   3   5
ATOM      5  C   UNL     1      -1.359  -2.448  -4.776  0.00  0.00    +0.070 C 
ATOM      6  C   UNL     1      -2.166  -3.698  -5.132  0.00  0.00    +0.009 C 
ATOM      7  C   UNL     1      -2.933  -3.465  -6.433  0.00  0.00    -0.072 C 
ATOM      8  N   UNL     1      -2.059  -3.038  -7.516  0.00  0.00    +0.386 N 
ATOM      9  C   UNL     1      -1.098  -1.985  -7.231  0.00  0.00    -0.072 C 
ATOM     10  C   UNL     1      -0.367  -2.179  -5.907  0.00  0.00    +0.009 C 
ATOM     11  C   UNL     1      -1.746  -0.599  -7.272  0.00  0.00    -0.010 C 
ATOM     12  C   UNL     1      -0.031  -2.016  -8.352  0.00  0.00    -0.010 C 
ATOM     13  C   UNL     1      -4.083  -2.486  -6.201  0.00  0.00    -0.010 C 
ATOM     14  C   UNL     1      -3.559  -4.818  -6.845  0.00  0.00    -0.010 C 
ATOM     15  H   UNL     1      -1.549  -3.856  -7.858  0.00  0.00    -0.084 HD
ATOM     16  H   UNL     1      -2.643  -2.738  -8.300  0.00  0.00    -0.084 HD
ENDBRANCH   3   5
BRANCH   1  17
ATOM     17  C   UNL     1      -0.447  -2.706  -1.063  0.00  0.00    +0.123 C 
BRANCH  17  18
ATOM     18  C   UNL     1      -1.336  -2.363   0.134  0.00  0.00    +0.117 C 
BRANCH  18  19
ATOM     19  C   UNL     1      -0.622  -2.728   1.410  0.00  0.00    +0.043 A 
ATOM     20  C   UNL     1       0.421  -1.942   1.869  0.00  0.00    +0.131 A 
ATOM     21  C   UNL     1       1.076  -2.278   3.042  0.00  0.00    +0.039 A 
ATOM     22  C   UNL     1       0.688  -3.397   3.755  0.00  0.00    +0.006 A 
ATOM     23  C   UNL     1      -0.353  -4.182   3.297  0.00  0.00    +0.039 A 
ATOM     24  C   UNL     1      -1.013  -3.845   2.128  0.00  0.00    +0.131 A 
ATOM     25  F   UNL     1      -2.035  -4.609   1.684  0.00  0.00    -0.205 F 
ATOM     26  F   UNL     1       0.800  -0.848   1.173  0.00  0.00    -0.205 F 
ENDBRANCH  18  19
BRANCH  18  30
ATOM     27  C   UNL     1      -2.945   1.028   0.877  0.00  0.00    +0.109 C 
ATOM     28  C   UNL     1      -2.703  -0.457   0.792  0.00  0.00    +0.210 C 
ATOM     29  O   UNL     1      -3.476  -1.228   1.319  0.00  0.00    -0.276 OA
ATOM     30  N   UNL     1      -1.627  -0.928   0.130  0.00  0.00    -0.308 N 
ATOM     31  H   UNL     1      -1.046  -0.316  -0.348  0.00  0.00    +0.149 HD
ENDBRANCH  18  30
ENDBRANCH  17  18
ENDBRANCH   1  17
TORSDOF 5
