REMARK  Name = ZINC63290961
REMARK  9 active torsions:
REMARK  status: ('A' for Active; 'I' for Inactive)
REMARK    1  A    between atoms: C_1  and  C_2
REMARK    2  A    between atoms: C_2  and  O_3
REMARK    3  A    between atoms: O_3  and  C_4
REMARK    4  A    between atoms: C_4  and  C_6
REMARK    5  A    between atoms: C_8  and  N_17
REMARK    6  A    between atoms: C_18  and  C_20
REMARK    7  A    between atoms: C_20  and  N_21
REMARK    8  A    between atoms: N_21  and  C_22
REMARK    9  A    between atoms: C_30  and  N_37
REMARK                            x       y       z     vdW  Elec       q    Type
REMARK                         _______ _______ _______ _____ _____    ______ ____
ROOT
ATOM      1  N   UNL     1      -5.259   2.470  -2.489  0.00  0.00    +0.388 N 
ATOM      2  H   UNL     1      -4.297   2.770  -2.527  0.00  0.00    -0.085 HD
ATOM      3  H   UNL     1      -5.525   2.079  -3.381  0.00  0.00    -0.085 HD
ENDROOT
BRANCH   1   4
ATOM      4  C   UNL     1      -6.120   3.620  -2.182  0.00  0.00    -0.044 C 
ATOM      5  C   UNL     1      -7.591   3.197  -2.257  0.00  0.00    -0.013 C 
ATOM      6  C   UNL     1      -8.516   4.335  -1.831  0.00  0.00    +0.003 C 
ATOM      7  C   UNL     1      -8.382   5.519  -2.804  0.00  0.00    +0.033 C 
ATOM      8  C   UNL     1      -6.908   5.817  -2.919  0.00  0.00    -0.040 C 
ATOM      9  C   UNL     1      -6.224   6.947  -2.792  0.00  0.00    +0.001 A 
ATOM     10  C   UNL     1      -6.660   8.342  -2.612  0.00  0.00    +0.042 A 
ATOM     11  C   UNL     1      -5.672   9.268  -2.492  0.00  0.00    +0.127 A 
ATOM     12  C   UNL     1      -4.311   8.950  -2.533  0.00  0.00    +0.035 A 
ATOM     13  C   UNL     1      -3.820   7.696  -2.704  0.00  0.00    +0.028 A 
ATOM     14  C   UNL     1      -4.763   6.638  -2.852  0.00  0.00    +0.043 A 
ATOM     15  N   UNL     1      -4.576   5.366  -3.052  0.00  0.00    -0.379 N 
ATOM     16  C   UNL     1      -5.878   4.731  -3.206  0.00  0.00    +0.092 C 
ATOM     17  H   UNL     1      -3.716   4.918  -3.091  0.00  0.00    +0.160 HD
BRANCH  11  18
ATOM     18  N   UNL     1      -6.056  10.685  -2.310  0.00  0.00    +0.056 N 
ATOM     19  O   UNL     1      -7.224  10.994  -2.270  0.00  0.00    -0.126 OA
ATOM     20  O   UNL     1      -5.202  11.534  -2.200  0.00  0.00    -0.126 OA
ENDBRANCH  11  18
ENDBRANCH   1   4
BRANCH   1  21
ATOM     21  C   UNL     1      -5.413   1.450  -1.443  0.00  0.00    +0.015 C 
BRANCH  21  23
ATOM     22  N   UNL     1      -4.507  -0.794  -0.930  0.00  0.00    -0.304 N 
ATOM     23  C   UNL     1      -4.530   0.270  -1.758  0.00  0.00    +0.197 C 
ATOM     24  O   UNL     1      -3.841   0.278  -2.755  0.00  0.00    -0.278 OA
ATOM     25  H   UNL     1      -5.058  -0.800  -0.132  0.00  0.00    +0.150 HD
BRANCH  22  27
ATOM     26  C   UNL     1      -2.881  -2.427   0.017  0.00  0.00    +0.155 C 
ATOM     27  C   UNL     1      -3.649  -1.941  -1.236  0.00  0.00    +0.153 C 
ATOM     28  S   UNL     1      -4.638  -3.460  -1.564  0.00  0.00    -0.106 S 
ATOM     29  C   UNL     1      -3.614  -4.627  -0.699  0.00  0.00    -0.013 C 
ATOM     30  C   UNL     1      -2.771  -3.930   0.050  0.00  0.00    -0.044 C 
ATOM     31  C   UNL     1      -1.727  -4.632   0.916  0.00  0.00    +0.032 C 
ATOM     32  C   UNL     1      -2.142  -6.088   1.122  0.00  0.00    +0.005 C 
ATOM     33  C   UNL     1      -2.421  -6.737  -0.238  0.00  0.00    +0.005 C 
ATOM     34  C   UNL     1      -3.701  -6.123  -0.811  0.00  0.00    +0.042 C 
BRANCH  26  35
ATOM     35  C   UNL     1      -1.496  -1.832   0.006  0.00  0.00    +0.317 C 
ATOM     36  O   UNL     1      -0.528  -2.555  -0.007  0.00  0.00    -0.250 OA
BRANCH  35  37
ATOM     37  O   UNL     1      -1.339  -0.499   0.012  0.00  0.00    -0.464 OA
BRANCH  37  39
ATOM     38  C   UNL     1      -0.019   1.526   0.010  0.00  0.00    +0.048 C 
ATOM     39  C   UNL     1       0.002  -0.004   0.002  0.00  0.00    +0.229 C 
ENDBRANCH  37  39
ENDBRANCH  35  37
ENDBRANCH  26  35
ENDBRANCH  22  27
ENDBRANCH  21  23
ENDBRANCH   1  21
TORSDOF 8
