REMARK  Name = ZINC06480149
REMARK  5 active torsions:
REMARK  status: ('A' for Active; 'I' for Inactive)
REMARK    1  A    between atoms: C_1  and  C_2
REMARK    2  A    between atoms: C_5  and  C_8
REMARK    3  A    between atoms: C_11  and  C_13
REMARK    4  A    between atoms: C_26  and  N_30
REMARK    5  A    between atoms: C_27  and  C_28
REMARK                            x       y       z     vdW  Elec       q    Type
REMARK                         _______ _______ _______ _____ _____    ______ ____
ROOT
ATOM      1  C   UNL     1      -0.488   6.819   0.043  0.00  0.00    +0.141 C 
ATOM      2  C   UNL     1      -1.339   6.767   1.283  0.00  0.00    +0.092 A 
ATOM      3  C   UNL     1      -0.747   6.441   2.520  0.00  0.00    +0.262 A 
ATOM      4  O   UNL     1       0.445   6.199   2.587  0.00  0.00    -0.267 OA
ATOM      5  N   UNL     1      -1.511   6.397   3.629  0.00  0.00    -0.275 N 
ATOM      6  H   UNL     1      -1.097   6.165   4.509  0.00  0.00    +0.173 HD
ATOM      7  C   UNL     1      -2.828   6.665   3.560  0.00  0.00    +0.329 A 
ATOM      8  O   UNL     1      -3.502   6.621   4.571  0.00  0.00    -0.247 OA
ATOM      9  N   UNL     1      -3.410   6.980   2.389  0.00  0.00    -0.278 N 
ATOM     10  H   UNL     1      -4.390   7.176   2.359  0.00  0.00    +0.173 HD
ATOM     11  C   UNL     1      -2.668   7.036   1.233  0.00  0.00    +0.214 A 
ATOM     12  O   UNL     1      -3.272   7.354   0.073  0.00  0.00    -0.425 OA
ATOM     13  C   UNL     1      -2.687   7.047  -1.098  0.00  0.00    +0.200 C 
ATOM     14  C   UNL     1      -1.361   6.781  -1.181  0.00  0.00    +0.101 C 
ENDROOT
BRANCH   1  18
ATOM     15  C   UNL     1       1.172   3.564   0.009  0.00  0.00    +0.135 A 
ATOM     16  C   UNL     1       2.266   4.371   0.009  0.00  0.00    +0.050 A 
ATOM     17  C   UNL     1       1.792   5.698   0.015  0.00  0.00    +0.046 A 
ATOM     18  C   UNL     1       0.446   5.636   0.028  0.00  0.00    +0.119 A 
ATOM     19  O   UNL     1       0.075   4.346   0.024  0.00  0.00    -0.459 OA
BRANCH  15  24
ATOM     20  C   UNL     1       1.220  -2.189  -0.023  0.00  0.00    +0.044 C 
ATOM     21  C   UNL     1       1.208  -0.683  -0.014  0.00  0.00    -0.050 A 
ATOM     22  C   UNL     1       0.002  -0.004   0.002  0.00  0.00    +0.004 A 
ATOM     23  C   UNL     1      -0.017   1.375   0.010  0.00  0.00    +0.012 A 
ATOM     24  C   UNL     1       1.185   2.087   0.002  0.00  0.00    +0.017 A 
ATOM     25  C   UNL     1       2.397   1.396  -0.013  0.00  0.00    +0.012 A 
ATOM     26  C   UNL     1       2.402   0.016  -0.021  0.00  0.00    +0.004 A 
ENDBRANCH  15  24
ENDBRANCH   1  18
BRANCH  13  27
ATOM     27  N   UNL     1      -3.451   7.003  -2.237  0.00  0.00    -0.328 N 
ATOM     28  H   UNL     1      -3.041   6.782  -3.088  0.00  0.00    +0.145 HD
ATOM     29  H   UNL     1      -4.401   7.191  -2.192  0.00  0.00    +0.145 HD
ENDBRANCH  13  27
BRANCH  14  30
ATOM     30  C   UNL     1      -0.783   6.458  -2.451  0.00  0.00    +0.101 C 
ATOM     31  N   UNL     1      -0.325   6.202  -3.459  0.00  0.00    -0.191 NA
ENDBRANCH  14  30
TORSDOF 4
