REMARK  Name = ZINC61270385
REMARK  11 active torsions:
REMARK  status: ('A' for Active; 'I' for Inactive)
REMARK    1  A    between atoms: C_1  and  C_2
REMARK    2  A    between atoms: C_2  and  N_3
REMARK    3  A    between atoms: N_3  and  C_4
REMARK    4  A    between atoms: C_4  and  C_6
REMARK    5  A    between atoms: C_4  and  C_7
REMARK    6  A    between atoms: C_7  and  C_8
REMARK    7  A    between atoms: N_10  and  C_11
REMARK    8  A    between atoms: C_11  and  C_13
REMARK    9  A    between atoms: C_11  and  C_14
REMARK   10  A    between atoms: C_17  and  S_20
REMARK   11  A    between atoms: S_20  and  N_23
REMARK                            x       y       z     vdW  Elec       q    Type
REMARK                         _______ _______ _______ _____ _____    ______ ____
ROOT
ATOM      1  C   UNL     1      -5.183  -2.084  -3.066  0.00  0.00    +0.100 C 
ATOM      2  C   UNL     1      -4.774  -3.109  -4.125  0.00  0.00    +0.033 C 
ENDROOT
BRANCH   1   3
ATOM      3  C   UNL     1      -6.686  -2.034  -2.968  0.00  0.00    -0.027 A 
ATOM      4  C   UNL     1      -7.364  -2.996  -2.241  0.00  0.00    +0.007 A 
ATOM      5  C   UNL     1      -8.743  -2.950  -2.152  0.00  0.00    +0.029 A 
ATOM      6  C   UNL     1      -9.444  -1.944  -2.789  0.00  0.00    +0.105 A 
ATOM      7  C   UNL     1      -8.766  -0.982  -3.514  0.00  0.00    +0.029 A 
ATOM      8  C   UNL     1      -7.387  -1.024  -3.600  0.00  0.00    +0.007 A 
BRANCH   6   9
ATOM      9  S   UNL     1     -11.201  -1.887  -2.676  0.00  0.00    +0.056 S 
ATOM     10  O   UNL     1     -11.658  -1.162  -3.810  0.00  0.00    -0.153 OA
ATOM     11  O   UNL     1     -11.633  -3.210  -2.393  0.00  0.00    -0.153 OA
BRANCH   9  12
ATOM     12  N   UNL     1     -11.577  -0.972  -1.347  0.00  0.00    -0.204 NA
ATOM     13  H   UNL     1     -12.400  -0.459  -1.329  0.00  0.00    +0.144 HD
ATOM     14  H   UNL     1     -10.974  -0.950  -0.587  0.00  0.00    +0.144 HD
ENDBRANCH   9  12
ENDBRANCH   6   9
ENDBRANCH   1   3
BRANCH   1  17
ATOM     15  C   UNL     1      -3.364  -2.112  -1.444  0.00  0.00    +0.212 C 
ATOM     16  O   UNL     1      -2.697  -1.468  -2.226  0.00  0.00    -0.276 OA
ATOM     17  N   UNL     1      -4.622  -2.471  -1.769  0.00  0.00    -0.309 N 
ATOM     18  H   UNL     1      -5.156  -2.986  -1.143  0.00  0.00    +0.149 HD
BRANCH  15  19
ATOM     19  C   UNL     1      -2.787  -2.510  -0.111  0.00  0.00    +0.080 C 
BRANCH  19  20
ATOM     20  C   UNL     1      -1.356  -1.981   0.004  0.00  0.00    -0.066 C 
ATOM     21  C   UNL     1      -0.727  -2.490   1.303  0.00  0.00    -0.013 C 
BRANCH  20  22
ATOM     22  N   UNL     1      -1.376  -0.512   0.012  0.00  0.00    +0.381 N 
ATOM     23  H   UNL     1      -1.848  -0.187   0.843  0.00  0.00    -0.086 HD
ATOM     24  H   UNL     1      -1.864  -0.178  -0.805  0.00  0.00    -0.086 HD
BRANCH  22  26
ATOM     25  C   UNL     1      -0.019   1.526   0.010  0.00  0.00    -0.017 C 
ATOM     26  C   UNL     1       0.002  -0.004   0.002  0.00  0.00    -0.086 C 
ENDBRANCH  22  26
ENDBRANCH  20  22
ENDBRANCH  19  20
ENDBRANCH  15  19
ENDBRANCH   1  17
TORSDOF 8
