REMARK  Name = ZINC38774233
REMARK  6 active torsions:
REMARK  status: ('A' for Active; 'I' for Inactive)
REMARK    1  A    between atoms: C_10  and  C_11
REMARK    2  A    between atoms: C_11  and  C_12
REMARK    3  A    between atoms: N_14  and  C_15
REMARK    4  A    between atoms: C_15  and  C_16
REMARK    5  A    between atoms: C_16  and  N_17
REMARK    6  A    between atoms: C_28  and  N_32
REMARK                            x       y       z     vdW  Elec       q    Type
REMARK                         _______ _______ _______ _____ _____    ______ ____
ROOT
ATOM      1  N   UNL     1       8.523   2.701   4.347  0.00  0.00    +0.383 N 
ATOM      2  C   UNL     1       7.516   3.611   4.908  0.00  0.00    -0.059 C 
ATOM      3  C   UNL     1       7.841   3.885   6.381  0.00  0.00    +0.088 C 
ATOM      4  N   UNL     1       9.223   4.380   6.470  0.00  0.00    -0.313 N 
ATOM      5  C   UNL     1      10.279   3.612   5.792  0.00  0.00    +0.088 C 
ATOM      6  C   UNL     1       9.840   3.351   4.348  0.00  0.00    -0.059 C 
ATOM      7  C   UNL     1       9.521   5.532   7.168  0.00  0.00    +0.162 A 
ATOM      8  N   UNL     1       8.710   6.328   7.828  0.00  0.00    -0.225 NA
ATOM      9  C   UNL     1       9.145   7.433   8.473  0.00  0.00    +0.080 A 
ATOM     10  C   UNL     1       8.385   8.367   9.214  0.00  0.00    +0.031 A 
ATOM     11  C   UNL     1       8.987   9.444   9.810  0.00  0.00    +0.035 A 
ATOM     12  C   UNL     1      10.354   9.658   9.710  0.00  0.00    +0.127 A 
ATOM     13  C   UNL     1      11.128   8.764   8.993  0.00  0.00    +0.050 A 
ATOM     14  C   UNL     1      10.534   7.683   8.393  0.00  0.00    +0.043 A 
ATOM     15  S   UNL     1      11.108   6.318   7.411  0.00  0.00    -0.052 S 
ATOM     16  H   UNL     1       8.563   1.862   4.906  0.00  0.00    -0.082 HD
ENDROOT
BRANCH  12  17
ATOM     17  N   UNL     1      10.977  10.830  10.364  0.00  0.00    +0.056 N 
ATOM     18  O   UNL     1      10.294  11.608  10.989  0.00  0.00    -0.126 OA
ATOM     19  O   UNL     1      12.169  11.011  10.273  0.00  0.00    -0.126 OA
ENDBRANCH  12  17
BRANCH   1  20
ATOM     20  C   UNL     1       8.152   2.353   2.970  0.00  0.00    -0.060 C 
BRANCH  20  21
ATOM     21  C   UNL     1       6.840   1.565   2.979  0.00  0.00    +0.085 C 
BRANCH  21  24
ATOM     22  C   UNL     1       5.341   0.519   1.367  0.00  0.00    +0.217 C 
ATOM     23  O   UNL     1       4.633   0.178   2.291  0.00  0.00    -0.275 OA
ATOM     24  N   UNL     1       6.469   1.218   1.605  0.00  0.00    -0.317 N 
ATOM     25  H   UNL     1       7.035   1.490   0.866  0.00  0.00    +0.149 HD
BRANCH  22  26
ATOM     26  C   UNL     1       4.960   0.161  -0.046  0.00  0.00    +0.131 C 
BRANCH  26  36
ATOM     27  C   UNL     1      -0.016   1.357   0.009  0.00  0.00    +0.001 A 
ATOM     28  C   UNL     1       1.169   2.091   0.002  0.00  0.00    +0.001 A 
ATOM     29  C   UNL     1       2.378   1.468  -0.013  0.00  0.00    +0.009 A 
ATOM     30  C   UNL     1       2.438   0.064  -0.021  0.00  0.00    -0.014 A 
ATOM     31  C   UNL     1       1.233  -0.683  -0.013  0.00  0.00    -0.018 A 
ATOM     32  C   UNL     1       0.002  -0.004   0.002  0.00  0.00    +0.008 A 
ATOM     33  C   UNL     1       1.292  -2.087  -0.021  0.00  0.00    +0.008 A 
ATOM     34  C   UNL     1       2.502  -2.709  -0.036  0.00  0.00    +0.001 A 
ATOM     35  C   UNL     1       3.687  -1.976  -0.043  0.00  0.00    +0.005 A 
ATOM     36  C   UNL     1       3.668  -0.615  -0.037  0.00  0.00    -0.031 A 
ENDBRANCH  26  36
ENDBRANCH  22  26
ENDBRANCH  21  24
ENDBRANCH  20  21
ENDBRANCH   1  20
TORSDOF 6
