REMARK  Name = ZINC03168106
REMARK  7 active torsions:
REMARK  status: ('A' for Active; 'I' for Inactive)
REMARK    1  A    between atoms: C_4  and  C_7
REMARK    2  A    between atoms: N_9  and  C_10
REMARK    3  A    between atoms: C_10  and  C_21
REMARK    4  A    between atoms: C_11  and  C_12
REMARK    5  A    between atoms: N_23  and  N_24
REMARK    6  A    between atoms: C_25  and  C_26
REMARK    7  A    between atoms: C_29  and  O_33
REMARK                            x       y       z     vdW  Elec       q    Type
REMARK                         _______ _______ _______ _____ _____    ______ ____
ROOT
ATOM      1  C   UNL     1       3.439   8.000   0.098  0.00  0.00    +0.098 C 
ATOM      2  C   UNL     1       2.262   8.654  -0.048  0.00  0.00    +0.036 C 
ENDROOT
BRANCH   2   3
ATOM      3  C   UNL     1       0.994   7.926   0.098  0.00  0.00    -0.019 A 
ATOM      4  C   UNL     1       0.881   6.612  -0.372  0.00  0.00    +0.012 A 
ATOM      5  C   UNL     1      -0.308   5.930  -0.230  0.00  0.00    +0.050 A 
ATOM      6  C   UNL     1      -1.399   6.545   0.369  0.00  0.00    +0.166 A 
ATOM      7  C   UNL     1      -1.296   7.856   0.835  0.00  0.00    +0.167 A 
ATOM      8  C   UNL     1      -0.106   8.545   0.701  0.00  0.00    +0.057 A 
ATOM      9  O   UNL     1      -2.495   8.223   1.375  0.00  0.00    -0.453 OA
ATOM     10  C   UNL     1      -3.205   6.991   1.605  0.00  0.00    +0.466 C 
ATOM     11  O   UNL     1      -2.663   6.094   0.618  0.00  0.00    -0.453 OA
ENDBRANCH   2   3
BRANCH   1  14
ATOM     12  C   UNL     1       5.813   7.998  -0.059  0.00  0.00    +0.248 C 
ATOM     13  O   UNL     1       5.818   6.809   0.193  0.00  0.00    -0.270 OA
ATOM     14  N   UNL     1       4.643   8.656  -0.180  0.00  0.00    -0.277 N 
ATOM     15  H   UNL     1       4.636   9.585  -0.460  0.00  0.00    +0.155 HD
BRANCH  12  19
ATOM     16  C   UNL     1       9.482  10.079  -0.557  0.00  0.00    +0.000 A 
ATOM     17  C   UNL     1       9.491   8.725  -0.271  0.00  0.00    +0.001 A 
ATOM     18  C   UNL     1       8.303   8.043  -0.108  0.00  0.00    +0.013 A 
ATOM     19  C   UNL     1       7.090   8.722  -0.232  0.00  0.00    +0.037 A 
ATOM     20  C   UNL     1       7.087  10.087  -0.527  0.00  0.00    +0.013 A 
ATOM     21  C   UNL     1       8.283  10.758  -0.681  0.00  0.00    +0.001 A 
ENDBRANCH  12  19
ENDBRANCH   1  14
BRANCH   1  22
ATOM     22  C   UNL     1       3.452   6.603   0.549  0.00  0.00    +0.277 C 
ATOM     23  O   UNL     1       3.692   5.710  -0.243  0.00  0.00    -0.267 OA
ATOM     24  N   UNL     1       3.198   6.309   1.839  0.00  0.00    -0.202 N 
ATOM     25  H   UNL     1       2.936   7.011   2.454  0.00  0.00    +0.178 HD
BRANCH  24  26
ATOM     26  N   UNL     1       3.313   4.988   2.292  0.00  0.00    -0.187 NA
ATOM     27  C   UNL     1       2.975   4.687   3.509  0.00  0.00    +0.138 C 
BRANCH  27  28
ATOM     28  C   UNL     1       2.991   3.282   3.953  0.00  0.00    -0.004 A 
ATOM     29  C   UNL     1       3.368   2.271   3.064  0.00  0.00    +0.013 A 
ATOM     30  C   UNL     1       3.381   0.958   3.483  0.00  0.00    +0.047 A 
ATOM     31  C   UNL     1       3.020   0.638   4.785  0.00  0.00    +0.131 A 
ATOM     32  C   UNL     1       2.644   1.639   5.672  0.00  0.00    +0.060 A 
ATOM     33  C   UNL     1       2.628   2.956   5.262  0.00  0.00    +0.028 A 
ATOM     34 BR   UNL     1       2.153   1.196   7.444  0.00  0.00    -0.047 Br
BRANCH  31  35
ATOM     35  O   UNL     1       3.035  -0.658   5.194  0.00  0.00    -0.506 OA
ATOM     36  H   UNL     1       2.198  -1.123   5.056  0.00  0.00    +0.292 HD
ENDBRANCH  31  35
ENDBRANCH  27  28
ENDBRANCH  24  26
ENDBRANCH   1  22
TORSDOF 7
