REMARK  Name = ZINC34832089
REMARK  13 active torsions:
REMARK  status: ('A' for Active; 'I' for Inactive)
REMARK    1  A    between atoms: C_1  and  C_2
REMARK    2  A    between atoms: C_2  and  C_3
REMARK    3  A    between atoms: C_3  and  C_5
REMARK    4  A    between atoms: C_3  and  N_6
REMARK    5  A    between atoms: N_6  and  C_7
REMARK    6  A    between atoms: C_7  and  C_8
REMARK    7  A    between atoms: C_9  and  C_28
REMARK    8  A    between atoms: N_11  and  C_21
REMARK    9  A    between atoms: C_12  and  N_13
REMARK   10  A    between atoms: N_16  and  C_19
REMARK   11  A    between atoms: C_19  and  C_20
REMARK   12  A    between atoms: C_29  and  C_31
REMARK   13  A    between atoms: C_35  and  N_37
REMARK                            x       y       z     vdW  Elec       q    Type
REMARK                         _______ _______ _______ _____ _____    ______ ____
ROOT
ATOM      1  C   UNL     1       2.708   2.193  -2.514  0.00  0.00    +0.032 A 
ATOM      2  C   UNL     1       1.386   2.318  -2.951  0.00  0.00    +0.067 A 
ATOM      3  N   UNL     1       0.750   3.114  -2.129  0.00  0.00    -0.170 NA
ATOM      4  N   UNL     1       1.645   3.527  -1.133  0.00  0.00    -0.218 N 
ATOM      5  C   UNL     1       2.848   2.944  -1.386  0.00  0.00    +0.130 A 
ATOM      6  C   UNL     1       0.793   1.650  -4.165  0.00  0.00    +0.068 C 
ENDROOT
BRANCH   5   7
ATOM      7  N   UNL     1       4.008   3.089  -0.632  0.00  0.00    -0.318 N 
ATOM      8  C   UNL     1       5.133   3.899  -1.125  0.00  0.00    +0.088 C 
ATOM      9  C   UNL     1       5.545   4.879  -0.021  0.00  0.00    -0.060 C 
ATOM     10  N   UNL     1       5.828   4.135   1.213  0.00  0.00    +0.382 N 
ATOM     11  C   UNL     1       4.604   3.486   1.698  0.00  0.00    -0.060 C 
ATOM     12  C   UNL     1       4.143   2.442   0.682  0.00  0.00    +0.088 C 
ATOM     13  H   UNL     1       6.529   3.432   1.027  0.00  0.00    -0.082 HD
BRANCH  10  14
ATOM     14  C   UNL     1       6.328   5.061   2.237  0.00  0.00    -0.082 C 
ATOM     15  C   UNL     1       6.741   4.271   3.481  0.00  0.00    -0.017 C 
ENDBRANCH  10  14
ENDBRANCH   5   7
BRANCH   4  16
ATOM     16  C   UNL     1       1.351   4.385  -0.065  0.00  0.00    +0.070 A 
ATOM     17  C   UNL     1       1.497   3.942   1.243  0.00  0.00    +0.028 A 
ATOM     18  C   UNL     1       1.208   4.789   2.296  0.00  0.00    +0.005 A 
ATOM     19  C   UNL     1       0.774   6.078   2.049  0.00  0.00    +0.038 A 
ATOM     20  C   UNL     1       0.627   6.524   0.746  0.00  0.00    +0.125 A 
ATOM     21  C   UNL     1       0.920   5.681  -0.312  0.00  0.00    +0.066 A 
ATOM     22  F   UNL     1       0.202   7.784   0.507  0.00  0.00    -0.205 F 
ENDBRANCH   4  16
BRANCH   1  23
ATOM     23  C   UNL     1       3.785   1.369  -3.171  0.00  0.00    +0.148 C 
BRANCH  23  24
ATOM     24  N   UNL     1       3.817   0.035  -2.565  0.00  0.00    -0.290 N 
ATOM     25  C   UNL     1       4.801  -0.290  -1.704  0.00  0.00    +0.247 C 
ATOM     26  O   UNL     1       5.673   0.516  -1.444  0.00  0.00    -0.270 OA
BRANCH  25  27
ATOM     27  C   UNL     1       4.820  -1.628  -1.075  0.00  0.00    +0.039 A 
ATOM     28  C   UNL     1       3.636  -2.355  -0.936  0.00  0.00    +0.013 A 
ATOM     29  C   UNL     1       3.661  -3.602  -0.349  0.00  0.00    +0.003 A 
ATOM     30  C   UNL     1       4.856  -4.134   0.103  0.00  0.00    +0.033 A 
ATOM     31  C   UNL     1       6.033  -3.419  -0.031  0.00  0.00    +0.127 A 
ATOM     32  C   UNL     1       6.023  -2.172  -0.622  0.00  0.00    +0.045 A 
BRANCH  31  33
ATOM     33  N   UNL     1       7.306  -3.995   0.456  0.00  0.00    +0.056 N 
ATOM     34  O   UNL     1       7.317  -5.090   0.970  0.00  0.00    -0.126 OA
ATOM     35  O   UNL     1       8.335  -3.372   0.340  0.00  0.00    -0.126 OA
ENDBRANCH  31  33
ENDBRANCH  25  27
BRANCH  24  36
ATOM     36  C   UNL     1       2.779  -0.944  -2.896  0.00  0.00    +0.073 C 
ATOM     37  C   UNL     1       1.594  -0.773  -1.944  0.00  0.00    +0.028 C 
BRANCH  36  39
ATOM     38  C   UNL     1       3.489  -0.934  -5.292  0.00  0.00    +0.005 C 
ATOM     39  C   UNL     1       2.312  -0.725  -4.336  0.00  0.00    +0.019 C 
ENDBRANCH  36  39
ENDBRANCH  24  36
ENDBRANCH  23  24
ENDBRANCH   1  23
TORSDOF 9
