REMARK  Name = ZINC08729234
REMARK  5 active torsions:
REMARK  status: ('A' for Active; 'I' for Inactive)
REMARK    1  A    between atoms: C_1  and  C_2
REMARK    2  A    between atoms: C_5  and  C_10
REMARK    3  A    between atoms: N_6  and  C_7
REMARK    4  A    between atoms: C_7  and  C_8
REMARK    5  A    between atoms: C_7  and  C_9
REMARK                            x       y       z     vdW  Elec       q    Type
REMARK                         _______ _______ _______ _____ _____    ______ ____
ROOT
ATOM      1  C   UNL     1       3.015   0.599  -0.461  0.00  0.00    +0.063 C 
ATOM      2  C   UNL     1       2.115  -0.214  -1.355  0.00  0.00    +0.016 A 
ATOM      3  C   UNL     1       2.478  -0.813  -2.508  0.00  0.00    +0.023 A 
ATOM      4  C   UNL     1       1.337  -1.458  -3.025  0.00  0.00    +0.023 A 
ATOM      5  C   UNL     1       0.322  -1.234  -2.166  0.00  0.00    +0.016 A 
ATOM      6  N   UNL     1       0.795  -0.474  -1.137  0.00  0.00    -0.346 N 
ATOM      7  C   UNL     1      -1.090  -1.737  -2.316  0.00  0.00    +0.063 C 
ENDROOT
BRANCH   6   8
ATOM      8  C   UNL     1       0.011  -0.008   0.010  0.00  0.00    +0.081 C 
ATOM      9  C   UNL     1      -0.415  -1.209   0.858  0.00  0.00    +0.030 C 
ATOM     10  C   UNL     1      -1.232   0.732  -0.488  0.00  0.00    +0.030 C 
ENDBRANCH   6   8
TORSDOF 1
