REMARK  Name = ZINC08014870
REMARK  8 active torsions:
REMARK  status: ('A' for Active; 'I' for Inactive)
REMARK    1  A    between atoms: C_4  and  C_7
REMARK    2  A    between atoms: C_7  and  N_8
REMARK    3  A    between atoms: N_8  and  C_9
REMARK    4  A    between atoms: C_9  and  N_11
REMARK    5  A    between atoms: N_11  and  N_12
REMARK    6  A    between atoms: C_13  and  C_14
REMARK    7  A    between atoms: C_16  and  O_22
REMARK    8  A    between atoms: C_17  and  O_21
REMARK                            x       y       z     vdW  Elec       q    Type
REMARK                         _______ _______ _______ _____ _____    ______ ____
ROOT
ATOM      1  N   UNL     1       5.716  -1.826   2.834  0.00  0.00    -0.218 N 
ATOM      2  H   UNL     1       6.550  -2.292   3.000  0.00  0.00    +0.176 HD
ENDROOT
BRANCH   1   3
ATOM      3  C   UNL     1       5.311  -1.601   1.569  0.00  0.00    +0.150 C 
ATOM      4  S   UNL     1       6.268  -2.137   0.255  0.00  0.00    -0.017 S 
BRANCH   3   5
ATOM      5  N   UNL     1       4.152  -0.952   1.338  0.00  0.00    -0.321 N 
ATOM      6  H   UNL     1       3.610  -0.648   2.082  0.00  0.00    +0.148 HD
BRANCH   5   7
ATOM      7  C   UNL     1       3.711  -0.707  -0.038  0.00  0.00    +0.138 C 
BRANCH   7  11
ATOM      8  C   UNL     1      -0.017   1.378   0.010  0.00  0.00    +0.000 A 
ATOM      9  C   UNL     1       1.171   2.086   0.002  0.00  0.00    +0.000 A 
ATOM     10  C   UNL     1       2.377   1.411  -0.013  0.00  0.00    +0.005 A 
ATOM     11  C   UNL     1       2.396   0.029  -0.020  0.00  0.00    -0.030 A 
ATOM     12  C   UNL     1       1.208  -0.679  -0.012  0.00  0.00    +0.005 A 
ATOM     13  C   UNL     1       0.002  -0.004   0.002  0.00  0.00    +0.000 A 
ENDBRANCH   7  11
ENDBRANCH   5   7
ENDBRANCH   3   5
ENDBRANCH   1   3
BRANCH   1  14
ATOM     14  N   UNL     1       4.933  -1.387   3.909  0.00  0.00    -0.188 NA
ATOM     15  C   UNL     1       5.323  -1.604   5.128  0.00  0.00    +0.138 C 
BRANCH  15  16
ATOM     16  C   UNL     1       4.499  -1.142   6.260  0.00  0.00    -0.000 A 
ATOM     17  C   UNL     1       4.920  -1.370   7.572  0.00  0.00    +0.058 A 
ATOM     18  C   UNL     1       4.144  -0.935   8.630  0.00  0.00    +0.160 A 
ATOM     19  C   UNL     1       2.944  -0.271   8.387  0.00  0.00    +0.177 A 
ATOM     20  C   UNL     1       2.524  -0.044   7.083  0.00  0.00    +0.087 A 
ATOM     21  C   UNL     1       3.297  -0.470   6.022  0.00  0.00    +0.033 A 
ATOM     22 CL   UNL     1       1.028   0.784   6.787  0.00  0.00    -0.080 Cl
BRANCH  19  23
ATOM     23  O   UNL     1       2.181   0.155   9.429  0.00  0.00    -0.502 OA
ATOM     24  H   UNL     1       2.389   1.051   9.727  0.00  0.00    +0.292 HD
ENDBRANCH  19  23
BRANCH  18  25
ATOM     25  O   UNL     1       4.552  -1.156   9.909  0.00  0.00    -0.503 OA
ATOM     26  H   UNL     1       5.098  -0.447  10.275  0.00  0.00    +0.292 HD
ENDBRANCH  18  25
ENDBRANCH  15  16
ENDBRANCH   1  14
TORSDOF 8
