REMARK  Name = ZINC38794648
REMARK  14 active torsions:
REMARK  status: ('A' for Active; 'I' for Inactive)
REMARK    1  A    between atoms: C_1  and  C_2
REMARK    2  A    between atoms: C_2  and  C_3
REMARK    3  A    between atoms: C_3  and  O_4
REMARK    4  A    between atoms: O_4  and  C_5
REMARK    5  A    between atoms: C_10  and  C_11
REMARK    6  A    between atoms: C_12  and  C_13
REMARK    7  A    between atoms: N_15  and  C_16
REMARK    8  A    between atoms: C_16  and  C_18
REMARK    9  A    between atoms: C_16  and  C_34
REMARK   10  A    between atoms: C_21  and  S_23
REMARK   11  A    between atoms: S_23  and  C_26
REMARK   12  A    between atoms: C_26  and  C_27
REMARK   13  A    between atoms: C_34  and  C_35
REMARK   14  A    between atoms: C_34  and  C_36
REMARK                            x       y       z     vdW  Elec       q    Type
REMARK                         _______ _______ _______ _____ _____    ______ ____
ROOT
ATOM      1  C   UNL     1       0.909  -9.061  -0.057  0.00  0.00    +0.163 C 
ENDROOT
BRANCH   1   2
ATOM      2  C   UNL     1       0.633 -10.413  -0.662  0.00  0.00    +0.239 A 
ATOM      3  N   UNL     1      -0.386 -11.182  -0.399  0.00  0.00    -0.109 NA
ATOM      4  N   UNL     1      -0.300 -12.259  -1.098  0.00  0.00    -0.090 NA
ATOM      5  C   UNL     1       0.777 -12.214  -1.830  0.00  0.00    +0.361 A 
ATOM      6  O   UNL     1       1.388 -11.045  -1.576  0.00  0.00    -0.405 OA
BRANCH   5   7
ATOM      7  S   UNL     1       1.326 -13.455  -2.953  0.00  0.00    +0.053 S 
ATOM      8  O   UNL     1       2.735 -13.283  -3.024  0.00  0.00    -0.165 OA
ATOM      9  O   UNL     1       0.769 -14.665  -2.458  0.00  0.00    -0.165 OA
BRANCH   7  10
ATOM     10  C   UNL     1       0.563 -13.020  -4.540  0.00  0.00    +0.212 C 
BRANCH  10  11
ATOM     11  C   UNL     1       0.969 -14.026  -5.586  0.00  0.00    -0.026 A 
ATOM     12  C   UNL     1       2.112 -13.819  -6.336  0.00  0.00    +0.008 A 
ATOM     13  C   UNL     1       2.485 -14.741  -7.295  0.00  0.00    +0.038 A 
ATOM     14  C   UNL     1       1.714 -15.872  -7.505  0.00  0.00    +0.123 A 
ATOM     15  C   UNL     1       0.570 -16.078  -6.753  0.00  0.00    +0.038 A 
ATOM     16  C   UNL     1       0.201 -15.157  -5.790  0.00  0.00    +0.008 A 
ATOM     17  F   UNL     1       2.079 -16.774  -8.442  0.00  0.00    -0.205 F 
ENDBRANCH  10  11
ENDBRANCH   7  10
ENDBRANCH   5   7
ENDBRANCH   1   2
BRANCH   1  20
ATOM     18  C   UNL     1      -0.264  -6.925  -0.034  0.00  0.00    +0.238 C 
ATOM     19  O   UNL     1       0.817  -6.365  -0.041  0.00  0.00    -0.271 OA
ATOM     20  N   UNL     1      -0.325  -8.272  -0.040  0.00  0.00    -0.300 N 
ATOM     21  H   UNL     1      -1.186  -8.718  -0.034  0.00  0.00    +0.150 HD
BRANCH  18  23
ATOM     22  C   UNL     1      -1.435  -4.789  -0.011  0.00  0.00    +0.016 C 
ATOM     23  C   UNL     1      -1.496  -6.138  -0.017  0.00  0.00    +0.068 C 
BRANCH  22  29
ATOM     24  C   UNL     1      -2.614  -2.595   0.013  0.00  0.00    +0.128 A 
ATOM     25  C   UNL     1      -3.789  -1.859   0.022  0.00  0.00    +0.046 A 
ATOM     26  C   UNL     1      -5.011  -2.504   0.031  0.00  0.00    +0.004 A 
ATOM     27  C   UNL     1      -5.074  -3.888   0.030  0.00  0.00    +0.001 A 
ATOM     28  C   UNL     1      -3.917  -4.637   0.021  0.00  0.00    +0.011 A 
ATOM     29  C   UNL     1      -2.673  -3.998   0.006  0.00  0.00    +0.017 A 
BRANCH  24  30
ATOM     30  O   UNL     1      -1.414  -1.962   0.005  0.00  0.00    -0.491 OA
BRANCH  30  31
ATOM     31  C   UNL     1      -1.433  -0.534   0.013  0.00  0.00    +0.229 C 
BRANCH  31  33
ATOM     32  C   UNL     1      -0.019   1.526   0.010  0.00  0.00    +0.007 C 
ATOM     33  C   UNL     1       0.002  -0.004   0.002  0.00  0.00    +0.038 C 
ENDBRANCH  31  33
ENDBRANCH  30  31
ENDBRANCH  24  30
ENDBRANCH  22  29
ENDBRANCH  18  23
ENDBRANCH   1  20
BRANCH   1  34
ATOM     34  C   UNL     1       1.421  -9.238   1.374  0.00  0.00    +0.012 C 
ATOM     35  C   UNL     1       2.710 -10.062   1.357  0.00  0.00    +0.009 C 
ATOM     36  C   UNL     1       1.701  -7.865   1.989  0.00  0.00    +0.009 C 
ENDBRANCH   1  34
TORSDOF 11
