REMARK  Name = ZINC35853297
REMARK  9 active torsions:
REMARK  status: ('A' for Active; 'I' for Inactive)
REMARK    1  A    between atoms: C_1  and  C_2
REMARK    2  A    between atoms: C_5  and  N_8
REMARK    3  A    between atoms: N_8  and  C_9
REMARK    4  A    between atoms: N_8  and  S_26
REMARK    5  A    between atoms: N_12  and  C_15
REMARK    6  A    between atoms: C_15  and  C_16
REMARK    7  A    between atoms: C_21  and  C_22
REMARK    8  A    between atoms: S_26  and  C_29
REMARK    9  A    between atoms: C_33  and  C_35
REMARK                            x       y       z     vdW  Elec       q    Type
REMARK                         _______ _______ _______ _____ _____    ______ ____
ROOT
ATOM      1  N   UNL     1       0.101  -5.769   0.237  0.00  0.00    -0.200 N 
ENDROOT
BRANCH   1   6
ATOM      2  C   UNL     1      -0.521  -0.288  -1.079  0.00  0.00    +0.044 C 
ATOM      3  C   UNL     1      -0.356  -1.745  -0.729  0.00  0.00    -0.050 A 
ATOM      4  C   UNL     1       0.556  -2.521  -1.421  0.00  0.00    +0.005 A 
ATOM      5  C   UNL     1       0.710  -3.856  -1.102  0.00  0.00    +0.025 A 
ATOM      6  C   UNL     1      -0.052  -4.419  -0.087  0.00  0.00    +0.052 A 
ATOM      7  C   UNL     1      -0.967  -3.636   0.606  0.00  0.00    +0.025 A 
ATOM      8  C   UNL     1      -1.112  -2.301   0.286  0.00  0.00    +0.005 A 
ENDBRANCH   1   6
BRANCH   1   9
ATOM      9  C   UNL     1       0.783  -6.152   1.476  0.00  0.00    +0.095 C 
ATOM     10  C   UNL     1      -0.008  -5.630   2.679  0.00  0.00    +0.006 C 
ATOM     11  C   UNL     1       0.751  -5.965   3.965  0.00  0.00    -0.077 C 
ATOM     12  N   UNL     1       2.074  -5.331   3.936  0.00  0.00    +0.382 N 
ATOM     13  C   UNL     1       2.865  -5.880   2.827  0.00  0.00    -0.077 C 
ATOM     14  C   UNL     1       2.187  -5.542   1.497  0.00  0.00    +0.006 C 
ATOM     15  H   UNL     1       1.967  -4.336   3.811  0.00  0.00    -0.081 HD
BRANCH  12  16
ATOM     16  C   UNL     1       2.768  -5.590   5.205  0.00  0.00    -0.042 C 
BRANCH  16  17
ATOM     17  C   UNL     1       4.053  -4.804   5.244  0.00  0.00    -0.052 A 
ATOM     18  C   UNL     1       5.245  -5.409   4.892  0.00  0.00    +0.002 A 
ATOM     19  C   UNL     1       6.423  -4.688   4.929  0.00  0.00    +0.000 A 
ATOM     20  C   UNL     1       6.410  -3.361   5.317  0.00  0.00    +0.001 A 
ATOM     21  C   UNL     1       5.218  -2.756   5.668  0.00  0.00    +0.012 A 
ATOM     22  C   UNL     1       4.038  -3.476   5.628  0.00  0.00    +0.056 A 
BRANCH  22  23
ATOM     23  C   UNL     1       2.738  -2.814   6.006  0.00  0.00    +0.418 C 
ATOM     24  F   UNL     1       2.991  -1.519   6.469  0.00  0.00    -0.166 F 
ATOM     25  F   UNL     1       1.903  -2.754   4.885  0.00  0.00    -0.166 F 
ATOM     26  F   UNL     1       2.113  -3.557   7.013  0.00  0.00    -0.166 F 
ENDBRANCH  22  23
ENDBRANCH  16  17
ENDBRANCH  12  16
ENDBRANCH   1   9
BRANCH   1  27
ATOM     27  S   UNL     1      -0.489  -6.936  -0.778  0.00  0.00    +0.075 S 
ATOM     28  O   UNL     1      -0.837  -8.047   0.037  0.00  0.00    -0.150 OA
ATOM     29  O   UNL     1      -1.426  -6.295  -1.633  0.00  0.00    -0.150 OA
BRANCH  27  30
ATOM     30  C   UNL     1       0.847  -7.461  -1.800  0.00  0.00    +0.109 A 
ATOM     31  C   UNL     1       1.091  -6.822  -3.002  0.00  0.00    +0.029 A 
ATOM     32  C   UNL     1       2.139  -7.233  -3.803  0.00  0.00    +0.002 A 
ATOM     33  C   UNL     1       2.943  -8.284  -3.404  0.00  0.00    +0.003 A 
ATOM     34  C   UNL     1       2.700  -8.923  -2.203  0.00  0.00    -0.049 A 
ATOM     35  C   UNL     1       1.654  -8.508  -1.399  0.00  0.00    +0.032 A 
ATOM     36  C   UNL     1       3.577 -10.069  -1.767  0.00  0.00    +0.044 C 
ENDBRANCH  27  30
ENDBRANCH   1  27
TORSDOF 7
