REMARK  Name = ZINC35328423
REMARK  3 active torsions:
REMARK  status: ('A' for Active; 'I' for Inactive)
REMARK    1  A    between atoms: C_6  and  C_7
REMARK    2  A    between atoms: C_7  and  N_8
REMARK    3  A    between atoms: C_14  and  N_19
REMARK                            x       y       z     vdW  Elec       q    Type
REMARK                         _______ _______ _______ _____ _____    ______ ____
ROOT
ATOM      1  N   UNL     1      -1.726  -1.017  -1.368  0.00  0.00    -0.294 N 
ATOM      2  C   UNL     1      -2.525  -0.111  -1.992  0.00  0.00    +0.203 A 
ATOM      3  N   UNL     1      -2.950  -0.254  -3.210  0.00  0.00    -0.237 NA
ATOM      4  C   UNL     1      -2.620  -1.338  -3.957  0.00  0.00    +0.078 A 
ATOM      5  C   UNL     1      -3.077  -1.490  -5.268  0.00  0.00    +0.030 A 
ATOM      6  C   UNL     1      -2.723  -2.595  -5.988  0.00  0.00    +0.025 A 
ATOM      7  C   UNL     1      -1.907  -3.581  -5.434  0.00  0.00    +0.025 A 
ATOM      8  C   UNL     1      -1.440  -3.455  -4.136  0.00  0.00    +0.038 A 
ATOM      9  C   UNL     1      -1.792  -2.333  -3.390  0.00  0.00    +0.067 A 
ATOM     10  C   UNL     1      -1.323  -2.138  -2.010  0.00  0.00    +0.262 A 
ATOM     11  O   UNL     1      -0.604  -2.956  -1.465  0.00  0.00    -0.267 OA
ENDROOT
BRANCH   7  12
ATOM     12  N   UNL     1      -1.560  -4.702  -6.192  0.00  0.00    -0.358 N 
ATOM     13  H   UNL     1      -1.886  -4.794  -7.101  0.00  0.00    +0.142 HD
ATOM     14  H   UNL     1      -0.992  -5.390  -5.809  0.00  0.00    +0.142 HD
ENDBRANCH   7  12
BRANCH   1  15
ATOM     15  C   UNL     1      -1.293  -0.775   0.011  0.00  0.00    +0.161 C 
BRANCH  15  21
ATOM     16  C   UNL     1      -0.017   1.378   0.010  0.00  0.00    +0.007 A 
ATOM     17  C   UNL     1       1.171   2.086   0.002  0.00  0.00    +0.022 A 
ATOM     18  C   UNL     1       2.378   1.412  -0.013  0.00  0.00    +0.059 A 
ATOM     19  C   UNL     1       2.397   0.027  -0.021  0.00  0.00    +0.060 A 
ATOM     20  C   UNL     1       1.208  -0.680  -0.013  0.00  0.00    +0.026 A 
ATOM     21  C   UNL     1       0.002  -0.004   0.002  0.00  0.00    -0.026 A 
ATOM     22 CL   UNL     1       3.912  -0.821  -0.040  0.00  0.00    -0.082 Cl
ATOM     23 CL   UNL     1       3.869   2.301  -0.023  0.00  0.00    -0.082 Cl
ENDBRANCH  15  21
ENDBRANCH   1  15
TORSDOF 3
