REMARK  Name = ZINC03312238
REMARK  8 active torsions:
REMARK  status: ('A' for Active; 'I' for Inactive)
REMARK    1  A    between atoms: N_10  and  S_11
REMARK    2  A    between atoms: S_11  and  C_14
REMARK    3  A    between atoms: C_18  and  C_20
REMARK    4  A    between atoms: C_20  and  O_22
REMARK    5  A    between atoms: O_22  and  C_23
REMARK    6  A    between atoms: C_23  and  C_24
REMARK    7  A    between atoms: N_26  and  C_27
REMARK    8  A    between atoms: C_27  and  C_28
REMARK                            x       y       z     vdW  Elec       q    Type
REMARK                         _______ _______ _______ _____ _____    ______ ____
ROOT
ATOM      1  C   UNL     1      14.349  -2.777   0.332  0.00  0.00    +0.109 A 
ATOM      2  C   UNL     1      14.619  -2.508   1.662  0.00  0.00    +0.029 A 
ATOM      3  C   UNL     1      13.602  -2.122   2.517  0.00  0.00    +0.003 A 
ATOM      4  C   UNL     1      12.311  -1.997   2.046  0.00  0.00    +0.015 A 
ATOM      5  C   UNL     1      12.031  -2.272   0.706  0.00  0.00    +0.061 A 
ATOM      6  C   UNL     1      13.062  -2.661  -0.151  0.00  0.00    +0.043 A 
ENDROOT
BRANCH   1   7
ATOM      7  S   UNL     1      15.652  -3.268  -0.748  0.00  0.00    +0.075 S 
ATOM      8  O   UNL     1      16.668  -3.830   0.071  0.00  0.00    -0.150 OA
ATOM      9  O   UNL     1      15.047  -3.989  -1.813  0.00  0.00    -0.150 OA
BRANCH   7  19
ATOM     10  C   UNL     1      19.214   0.242   0.648  0.00  0.00    +0.000 A 
ATOM     11  C   UNL     1      18.485  -0.739   1.296  0.00  0.00    +0.002 A 
ATOM     12  C   UNL     1      17.514  -1.441   0.610  0.00  0.00    +0.025 A 
ATOM     13  C   UNL     1      17.271  -1.163  -0.731  0.00  0.00    +0.054 A 
ATOM     14  C   UNL     1      18.001  -0.179  -1.379  0.00  0.00    -0.025 A 
ATOM     15  C   UNL     1      18.973   0.520  -0.683  0.00  0.00    +0.005 A 
ATOM     16  C   UNL     1      17.762   0.153  -2.828  0.00  0.00    +0.038 C 
ATOM     17  C   UNL     1      17.060  -1.007  -3.534  0.00  0.00    +0.025 C 
ATOM     18  C   UNL     1      15.828  -1.412  -2.721  0.00  0.00    +0.132 C 
ATOM     19  N   UNL     1      16.286  -1.889  -1.410  0.00  0.00    -0.203 N 
ENDBRANCH   7  19
ENDBRANCH   1   7
BRANCH   5  20
ATOM     20  C   UNL     1      10.650  -2.145   0.196  0.00  0.00    +0.340 C 
ATOM     21  O   UNL     1      10.410  -2.380  -0.972  0.00  0.00    -0.245 OA
BRANCH  20  22
ATOM     22  O   UNL     1       9.657  -1.769   1.025  0.00  0.00    -0.452 OA
BRANCH  22  23
ATOM     23  C   UNL     1       8.326  -1.665   0.455  0.00  0.00    +0.328 C 
BRANCH  23  24
ATOM     24  C   UNL     1       7.354  -1.236   1.524  0.00  0.00    +0.251 C 
ATOM     25  O   UNL     1       7.745  -1.037   2.655  0.00  0.00    -0.272 OA
ATOM     26  N   UNL     1       6.050  -1.073   1.224  0.00  0.00    -0.308 N 
ATOM     27  H   UNL     1       5.738  -1.232   0.319  0.00  0.00    +0.149 HD
BRANCH  26  28
ATOM     28  C   UNL     1       5.106  -0.656   2.263  0.00  0.00    +0.139 C 
BRANCH  28  29
ATOM     29  C   UNL     1       3.724  -0.549   1.671  0.00  0.00    -0.027 A 
ATOM     30  C   UNL     1       2.885  -1.648   1.674  0.00  0.00    +0.009 A 
ATOM     31  C   UNL     1       1.617  -1.554   1.132  0.00  0.00    +0.050 A 
ATOM     32  C   UNL     1       1.183  -0.357   0.585  0.00  0.00    +0.166 A 
ATOM     33  C   UNL     1       2.028   0.750   0.583  0.00  0.00    +0.167 A 
ATOM     34  C   UNL     1       3.297   0.649   1.127  0.00  0.00    +0.054 A 
ATOM     35  O   UNL     1       1.376   1.795  -0.005  0.00  0.00    -0.453 OA
ATOM     36  C   UNL     1      -0.018   1.434   0.006  0.00  0.00    +0.466 C 
ATOM     37  O   UNL     1       0.002  -0.006  -0.002  0.00  0.00    -0.453 OA
ENDBRANCH  28  29
ENDBRANCH  26  28
ENDBRANCH  23  24
ENDBRANCH  22  23
ENDBRANCH  20  22
ENDBRANCH   5  20
TORSDOF 8
