REMARK  Name = ZINC21548281
REMARK  10 active torsions:
REMARK  status: ('A' for Active; 'I' for Inactive)
REMARK    1  A    between atoms: C_1  and  C_2
REMARK    2  A    between atoms: C_2  and  C_3
REMARK    3  A    between atoms: C_3  and  C_4
REMARK    4  A    between atoms: C_4  and  N_5
REMARK    5  A    between atoms: C_9  and  S_28
REMARK    6  A    between atoms: C_13  and  C_14
REMARK    7  A    between atoms: C_14  and  S_15
REMARK    8  A    between atoms: S_15  and  C_16
REMARK    9  A    between atoms: C_19  and  C_21
REMARK   10  A    between atoms: S_28  and  N_31
REMARK                            x       y       z     vdW  Elec       q    Type
REMARK                         _______ _______ _______ _____ _____    ______ ____
ROOT
ATOM      1  N   UNL     1      -2.111  -2.609   1.123  0.00  0.00    -0.327 N 
ATOM      2  C   UNL     1      -2.314  -3.907   0.700  0.00  0.00    +0.069 A 
ATOM      3  C   UNL     1      -2.494  -5.120   1.351  0.00  0.00    +0.030 A 
ATOM      4  C   UNL     1      -2.678  -6.270   0.614  0.00  0.00    +0.030 A 
ATOM      5  C   UNL     1      -2.686  -6.223  -0.773  0.00  0.00    +0.107 A 
ATOM      6  C   UNL     1      -2.511  -5.038  -1.431  0.00  0.00    +0.058 A 
ATOM      7  C   UNL     1      -2.322  -3.860  -0.705  0.00  0.00    +0.091 A 
ATOM      8  N   UNL     1      -2.132  -2.562  -1.058  0.00  0.00    -0.231 NA
ATOM      9  C   UNL     1      -2.004  -1.832   0.011  0.00  0.00    +0.121 A 
ENDROOT
BRANCH   5  10
ATOM     10  S   UNL     1      -2.923  -7.706  -1.694  0.00  0.00    +0.056 S 
ATOM     11  O   UNL     1      -2.346  -7.486  -2.974  0.00  0.00    -0.153 OA
ATOM     12  O   UNL     1      -2.521  -8.777  -0.851  0.00  0.00    -0.153 OA
BRANCH  10  13
ATOM     13  N   UNL     1      -4.553  -7.878  -1.933  0.00  0.00    -0.204 NA
ATOM     14  H   UNL     1      -4.744  -8.796  -2.508  0.00  0.00    +0.144 HD
ATOM     15  H   UNL     1      -4.935  -7.010  -2.491  0.00  0.00    +0.144 HD
ENDBRANCH  10  13
ENDBRANCH   5  10
BRANCH   1  16
ATOM     16  C   UNL     1      -2.026  -2.152   2.513  0.00  0.00    +0.123 C 
BRANCH  16  17
ATOM     17  C   UNL     1      -3.423  -1.774   3.011  0.00  0.00    +0.021 C 
BRANCH  17  19
ATOM     18  C   UNL     1      -4.731  -0.919   4.961  0.00  0.00    +0.004 C 
ATOM     19  C   UNL     1      -3.334  -1.297   4.462  0.00  0.00    -0.002 C 
ENDBRANCH  17  19
ENDBRANCH  16  17
ENDBRANCH   1  16
BRANCH   9  20
ATOM     20  C   UNL     1      -1.776  -0.343   0.017  0.00  0.00    +0.153 C 
BRANCH  20  21
ATOM     21  S   UNL     1       0.002  -0.004   0.002  0.00  0.00    -0.058 S 
BRANCH  21  22
ATOM     22  C   UNL     1      -0.022   1.758   0.012  0.00  0.00    +0.278 A 
ATOM     23  N   UNL     1      -1.091   2.520   0.020  0.00  0.00    -0.101 NA
ATOM     24  N   UNL     1      -0.735   3.757   0.029  0.00  0.00    -0.106 NA
ATOM     25  C   UNL     1       0.574   3.833   0.017  0.00  0.00    +0.249 A 
ATOM     26  O   UNL     1       1.053   2.569   0.006  0.00  0.00    -0.411 OA
BRANCH  25  27
ATOM     27  C   UNL     1       1.377   5.073   0.015  0.00  0.00    +0.040 A 
ATOM     28  C   UNL     1       2.772   5.005   0.006  0.00  0.00    +0.013 A 
ATOM     29  C   UNL     1       3.517   6.166  -0.001  0.00  0.00    +0.002 A 
ATOM     30  C   UNL     1       2.885   7.397   0.011  0.00  0.00    +0.020 A 
ATOM     31  C   UNL     1       1.503   7.472   0.025  0.00  0.00    +0.042 A 
ATOM     32  C   UNL     1       0.746   6.318   0.027  0.00  0.00    +0.033 A 
ATOM     33 CL   UNL     1       0.720   9.022   0.040  0.00  0.00    -0.084 Cl
ENDBRANCH  25  27
ENDBRANCH  21  22
ENDBRANCH  20  21
ENDBRANCH   9  20
TORSDOF 9
