REMARK  Name = ZINC42068747
REMARK  5 active torsions:
REMARK  status: ('A' for Active; 'I' for Inactive)
REMARK    1  A    between atoms: C_1  and  C_2
REMARK    2  A    between atoms: C_4  and  C_20
REMARK    3  A    between atoms: C_8  and  N_19
REMARK    4  A    between atoms: N_12  and  C_13
REMARK    5  A    between atoms: C_13  and  C_14
REMARK                            x       y       z     vdW  Elec       q    Type
REMARK                         _______ _______ _______ _____ _____    ______ ____
ROOT
ATOM      1  C   UNL     1       0.629   1.453   0.206  0.00  0.00    +0.044 C 
ATOM      2  C   UNL     1       0.576  -0.052   0.164  0.00  0.00    -0.050 A 
ATOM      3  C   UNL     1       0.631  -0.715  -1.049  0.00  0.00    +0.008 A 
ATOM      4  C   UNL     1       0.583  -2.093  -1.094  0.00  0.00    -0.028 A 
ATOM      5  C   UNL     1       0.478  -2.828   0.085  0.00  0.00    +0.045 A 
ATOM      6  C   UNL     1       0.423  -2.151   1.297  0.00  0.00    +0.000 A 
ATOM      7  C   UNL     1       0.477  -0.776   1.339  0.00  0.00    +0.011 A 
ATOM      8  C   UNL     1       0.313  -3.209   2.370  0.00  0.00    +0.171 C 
ATOM      9  C   UNL     1       0.315  -4.514   1.603  0.00  0.00    +0.241 C 
ATOM     10  O   UNL     1       0.242  -5.628   2.076  0.00  0.00    -0.273 OA
ATOM     11  N   UNL     1       0.412  -4.205   0.299  0.00  0.00    -0.265 N 
ATOM     12  C   UNL     1       0.643  -2.804  -2.421  0.00  0.00    +0.046 C 
ENDROOT
BRANCH   8  13
ATOM     13  N   UNL     1       1.465  -3.142   3.280  0.00  0.00    -0.316 NA
ATOM     14  H   UNL     1       1.398  -3.846   4.000  0.00  0.00    +0.119 HD
ATOM     15  H   UNL     1       2.332  -3.225   2.771  0.00  0.00    +0.119 HD
ENDBRANCH   8  13
BRANCH  11  16
ATOM     16  C   UNL     1       0.446  -5.201  -0.776  0.00  0.00    +0.149 C 
BRANCH  16  17
ATOM     17  C   UNL     1      -0.959  -5.647  -1.091  0.00  0.00    -0.023 A 
ATOM     18  C   UNL     1      -1.568  -6.630  -0.334  0.00  0.00    +0.013 A 
ATOM     19  C   UNL     1      -2.832  -7.009  -0.644  0.00  0.00    +0.045 A 
ATOM     20  S   UNL     1      -3.199  -5.963  -2.043  0.00  0.00    -0.105 S 
ATOM     21  C   UNL     1      -1.645  -5.088  -2.117  0.00  0.00    +0.050 A 
ENDBRANCH  16  17
ENDBRANCH  11  16
TORSDOF 3
