REMARK  Name = ZINC40486932
REMARK  3 active torsions:
REMARK  status: ('A' for Active; 'I' for Inactive)
REMARK    1  A    between atoms: C_9  and  C_12
REMARK    2  A    between atoms: C_16  and  O_24
REMARK    3  A    between atoms: C_19  and  C_21
REMARK                            x       y       z     vdW  Elec       q    Type
REMARK                         _______ _______ _______ _____ _____    ______ ____
ROOT
ATOM      1  C   UNL     1       4.963  -2.592   0.044  0.00  0.00    +0.259 C 
ATOM      2  O   UNL     1       5.783  -1.954  -0.582  0.00  0.00    -0.271 OA
ATOM      3  N   UNL     1       5.245  -3.851   0.435  0.00  0.00    -0.282 N 
ATOM      4  C   UNL     1       4.343  -4.738   1.191  0.00  0.00    +0.140 C 
ATOM      5  C   UNL     1       5.281  -5.743   1.905  0.00  0.00    +0.134 C 
ATOM      6  C   UNL     1       6.380  -5.960   0.831  0.00  0.00    +0.067 C 
ATOM      7  C   UNL     1       6.501  -4.569   0.173  0.00  0.00    +0.192 C 
ENDROOT
BRANCH   1  16
ATOM      8  C   UNL     1      -0.017   1.379   0.010  0.00  0.00    +0.002 A 
ATOM      9  C   UNL     1       1.170   2.087   0.002  0.00  0.00    +0.004 A 
ATOM     10  C   UNL     1       2.381   1.420  -0.015  0.00  0.00    +0.047 A 
ATOM     11  C   UNL     1       2.410   0.034  -0.023  0.00  0.00    +0.142 A 
ATOM     12  C   UNL     1       1.213  -0.678  -0.013  0.00  0.00    +0.070 A 
ATOM     13  C   UNL     1       0.002  -0.004   0.002  0.00  0.00    +0.026 A 
ATOM     14  N   UNL     1       1.237  -2.082  -0.014  0.00  0.00    -0.337 N 
ATOM     15  C   UNL     1       2.512  -2.744  -0.339  0.00  0.00    +0.155 C 
ATOM     16  C   UNL     1       3.630  -1.978   0.383  0.00  0.00    +0.276 C 
ATOM     17  O   UNL     1       3.604  -0.614  -0.044  0.00  0.00    -0.476 OA
ATOM     18  H   UNL     1       0.442  -2.597   0.193  0.00  0.00    +0.146 HD
ENDBRANCH   1  16
BRANCH   7  19
ATOM     19  C   UNL     1       6.705  -4.718  -1.313  0.00  0.00    +0.376 C 
ATOM     20  O   UNL     1       7.772  -5.122  -1.744  0.00  0.00    -0.244 OA
ATOM     21  O   UNL     1       5.804  -4.435  -2.084  0.00  0.00    -0.244 OA
ENDBRANCH   7  19
BRANCH   5  22
ATOM     22  O   UNL     1       4.598  -6.965   2.193  0.00  0.00    -0.390 OA
ATOM     23  H   UNL     1       3.840  -6.862   2.785  0.00  0.00    +0.210 HD
ENDBRANCH   5  22
TORSDOF 3
