REMARK  Name = ZINC23779752
REMARK  6 active torsions:
REMARK  status: ('A' for Active; 'I' for Inactive)
REMARK    1  A    between atoms: C_1  and  C_2
REMARK    2  A    between atoms: C_5  and  N_8
REMARK    3  A    between atoms: C_9  and  C_11
REMARK    4  A    between atoms: C_12  and  C_29
REMARK    5  A    between atoms: C_17  and  C_19
REMARK    6  A    between atoms: C_23  and  N_25
REMARK                            x       y       z     vdW  Elec       q    Type
REMARK                         _______ _______ _______ _____ _____    ______ ____
ROOT
ATOM      1  C   UNL     1      -0.862   2.386   1.057  0.00  0.00    +0.056 C 
ATOM      2  C   UNL     1      -1.782   1.482   0.660  0.00  0.00    +0.017 C 
ATOM      3  N   UNL     1      -2.309   0.580   1.539  0.00  0.00    -0.300 N 
ATOM      4  C   UNL     1      -1.971   0.520   2.833  0.00  0.00    +0.135 C 
ATOM      5  S   UNL     1      -2.708  -0.663   3.828  0.00  0.00    -0.019 S 
ATOM      6  N   UNL     1      -1.069   1.360   3.379  0.00  0.00    -0.315 N 
ATOM      7  C   UNL     1      -0.442   2.373   2.513  0.00  0.00    +0.139 C 
ATOM      8  C   UNL     1      -2.231   1.465  -0.778  0.00  0.00    +0.061 C 
ATOM      9  H   UNL     1      -3.055  -0.151   1.196  0.00  0.00    +0.154 HD
ATOM     10  H   UNL     1      -0.798   1.302   4.443  0.00  0.00    +0.149 HD
ENDROOT
BRANCH   7  11
ATOM     11  C   UNL     1      -0.734   3.730   3.098  0.00  0.00    -0.020 A 
ATOM     12  C   UNL     1      -2.019   4.047   3.500  0.00  0.00    +0.007 A 
ATOM     13  C   UNL     1      -2.288   5.291   4.037  0.00  0.00    +0.022 A 
ATOM     14  C   UNL     1      -1.272   6.221   4.172  0.00  0.00    +0.071 A 
ATOM     15  C   UNL     1       0.013   5.903   3.770  0.00  0.00    +0.145 A 
ATOM     16  C   UNL     1       0.282   4.656   3.238  0.00  0.00    +0.040 A 
ATOM     17 CL   UNL     1      -1.609   7.785   4.846  0.00  0.00    -0.081 Cl
BRANCH  15  18
ATOM     18  N   UNL     1       1.101   6.896   3.915  0.00  0.00    +0.058 N 
ATOM     19  O   UNL     1       2.232   6.617   3.560  0.00  0.00    -0.126 OA
ATOM     20  O   UNL     1       0.865   7.994   4.388  0.00  0.00    -0.126 OA
ENDBRANCH  15  18
ENDBRANCH   7  11
BRANCH   1  22
ATOM     21  N   UNL     1      -1.121   4.130  -0.563  0.00  0.00    -0.282 N 
ATOM     22  C   UNL     1      -0.310   3.319   0.145  0.00  0.00    +0.248 C 
ATOM     23  O   UNL     1       0.897   3.388  -0.001  0.00  0.00    -0.270 OA
ATOM     24  H   UNL     1      -2.202   4.140  -0.359  0.00  0.00    +0.155 HD
BRANCH  21  29
ATOM     25  C   UNL     1       1.038   7.489  -4.591  0.00  0.00    +0.044 C 
ATOM     26  C   UNL     1       0.464   6.596  -3.521  0.00  0.00    -0.050 A 
ATOM     27  C   UNL     1      -0.794   6.046  -3.683  0.00  0.00    +0.005 A 
ATOM     28  C   UNL     1      -1.323   5.228  -2.704  0.00  0.00    +0.023 A 
ATOM     29  C   UNL     1      -0.589   4.958  -1.556  0.00  0.00    +0.034 A 
ATOM     30  C   UNL     1       0.672   5.517  -1.394  0.00  0.00    +0.023 A 
ATOM     31  C   UNL     1       1.197   6.330  -2.379  0.00  0.00    +0.005 A 
ENDBRANCH  21  29
ENDBRANCH   1  22
TORSDOF 4
