REMARK  Name = ZINC01677923
REMARK  5 active torsions:
REMARK  status: ('A' for Active; 'I' for Inactive)
REMARK    1  A    between atoms: C_1  and  C_2
REMARK    2  A    between atoms: C_5  and  C_10
REMARK    3  A    between atoms: C_7  and  C_8
REMARK    4  A    between atoms: C_7  and  C_9
REMARK    5  A    between atoms: C_10  and  C_12
REMARK                            x       y       z     vdW  Elec       q    Type
REMARK                         _______ _______ _______ _____ _____    ______ ____
ROOT
ATOM      1  C   UNL     1      -1.530   3.458  -0.288  0.00  0.00    +0.008 C 
ATOM      2  C   UNL     1      -1.255   3.020   1.151  0.00  0.00    -0.007 C 
ATOM      3  C   UNL     1      -2.510   2.537   1.899  0.00  0.00    +0.015 C 
ATOM      4  C   UNL     1      -2.197   1.131   1.356  0.00  0.00    +0.061 C 
ATOM      5  C   UNL     1      -0.729   1.579   1.267  0.00  0.00    -0.023 C 
ATOM      6  C   UNL     1      -0.013   1.086   0.008  0.00  0.00    +0.012 C 
ATOM      7  C   UNL     1       0.070   1.319   2.545  0.00  0.00    +0.012 C 
ENDROOT
BRANCH   4   8
ATOM      8  C   UNL     1      -2.432   0.030   2.358  0.00  0.00    +0.134 C 
ATOM      9  O   UNL     1      -1.731  -0.055   3.337  0.00  0.00    -0.297 OA
ATOM     10  C   UNL     1      -3.543  -0.965   2.137  0.00  0.00    +0.086 C 
ENDBRANCH   4   8
TORSDOF 1
