REMARK  Name = ZINC20412402
REMARK  10 active torsions:
REMARK  status: ('A' for Active; 'I' for Inactive)
REMARK    1  A    between atoms: C_1  and  C_2
REMARK    2  A    between atoms: C_2  and  C_3
REMARK    3  A    between atoms: C_2  and  C_4
REMARK    4  A    between atoms: C_2  and  C_5
REMARK    5  A    between atoms: C_8  and  O_11
REMARK    6  A    between atoms: O_11  and  C_12
REMARK    7  A    between atoms: C_12  and  C_13
REMARK    8  A    between atoms: C_21  and  C_25
REMARK    9  A    between atoms: C_25  and  O_27
REMARK   10  A    between atoms: O_27  and  C_28
REMARK                            x       y       z     vdW  Elec       q    Type
REMARK                         _______ _______ _______ _____ _____    ______ ____
ROOT
ATOM      1  C   UNL     1       1.249  -9.046   1.857  0.00  0.00    +0.256 C 
ATOM      2  O   UNL     1       0.649  -8.735   0.850  0.00  0.00    -0.272 OA
ATOM      3  N   UNL     1       1.721  -8.090   2.682  0.00  0.00    -0.262 N 
ATOM      4  C   UNL     1       1.520  -6.755   2.380  0.00  0.00    +0.166 A 
ATOM      5  N   UNL     1       0.902  -6.226   1.348  0.00  0.00    -0.225 NA
ATOM      6  C   UNL     1       0.779  -4.901   1.177  0.00  0.00    +0.080 A 
ATOM      7  C   UNL     1       0.139  -4.215   0.113  0.00  0.00    +0.030 A 
ATOM      8  C   UNL     1       0.096  -2.861   0.080  0.00  0.00    +0.017 A 
ATOM      9  C   UNL     1       0.680  -2.084   1.091  0.00  0.00    +0.060 A 
ATOM     10  C   UNL     1       1.324  -2.728   2.154  0.00  0.00    +0.032 A 
ATOM     11  C   UNL     1       1.361  -4.094   2.186  0.00  0.00    +0.042 A 
ATOM     12  S   UNL     1       2.036  -5.308   3.295  0.00  0.00    -0.052 S 
ATOM     13  H   UNL     1       2.265  -8.372   3.595  0.00  0.00    +0.157 HD
ENDROOT
BRANCH   9  14
ATOM     14  C   UNL     1       0.621  -0.613   1.033  0.00  0.00    +0.339 C 
ATOM     15  O   UNL     1       1.130   0.051   1.914  0.00  0.00    -0.245 OA
BRANCH  14  16
ATOM     16  O   UNL     1       0.002  -0.004   0.002  0.00  0.00    -0.464 OA
ATOM     17  C   UNL     1      -0.018   1.448   0.010  0.00  0.00    +0.280 C 
ENDBRANCH  14  16
ENDBRANCH   9  14
BRANCH   1  18
ATOM     18  C   UNL     1       1.468 -10.500   2.185  0.00  0.00    +0.324 C 
BRANCH  18  19
ATOM     19  O   UNL     1       0.880 -11.312   1.167  0.00  0.00    -0.483 OA
BRANCH  19  23
ATOM     20  C   UNL     1       1.209 -15.400   1.609  0.00  0.00    -0.042 A 
ATOM     21  C   UNL     1       0.552 -14.875   0.511  0.00  0.00    +0.008 A 
ATOM     22  C   UNL     1       0.441 -13.507   0.361  0.00  0.00    +0.046 A 
ATOM     23  C   UNL     1       0.988 -12.659   1.312  0.00  0.00    +0.121 A 
ATOM     24  C   UNL     1       1.652 -13.188   2.410  0.00  0.00    +0.046 A 
ATOM     25  C   UNL     1       1.756 -14.557   2.559  0.00  0.00    +0.008 A 
BRANCH  20  27
ATOM     26  C   UNL     1       2.083 -17.477   0.573  0.00  0.00    +0.015 C 
ATOM     27  C   UNL     1       1.329 -16.894   1.770  0.00  0.00    -0.013 C 
ATOM     28  C   UNL     1       2.095 -17.208   3.057  0.00  0.00    +0.015 C 
ATOM     29  C   UNL     1      -0.068 -17.513   1.844  0.00  0.00    +0.015 C 
ENDBRANCH  20  27
ENDBRANCH  19  23
ENDBRANCH  18  19
ENDBRANCH   1  18
TORSDOF 6
