REMARK  Name = ZINC04150548
REMARK  12 active torsions:
REMARK  status: ('A' for Active; 'I' for Inactive)
REMARK    1  A    between atoms: N_7  and  C_15
REMARK    2  A    between atoms: C_15  and  C_16
REMARK    3  A    between atoms: C_16  and  C_18
REMARK    4  A    between atoms: C_16  and  O_27
REMARK    5  A    between atoms: C_18  and  N_19
REMARK    6  A    between atoms: N_19  and  C_20
REMARK    7  A    between atoms: C_20  and  C_21
REMARK    8  A    between atoms: C_20  and  C_23
REMARK    9  A    between atoms: C_20  and  C_25
REMARK   10  A    between atoms: C_21  and  O_22
REMARK   11  A    between atoms: C_23  and  O_24
REMARK   12  A    between atoms: C_25  and  O_26
REMARK                            x       y       z     vdW  Elec       q    Type
REMARK                         _______ _______ _______ _____ _____    ______ ____
ROOT
ATOM      1  C   UNL     1       0.744  -3.042  -2.210  0.00  0.00    +0.115 C 
ENDROOT
BRANCH   1   2
ATOM      2  O   UNL     1       1.004  -1.783  -2.835  0.00  0.00    -0.392 OA
ATOM      3  H   UNL     1       0.229  -1.210  -2.903  0.00  0.00    +0.210 HD
ENDBRANCH   1   2
BRANCH   1   4
ATOM      4  C   UNL     1       0.229  -2.808  -0.788  0.00  0.00    +0.140 C 
BRANCH   4  11
ATOM      5  C   UNL     1      -0.017   1.379   0.010  0.00  0.00    +0.002 A 
ATOM      6  C   UNL     1       1.165   2.096   0.002  0.00  0.00    +0.001 A 
ATOM      7  C   UNL     1       2.380   1.430  -0.013  0.00  0.00    +0.017 A 
ATOM      8  C   UNL     1       2.404   0.049  -0.021  0.00  0.00    +0.034 A 
ATOM      9  C   UNL     1       1.212  -0.680  -0.013  0.00  0.00    +0.048 A 
ATOM     10  C   UNL     1       0.002  -0.004   0.002  0.00  0.00    +0.024 A 
ATOM     11  N   UNL     1       1.239  -2.079  -0.017  0.00  0.00    -0.296 N 
ATOM     12  C   UNL     1       2.202  -2.802   0.695  0.00  0.00    +0.048 A 
ATOM     13  C   UNL     1       1.860  -3.986   1.330  0.00  0.00    +0.024 A 
ATOM     14  C   UNL     1       2.817  -4.695   2.034  0.00  0.00    +0.002 A 
ATOM     15  C   UNL     1       4.117  -4.232   2.109  0.00  0.00    +0.001 A 
ATOM     16  C   UNL     1       4.470  -3.050   1.478  0.00  0.00    +0.017 A 
ATOM     17  C   UNL     1       3.517  -2.338   0.775  0.00  0.00    +0.034 A 
ATOM     18  S   UNL     1       3.936  -0.828  -0.040  0.00  0.00    -0.086 S 
ENDBRANCH   4  11
ENDBRANCH   1   4
BRANCH   1  19
ATOM     19  C   UNL     1      -0.311  -3.802  -3.016  0.00  0.00    -0.048 C 
BRANCH  19  20
ATOM     20  N   UNL     1       0.229  -4.132  -4.342  0.00  0.00    +0.389 N 
ATOM     21  H   UNL     1       0.473  -3.281  -4.826  0.00  0.00    -0.085 HD
ATOM     22  H   UNL     1       1.052  -4.707  -4.237  0.00  0.00    -0.085 HD
BRANCH  20  23
ATOM     23  C   UNL     1      -0.783  -4.862  -5.116  0.00  0.00    +0.002 C 
BRANCH  23  24
ATOM     24  C   UNL     1      -1.154  -6.152  -4.381  0.00  0.00    +0.148 C 
BRANCH  24  25
ATOM     25  O   UNL     1       0.029  -6.913  -4.129  0.00  0.00    -0.396 OA
ATOM     26  H   UNL     1      -0.131  -7.746  -3.665  0.00  0.00    +0.209 HD
ENDBRANCH  24  25
ENDBRANCH  23  24
BRANCH  23  27
ATOM     27  C   UNL     1      -2.030  -3.990  -5.275  0.00  0.00    +0.148 C 
BRANCH  27  28
ATOM     28  O   UNL     1      -1.685  -2.785  -5.961  0.00  0.00    -0.396 OA
ATOM     29  H   UNL     1      -2.429  -2.183  -6.098  0.00  0.00    +0.209 HD
ENDBRANCH  27  28
ENDBRANCH  23  27
BRANCH  23  30
ATOM     30  C   UNL     1      -0.221  -5.205  -6.496  0.00  0.00    +0.148 C 
BRANCH  30  31
ATOM     31  O   UNL     1      -1.206  -5.916  -7.249  0.00  0.00    -0.396 OA
ATOM     32  H   UNL     1      -0.917  -6.166  -8.137  0.00  0.00    +0.209 HD
ENDBRANCH  30  31
ENDBRANCH  23  30
ENDBRANCH  20  23
ENDBRANCH  19  20
ENDBRANCH   1  19
TORSDOF 12
