REMARK  Name = ZINC10066266
REMARK  18 active torsions:
REMARK  status: ('A' for Active; 'I' for Inactive)
REMARK    1  A    between atoms: C_1  and  C_2
REMARK    2  A    between atoms: C_2  and  O_3
REMARK    3  A    between atoms: O_3  and  C_4
REMARK    4  A    between atoms: C_6  and  C_16
REMARK    5  A    between atoms: C_8  and  O_13
REMARK    6  A    between atoms: C_9  and  O_10
REMARK    7  A    between atoms: O_10  and  C_11
REMARK    8  A    between atoms: C_11  and  C_12
REMARK    9  A    between atoms: O_13  and  C_14
REMARK   10  A    between atoms: C_14  and  C_15
REMARK   11  A    between atoms: N_18  and  C_19
REMARK   12  A    between atoms: C_19  and  C_20
REMARK   13  A    between atoms: C_20  and  N_70
REMARK   14  A    between atoms: C_21  and  N_70
REMARK   15  A    between atoms: C_22  and  N_70
REMARK   16  A    between atoms: C_26  and  O_33
REMARK   17  A    between atoms: C_29  and  C_32
REMARK   18  A    between atoms: O_33  and  C_34
REMARK                            x       y       z     vdW  Elec       q    Type
REMARK                         _______ _______ _______ _____ _____    ______ ____
ROOT
ATOM      1  C   UNL     1       4.097  -4.456  -0.400  0.00  0.00    +0.252 C 
ATOM      2  O   UNL     1       2.950  -4.728  -0.102  0.00  0.00    -0.270 OA
ATOM      3  N   UNL     1       4.487  -3.167  -0.469  0.00  0.00    -0.248 N 
ATOM      4  C   UNL     1       3.600  -2.156  -0.140  0.00  0.00    +0.168 A 
ATOM      5  N   UNL     1       3.792  -0.858  -0.145  0.00  0.00    -0.221 NA
ATOM      6  C   UNL     1       2.826   0.020   0.204  0.00  0.00    +0.122 A 
ATOM      7  C   UNL     1       2.903   1.436   0.242  0.00  0.00    +0.147 A 
ATOM      8  C   UNL     1       1.815   2.186   0.623  0.00  0.00    +0.048 A 
ATOM      9  C   UNL     1       0.615   1.590   0.982  0.00  0.00    +0.008 A 
ATOM     10  C   UNL     1       0.508   0.212   0.955  0.00  0.00    -0.034 A 
ATOM     11  C   UNL     1       1.588  -0.547   0.576  0.00  0.00    +0.047 A 
ATOM     12  S   UNL     1       1.901  -2.287   0.399  0.00  0.00    -0.051 S 
ATOM     13  C   UNL     1      -0.787  -0.454   1.342  0.00  0.00    +0.045 C 
ENDROOT
BRANCH   1  16
ATOM     14  C   UNL     1       5.513  -7.785  -1.411  0.00  0.00    +0.166 A 
ATOM     15  C   UNL     1       4.608  -6.776  -1.143  0.00  0.00    +0.062 A 
ATOM     16  C   UNL     1       5.061  -5.535  -0.687  0.00  0.00    +0.044 A 
ATOM     17  C   UNL     1       6.430  -5.317  -0.508  0.00  0.00    +0.062 A 
ATOM     18  C   UNL     1       7.330  -6.332  -0.772  0.00  0.00    +0.166 A 
ATOM     19  C   UNL     1       6.876  -7.567  -1.227  0.00  0.00    +0.204 A 
BRANCH  14  20
ATOM     20  O   UNL     1       5.072  -8.993  -1.856  0.00  0.00    -0.488 OA
BRANCH  20  22
ATOM     21  C   UNL     1       3.359 -10.560  -2.525  0.00  0.00    +0.048 C 
ATOM     22  C   UNL     1       3.662  -9.147  -2.023  0.00  0.00    +0.226 C 
ENDBRANCH  20  22
ENDBRANCH  14  20
BRANCH  19  23
ATOM     23  O   UNL     1       7.764  -8.561  -1.491  0.00  0.00    -0.485 OA
BRANCH  23  24
ATOM     24  C   UNL     1       8.285  -8.629  -2.820  0.00  0.00    +0.226 C 
ATOM     25  C   UNL     1       9.261  -9.803  -2.925  0.00  0.00    +0.048 C 
ENDBRANCH  23  24
ENDBRANCH  19  23
BRANCH  18  26
ATOM     26  O   UNL     1       8.662  -6.122  -0.593  0.00  0.00    -0.488 OA
BRANCH  26  27
ATOM     27  C   UNL     1       9.058  -4.832  -0.124  0.00  0.00    +0.226 C 
ATOM     28  C   UNL     1      10.581  -4.785   0.016  0.00  0.00    +0.048 C 
ENDBRANCH  26  27
ENDBRANCH  18  26
ENDBRANCH   1  16
BRANCH   7  29
ATOM     29  O   UNL     1       4.062   2.057  -0.103  0.00  0.00    -0.493 OA
ATOM     30  C   UNL     1       4.075   3.485  -0.044  0.00  0.00    +0.277 C 
ENDBRANCH   7  29
BRANCH   3  31
ATOM     31  C   UNL     1       5.851  -2.837  -0.891  0.00  0.00    +0.097 C 
BRANCH  31  32
ATOM     32  C   UNL     1       6.635  -2.288   0.302  0.00  0.00    -0.060 C 
BRANCH  32  35
ATOM     33  C   UNL     1       8.001  -0.844  -1.081  0.00  0.00    -0.097 C 
ATOM     34  C   UNL     1       8.853  -1.652   1.036  0.00  0.00    -0.097 C 
ATOM     35  N   UNL     1       8.013  -1.979  -0.135  0.00  0.00    +0.377 N 
ATOM     36  H   UNL     1       8.406  -2.803  -0.607  0.00  0.00    -0.083 HD
ENDBRANCH  32  35
ENDBRANCH  31  32
ENDBRANCH   3  31
TORSDOF 11
