REMARK  Name = ZINC20682334
REMARK  7 active torsions:
REMARK  status: ('A' for Active; 'I' for Inactive)
REMARK    1  A    between atoms: C_1  and  C_2
REMARK    2  A    between atoms: C_2  and  C_3
REMARK    3  A    between atoms: C_3  and  C_4
REMARK    4  A    between atoms: N_6  and  C_7
REMARK    5  A    between atoms: C_20  and  C_23
REMARK    6  A    between atoms: C_26  and  O_30
REMARK    7  A    between atoms: C_28  and  O_29
REMARK                            x       y       z     vdW  Elec       q    Type
REMARK                         _______ _______ _______ _____ _____    ______ ____
ROOT
ATOM      1  C   UNL     1       0.905  -2.566   0.767  0.00  0.00    +0.039 A 
ATOM      2  C   UNL     1       1.262  -3.692   1.498  0.00  0.00    +0.025 A 
ATOM      3  C   UNL     1       2.546  -3.802   1.997  0.00  0.00    +0.023 A 
ATOM      4  C   UNL     1       3.466  -2.799   1.776  0.00  0.00    +0.062 A 
ATOM      5  C   UNL     1       3.123  -1.656   1.049  0.00  0.00    +0.052 A 
ATOM      6  C   UNL     1       1.827  -1.558   0.538  0.00  0.00    +0.003 A 
ATOM      7  C   UNL     1       1.484  -0.355  -0.249  0.00  0.00    +0.050 C 
ATOM      8  C   UNL     1       0.108   0.196  -0.313  0.00  0.00    -0.023 C 
ATOM      9  C   UNL     1       0.186   1.515  -0.451  0.00  0.00    -0.030 C 
ATOM     10  C   UNL     1       1.653   1.952  -0.454  0.00  0.00    +0.033 C 
ATOM     11  C   UNL     1       2.309   0.825   0.353  0.00  0.00    +0.029 C 
ATOM     12  C   UNL     1       3.751   0.478   0.046  0.00  0.00    +0.108 C 
ATOM     13  N   UNL     1       4.104  -0.680   0.884  0.00  0.00    -0.335 N 
ATOM     14 CL   UNL     1       5.073  -2.958   2.412  0.00  0.00    -0.082 Cl
ATOM     15  H   UNL     1       5.101  -0.743   1.343  0.00  0.00    +0.147 HD
ENDROOT
BRANCH  12  16
ATOM     16  C   UNL     1       4.643   1.646   0.379  0.00  0.00    +0.015 A 
ATOM     17  C   UNL     1       4.176   2.662   1.191  0.00  0.00    +0.012 A 
ATOM     18  C   UNL     1       4.991   3.734   1.499  0.00  0.00    +0.046 A 
ATOM     19  C   UNL     1       6.282   3.793   0.993  0.00  0.00    +0.120 A 
ATOM     20  C   UNL     1       6.753   2.775   0.178  0.00  0.00    +0.091 A 
ATOM     21  C   UNL     1       5.934   1.698  -0.125  0.00  0.00    +0.125 A 
BRANCH  21  22
ATOM     22  O   UNL     1       6.395   0.696  -0.919  0.00  0.00    -0.506 OA
ATOM     23  H   UNL     1       7.419   0.737  -1.319  0.00  0.00    +0.292 HD
ENDBRANCH  21  22
BRANCH  19  24
ATOM     24  O   UNL     1       7.084   4.848   1.295  0.00  0.00    -0.507 OA
ATOM     25  H   UNL     1       8.107   4.894   0.893  0.00  0.00    +0.292 HD
ENDBRANCH  19  24
ENDBRANCH  12  16
BRANCH   1  28
ATOM     26  C   UNL     1      -1.438  -2.939   0.959  0.00  0.00    +0.217 C 
ATOM     27  O   UNL     1      -1.263  -3.395   2.069  0.00  0.00    -0.275 OA
ATOM     28  N   UNL     1      -0.394  -2.449   0.260  0.00  0.00    -0.285 N 
ATOM     29  H   UNL     1      -0.564  -1.958  -0.710  0.00  0.00    +0.155 HD
BRANCH  26  30
ATOM     30  C   UNL     1      -2.821  -2.920   0.361  0.00  0.00    +0.096 C 
BRANCH  30  32
ATOM     31  C   UNL     1      -5.218  -3.509   0.746  0.00  0.00    +0.004 C 
ATOM     32  C   UNL     1      -3.814  -3.529   1.353  0.00  0.00    +0.006 C 
ENDBRANCH  30  32
ENDBRANCH  26  30
ENDBRANCH   1  28
TORSDOF 6
