REMARK  Name = ZINC03394570
REMARK  11 active torsions:
REMARK  status: ('A' for Active; 'I' for Inactive)
REMARK    1  A    between atoms: C_1  and  C_2
REMARK    2  A    between atoms: C_5  and  C_35
REMARK    3  A    between atoms: C_6  and  S_8
REMARK    4  A    between atoms: S_8  and  O_11
REMARK    5  A    between atoms: O_11  and  C_12
REMARK    6  A    between atoms: C_17  and  C_18
REMARK    7  A    between atoms: C_18  and  O_20
REMARK    8  A    between atoms: O_20  and  C_21
REMARK    9  A    between atoms: C_21  and  C_22
REMARK   10  A    between atoms: N_24  and  C_25
REMARK   11  A    between atoms: C_25  and  C_26
REMARK                            x       y       z     vdW  Elec       q    Type
REMARK                         _______ _______ _______ _____ _____    ______ ____
ROOT
ATOM      1  C   UNL     1      13.064  -2.662  -0.154  0.00  0.00    +0.171 A 
ATOM      2  C   UNL     1      14.357  -2.778   0.336  0.00  0.00    +0.049 A 
ATOM      3  C   UNL     1      14.620  -2.509   1.664  0.00  0.00    +0.004 A 
ATOM      4  C   UNL     1      13.599  -2.123   2.517  0.00  0.00    +0.001 A 
ATOM      5  C   UNL     1      12.311  -1.997   2.047  0.00  0.00    +0.019 A 
ATOM      6  C   UNL     1      12.028  -2.271   0.706  0.00  0.00    +0.103 A 
ENDROOT
BRANCH   6   7
ATOM      7  C   UNL     1      10.651  -2.144   0.197  0.00  0.00    +0.343 C 
ATOM      8  O   UNL     1      10.410  -2.379  -0.971  0.00  0.00    -0.245 OA
BRANCH   7   9
ATOM      9  O   UNL     1       9.658  -1.768   1.027  0.00  0.00    -0.452 OA
BRANCH   9  10
ATOM     10  C   UNL     1       8.326  -1.665   0.457  0.00  0.00    +0.328 C 
BRANCH  10  11
ATOM     11  C   UNL     1       7.355  -1.236   1.526  0.00  0.00    +0.251 C 
ATOM     12  O   UNL     1       7.746  -1.037   2.657  0.00  0.00    -0.272 OA
ATOM     13  N   UNL     1       6.051  -1.073   1.226  0.00  0.00    -0.308 N 
ATOM     14  H   UNL     1       5.738  -1.231   0.322  0.00  0.00    +0.149 HD
BRANCH  13  15
ATOM     15  C   UNL     1       5.107  -0.655   2.265  0.00  0.00    +0.139 C 
BRANCH  15  16
ATOM     16  C   UNL     1       3.725  -0.548   1.674  0.00  0.00    -0.027 A 
ATOM     17  C   UNL     1       2.885  -1.646   1.677  0.00  0.00    +0.009 A 
ATOM     18  C   UNL     1       1.617  -1.553   1.135  0.00  0.00    +0.050 A 
ATOM     19  C   UNL     1       1.183  -0.356   0.589  0.00  0.00    +0.166 A 
ATOM     20  C   UNL     1       2.028   0.751   0.586  0.00  0.00    +0.167 A 
ATOM     21  C   UNL     1       3.298   0.650   1.131  0.00  0.00    +0.054 A 
ATOM     22  O   UNL     1       1.376   1.797  -0.001  0.00  0.00    -0.453 OA
ATOM     23  C   UNL     1      -0.018   1.436   0.010  0.00  0.00    +0.466 C 
ATOM     24  O   UNL     1       0.002  -0.004   0.002  0.00  0.00    -0.453 OA
ENDBRANCH  15  16
ENDBRANCH  13  15
ENDBRANCH  10  11
ENDBRANCH   9  10
ENDBRANCH   7   9
ENDBRANCH   6   7
BRANCH   1  25
ATOM     25  O   UNL     1      12.804  -2.925  -1.459  0.00  0.00    -0.341 OA
BRANCH  25  26
ATOM     26  S   UNL     1      12.925  -1.713  -2.371  0.00  0.00    +0.151 S 
ATOM     27  O   UNL     1      12.425  -2.108  -3.641  0.00  0.00    -0.131 OA
ATOM     28  O   UNL     1      12.393  -0.609  -1.653  0.00  0.00    -0.131 OA
BRANCH  26  34
ATOM     29  C   UNL     1      17.370   0.631  -0.932  0.00  0.00    +0.044 C 
ATOM     30  C   UNL     1      16.652  -0.293  -1.882  0.00  0.00    -0.049 A 
ATOM     31  C   UNL     1      17.342  -0.887  -2.922  0.00  0.00    +0.004 A 
ATOM     32  C   UNL     1      16.683  -1.734  -3.794  0.00  0.00    +0.005 A 
ATOM     33  C   UNL     1      15.334  -1.986  -3.625  0.00  0.00    -0.022 A 
ATOM     34  C   UNL     1      14.645  -1.392  -2.586  0.00  0.00    +0.131 A 
ATOM     35  C   UNL     1      15.302  -0.541  -1.717  0.00  0.00    +0.034 A 
ATOM     36  C   UNL     1      14.616  -2.909  -4.576  0.00  0.00    +0.046 C 
ENDBRANCH  26  34
ENDBRANCH  25  26
ENDBRANCH   1  25
TORSDOF 9
