REMARK  Name = ZINC22859828
REMARK  12 active torsions:
REMARK  status: ('A' for Active; 'I' for Inactive)
REMARK    1  A    between atoms: C_1  and  C_2
REMARK    2  A    between atoms: C_5  and  N_9
REMARK    3  A    between atoms: C_6  and  C_8
REMARK    4  A    between atoms: C_10  and  C_12
REMARK    5  A    between atoms: C_12  and  O_13
REMARK    6  A    between atoms: O_13  and  C_14
REMARK    7  A    between atoms: C_14  and  C_16
REMARK    8  A    between atoms: C_21  and  C_22
REMARK    9  A    between atoms: C_22  and  C_24
REMARK   10  A    between atoms: C_27  and  S_33
REMARK   11  A    between atoms: C_28  and  N_30
REMARK   12  A    between atoms: S_33  and  C_34
REMARK                            x       y       z     vdW  Elec       q    Type
REMARK                         _______ _______ _______ _____ _____    ______ ____
ROOT
ATOM      1  C   UNL     1       4.965   1.341  -0.107  0.00  0.00    +0.070 A 
ATOM      2  C   UNL     1       6.096   2.154  -0.096  0.00  0.00    +0.016 A 
ATOM      3  C   UNL     1       5.958   3.527  -0.033  0.00  0.00    +0.001 A 
ATOM      4  C   UNL     1       4.701   4.104   0.018  0.00  0.00    +0.001 A 
ATOM      5  C   UNL     1       3.567   3.314   0.003  0.00  0.00    +0.012 A 
ATOM      6  C   UNL     1       3.686   1.927  -0.053  0.00  0.00    +0.036 A 
ENDROOT
BRANCH   1   7
ATOM      7  C   UNL     1       5.107  -0.129  -0.173  0.00  0.00    +0.340 C 
ATOM      8  O   UNL     1       4.121  -0.830  -0.281  0.00  0.00    -0.245 OA
BRANCH   7   9
ATOM      9  O   UNL     1       6.330  -0.691  -0.114  0.00  0.00    -0.452 OA
BRANCH   9  10
ATOM     10  C   UNL     1       6.393  -2.140  -0.185  0.00  0.00    +0.328 C 
BRANCH  10  12
ATOM     11  N   UNL     1       8.134  -3.897  -0.151  0.00  0.00    -0.282 N 
ATOM     12  C   UNL     1       7.831  -2.584  -0.104  0.00  0.00    +0.255 C 
ATOM     13  O   UNL     1       8.715  -1.761   0.002  0.00  0.00    -0.272 OA
ATOM     14  H   UNL     1       7.330  -4.647  -0.157  0.00  0.00    +0.155 HD
BRANCH  11  19
ATOM     15  C   UNL     1      13.559  -5.550  -0.316  0.00  0.00    +0.044 C 
ATOM     16  C   UNL     1      12.118  -5.111  -0.272  0.00  0.00    -0.050 A 
ATOM     17  C   UNL     1      11.766  -3.851  -0.723  0.00  0.00    +0.005 A 
ATOM     18  C   UNL     1      10.447  -3.446  -0.684  0.00  0.00    +0.024 A 
ATOM     19  C   UNL     1       9.472  -4.304  -0.191  0.00  0.00    +0.036 A 
ATOM     20  C   UNL     1       9.829  -5.566   0.266  0.00  0.00    -0.029 A 
ATOM     21  C   UNL     1      11.150  -5.967   0.220  0.00  0.00    +0.008 A 
ATOM     22  C   UNL     1       8.776  -6.498   0.807  0.00  0.00    +0.045 C 
ENDBRANCH  11  19
ENDBRANCH  10  12
ENDBRANCH   9  10
ENDBRANCH   7   9
ENDBRANCH   1   7
BRANCH   6  23
ATOM     23  C   UNL     1       2.476   1.077  -0.064  0.00  0.00    +0.194 C 
ATOM     24  O   UNL     1       1.817   0.970  -1.080  0.00  0.00    -0.287 OA
BRANCH  23  25
ATOM     25  C   UNL     1       2.070   0.359   1.156  0.00  0.00    +0.024 A 
ATOM     26  C   UNL     1       2.882   0.398   2.297  0.00  0.00    +0.013 A 
ATOM     27  C   UNL     1       2.502  -0.268   3.426  0.00  0.00    +0.017 A 
ATOM     28  C   UNL     1       1.307  -0.986   3.445  0.00  0.00    +0.038 A 
ATOM     29  C   UNL     1       0.495  -1.023   2.314  0.00  0.00    +0.140 A 
ATOM     30  C   UNL     1       0.872  -0.364   1.179  0.00  0.00    +0.045 A 
BRANCH  29  31
ATOM     31  N   UNL     1      -0.775  -1.783   2.340  0.00  0.00    +0.058 N 
ATOM     32  O   UNL     1      -1.484  -1.819   1.350  0.00  0.00    -0.126 OA
ATOM     33  O   UNL     1      -1.112  -2.371   3.352  0.00  0.00    -0.126 OA
ENDBRANCH  29  31
BRANCH  28  34
ATOM     34  S   UNL     1       0.821  -1.843   4.906  0.00  0.00    -0.126 S 
ATOM     35  C   UNL     1       2.159  -1.503   6.081  0.00  0.00    +0.090 C 
ENDBRANCH  28  34
ENDBRANCH  23  25
ENDBRANCH   6  23
TORSDOF 9
