REMARK  Name = ZINC06557402
REMARK  3 active torsions:
REMARK  status: ('A' for Active; 'I' for Inactive)
REMARK    1  A    between atoms: C_6  and  O_7
REMARK    2  A    between atoms: O_7  and  C_8
REMARK    3  A    between atoms: C_13  and  O_19
REMARK                            x       y       z     vdW  Elec       q    Type
REMARK                         _______ _______ _______ _____ _____    ______ ____
ROOT
ATOM      1  C   UNL     1       2.351   4.098   0.106  0.00  0.00    +0.210 A 
ATOM      2  C   UNL     1       3.507   3.405   0.096  0.00  0.00    +0.245 A 
ATOM      3  O   UNL     1       4.706   3.996   0.182  0.00  0.00    -0.459 OA
ATOM      4  C   UNL     1       4.847   5.332   0.298  0.00  0.00    +0.142 A 
ATOM      5  C   UNL     1       6.104   5.912   0.391  0.00  0.00    +0.092 A 
ATOM      6  C   UNL     1       6.220   7.286   0.509  0.00  0.00    +0.120 A 
ATOM      7  C   UNL     1       5.084   8.094   0.535  0.00  0.00    +0.046 A 
ATOM      8  C   UNL     1       3.840   7.538   0.444  0.00  0.00    +0.019 A 
ATOM      9  C   UNL     1       3.707   6.154   0.325  0.00  0.00    +0.068 A 
ATOM     10  C   UNL     1       2.383   5.516   0.225  0.00  0.00    +0.234 A 
ATOM     11  O   UNL     1       1.357   6.176   0.242  0.00  0.00    -0.283 OA
ENDROOT
BRANCH   6  12
ATOM     12  O   UNL     1       7.450   7.853   0.600  0.00  0.00    -0.507 OA
ATOM     13  H   UNL     1       7.548   8.944   0.694  0.00  0.00    +0.292 HD
ENDBRANCH   6  12
BRANCH   1  14
ATOM     14  O   UNL     1       1.160   3.445   0.009  0.00  0.00    -0.449 OA
BRANCH  14  20
ATOM     15  C   UNL     1       1.350   1.370   1.158  0.00  0.00    +0.047 A 
ATOM     16  C   UNL     1       1.367  -0.011   1.129  0.00  0.00    +0.019 A 
ATOM     17  C   UNL     1       1.212  -0.680  -0.072  0.00  0.00    +0.018 A 
ATOM     18  C   UNL     1       1.041   0.032  -1.246  0.00  0.00    +0.019 A 
ATOM     19  C   UNL     1       1.023   1.413  -1.221  0.00  0.00    +0.047 A 
ATOM     20  C   UNL     1       1.178   2.086  -0.018  0.00  0.00    +0.129 A 
ATOM     21 BR   UNL     1       1.236  -2.570  -0.110  0.00  0.00    -0.050 Br
ENDBRANCH  14  20
ENDBRANCH   1  14
TORSDOF 3
