REMARK  Name = ZINC09752069
REMARK  9 active torsions:
REMARK  status: ('A' for Active; 'I' for Inactive)
REMARK    1  A    between atoms: C_1  and  C_2
REMARK    2  A    between atoms: C_2  and  N_3
REMARK    3  A    between atoms: C_7  and  C_28
REMARK    4  A    between atoms: C_12  and  S_13
REMARK    5  A    between atoms: S_13  and  C_14
REMARK    6  A    between atoms: C_14  and  C_15
REMARK    7  A    between atoms: N_17  and  C_18
REMARK    8  A    between atoms: C_21  and  C_27
REMARK    9  A    between atoms: C_23  and  N_24
REMARK                            x       y       z     vdW  Elec       q    Type
REMARK                         _______ _______ _______ _____ _____    ______ ____
ROOT
ATOM      1  N   UNL     1       3.493   5.416   2.782  0.00  0.00    -0.288 N 
ATOM      2  C   UNL     1       2.567   4.815   2.012  0.00  0.00    +0.264 A 
ATOM      3  O   UNL     1       2.302   3.636   2.173  0.00  0.00    -0.267 OA
ATOM      4  C   UNL     1       1.893   5.577   1.010  0.00  0.00    +0.080 A 
ATOM      5  C   UNL     1       0.868   5.150   0.061  0.00  0.00    +0.010 A 
ATOM      6  C   UNL     1       0.372   6.059  -0.814  0.00  0.00    +0.057 A 
ATOM      7  S   UNL     1       1.265   7.548  -0.416  0.00  0.00    -0.076 S 
ATOM      8  C   UNL     1       2.275   6.926   0.904  0.00  0.00    +0.117 A 
ATOM      9  N   UNL     1       3.199   7.460   1.695  0.00  0.00    -0.216 NA
ATOM     10  C   UNL     1       3.801   6.735   2.616  0.00  0.00    +0.173 A 
ENDROOT
BRANCH   5  11
ATOM     11  C   UNL     1       0.376   3.756   0.059  0.00  0.00    +0.021 A 
ATOM     12  C   UNL     1      -0.913   3.296   0.083  0.00  0.00    +0.016 A 
ATOM     13  C   UNL     1      -1.130   1.934   0.071  0.00  0.00    +0.008 A 
ATOM     14  C   UNL     1      -0.065   1.095   0.046  0.00  0.00    +0.046 A 
ATOM     15  S   UNL     1       1.309   2.235   0.027  0.00  0.00    -0.097 S 
ENDBRANCH   5  11
BRANCH   1  17
ATOM     16  C   UNL     1       3.399   4.729   5.127  0.00  0.00    +0.027 C 
ATOM     17  C   UNL     1       4.182   4.641   3.816  0.00  0.00    +0.124 C 
ENDBRANCH   1  17
BRANCH  10  18
ATOM     18  S   UNL     1       5.022   7.479   3.647  0.00  0.00    -0.078 S 
BRANCH  18  19
ATOM     19  C   UNL     1       5.003   9.165   2.989  0.00  0.00    +0.173 C 
BRANCH  19  20
ATOM     20  C   UNL     1       6.000  10.009   3.742  0.00  0.00    +0.228 C 
ATOM     21  O   UNL     1       6.658   9.518   4.635  0.00  0.00    -0.275 OA
ATOM     22  N   UNL     1       6.160  11.309   3.423  0.00  0.00    -0.283 N 
ATOM     23  H   UNL     1       5.693  11.681   2.658  0.00  0.00    +0.155 HD
BRANCH  22  24
ATOM     24  C   UNL     1       6.998  12.120   4.195  0.00  0.00    +0.064 A 
ATOM     25  C   UNL     1       7.246  11.801   5.523  0.00  0.00    +0.026 A 
ATOM     26  C   UNL     1       8.074  12.604   6.282  0.00  0.00    +0.005 A 
ATOM     27  C   UNL     1       8.656  13.726   5.721  0.00  0.00    -0.048 A 
ATOM     28  C   UNL     1       8.412  14.047   4.399  0.00  0.00    +0.038 A 
ATOM     29  C   UNL     1       7.589  13.244   3.632  0.00  0.00    +0.148 A 
ATOM     30  C   UNL     1       9.560  14.600   6.552  0.00  0.00    +0.044 C 
BRANCH  29  31
ATOM     31  N   UNL     1       7.332  13.585   2.215  0.00  0.00    +0.058 N 
ATOM     32  O   UNL     1       7.920  14.518   1.697  0.00  0.00    -0.126 OA
ATOM     33  O   UNL     1       6.533  12.933   1.567  0.00  0.00    -0.126 OA
ENDBRANCH  29  31
ENDBRANCH  22  24
ENDBRANCH  19  20
ENDBRANCH  18  19
ENDBRANCH  10  18
TORSDOF 7
