REMARK  Name = ZINC16740214
REMARK  6 active torsions:
REMARK  status: ('A' for Active; 'I' for Inactive)
REMARK    1  A    between atoms: C_1  and  C_2
REMARK    2  A    between atoms: C_6  and  C_7
REMARK    3  A    between atoms: N_9  and  C_10
REMARK    4  A    between atoms: C_16  and  C_21
REMARK    5  A    between atoms: C_16  and  C_22
REMARK    6  A    between atoms: C_18  and  O_20
REMARK                            x       y       z     vdW  Elec       q    Type
REMARK                         _______ _______ _______ _____ _____    ______ ____
ROOT
ATOM      1  C   UNL     1      -2.869   3.691   3.167  0.00  0.00    +0.048 C 
ATOM      2  C   UNL     1      -1.861   2.724   2.600  0.00  0.00    +0.006 A 
ATOM      3  C   UNL     1      -1.656   2.425   1.252  0.00  0.00    +0.025 A 
ATOM      4  C   UNL     1      -0.658   1.509   1.186  0.00  0.00    +0.112 A 
ATOM      5  O   UNL     1      -0.245   1.238   2.426  0.00  0.00    -0.454 OA
ATOM      6  C   UNL     1      -0.965   1.967   3.307  0.00  0.00    +0.193 A 
ATOM      7  C   UNL     1      -0.140   0.925  -0.107  0.00  0.00    +0.081 C 
ATOM      8  C   UNL     1      -1.168   1.200  -1.210  0.00  0.00    -0.025 C 
ATOM      9  C   UNL     1      -1.548   2.683  -1.199  0.00  0.00    +0.043 C 
ATOM     10  C   UNL     1      -2.379   2.987   0.054  0.00  0.00    +0.149 C 
ATOM     11  C   UNL     1      -0.566   0.839  -2.570  0.00  0.00    +0.011 C 
ATOM     12  C   UNL     1      -2.418   0.352  -0.966  0.00  0.00    +0.011 C 
ENDROOT
BRANCH   6  13
ATOM     13  C   UNL     1      -0.812   1.950   4.765  0.00  0.00    +0.280 C 
ATOM     14  O   UNL     1      -1.521   2.655   5.459  0.00  0.00    -0.267 OA
ATOM     15  N   UNL     1       0.113   1.154   5.337  0.00  0.00    -0.306 N 
ATOM     16  H   UNL     1       0.677   0.592   4.784  0.00  0.00    +0.149 HD
BRANCH  15  17
ATOM     17  C   UNL     1       0.265   1.137   6.794  0.00  0.00    +0.073 C 
ATOM     18  C   UNL     1       1.254   2.236   7.235  0.00  0.00    +0.022 C 
ATOM     19  C   UNL     1       2.036   1.595   8.408  0.00  0.00    +0.002 C 
ATOM     20  C   UNL     1       2.203   0.126   7.945  0.00  0.00    +0.002 C 
ATOM     21  C   UNL     1       0.868  -0.204   7.246  0.00  0.00    +0.022 C 
ENDBRANCH  15  17
ENDBRANCH   6  13
BRANCH  10  22
ATOM     22  O   UNL     1      -2.528   4.401   0.202  0.00  0.00    -0.387 OA
ATOM     23  H   UNL     1      -3.158   4.661   0.888  0.00  0.00    +0.210 HD
ENDBRANCH  10  22
TORSDOF 3
