REMARK  Name = ZINC32521719
REMARK  8 active torsions:
REMARK  status: ('A' for Active; 'I' for Inactive)
REMARK    1  A    between atoms: C_1  and  C_2
REMARK    2  A    between atoms: C_5  and  N_9
REMARK    3  A    between atoms: C_7  and  C_8
REMARK    4  A    between atoms: C_10  and  C_12
REMARK    5  A    between atoms: C_12  and  C_13
REMARK    6  A    between atoms: C_13  and  S_14
REMARK    7  A    between atoms: S_14  and  C_15
REMARK    8  A    between atoms: C_26  and  C_28
REMARK                            x       y       z     vdW  Elec       q    Type
REMARK                         _______ _______ _______ _____ _____    ______ ____
ROOT
ATOM      1  S   UNL     1       5.138   1.679  -0.204  0.00  0.00    -0.085 S 
ENDROOT
BRANCH   1   2
ATOM      2  C   UNL     1       6.070   3.141  -0.519  0.00  0.00    +0.196 A 
ATOM      3  N   UNL     1       5.584   4.338  -0.762  0.00  0.00    -0.122 NA
ATOM      4  N   UNL     1       6.541   5.177  -0.948  0.00  0.00    -0.129 NA
ATOM      5  C   UNL     1       7.704   4.562  -0.834  0.00  0.00    +0.162 A 
ATOM      6  N   UNL     1       7.430   3.243  -0.551  0.00  0.00    -0.270 N 
ATOM      7  C   UNL     1       8.453   2.329  -0.367  0.00  0.00    +0.058 A 
ATOM      8  C   UNL     1       8.179   0.998  -0.084  0.00  0.00    +0.027 A 
ATOM      9  C   UNL     1       9.215   0.104   0.096  0.00  0.00    +0.002 A 
ATOM     10  C   UNL     1      10.534   0.523  -0.003  0.00  0.00    +0.001 A 
ATOM     11  C   UNL     1      10.828   1.839  -0.283  0.00  0.00    +0.010 A 
ATOM     12  C   UNL     1       9.789   2.756  -0.468  0.00  0.00    +0.002 A 
ATOM     13  C   UNL     1      10.071   4.164  -0.766  0.00  0.00    -0.038 A 
ATOM     14  C   UNL     1       9.038   5.018  -0.946  0.00  0.00    +0.052 A 
ATOM     15  C   UNL     1      11.492   4.650  -0.880  0.00  0.00    +0.044 C 
ENDBRANCH   1   2
BRANCH   1  16
ATOM     16  C   UNL     1       3.459   2.344  -0.322  0.00  0.00    +0.086 C 
BRANCH  16  17
ATOM     17  C   UNL     1       2.448   1.223  -0.076  0.00  0.00    +0.107 C 
BRANCH  17  19
ATOM     18  N   UNL     1      -0.011   0.966   0.007  0.00  0.00    -0.285 N 
ATOM     19  C   UNL     1       1.050   1.777  -0.174  0.00  0.00    +0.218 C 
ATOM     20  O   UNL     1       0.879   2.953  -0.417  0.00  0.00    -0.275 OA
ATOM     21  H   UNL     1       0.140  -0.115   0.144  0.00  0.00    +0.155 HD
BRANCH  18  26
ATOM     22  C   UNL     1      -5.256   3.126   0.067  0.00  0.00    +0.044 C 
ATOM     23  C   UNL     1      -3.863   2.552   0.051  0.00  0.00    -0.047 A 
ATOM     24  C   UNL     1      -2.805   3.295   0.544  0.00  0.00    +0.005 A 
ATOM     25  C   UNL     1      -1.528   2.769   0.536  0.00  0.00    +0.023 A 
ATOM     26  C   UNL     1      -1.305   1.499   0.022  0.00  0.00    +0.034 A 
ATOM     27  C   UNL     1      -2.369   0.756  -0.472  0.00  0.00    +0.027 A 
ATOM     28  C   UNL     1      -3.645   1.285  -0.456  0.00  0.00    -0.046 A 
ATOM     29  C   UNL     1      -4.800   0.479  -0.992  0.00  0.00    +0.044 C 
ENDBRANCH  18  26
ENDBRANCH  17  19
ENDBRANCH  16  17
ENDBRANCH   1  16
TORSDOF 5
