REMARK  Name = ZINC01256249
REMARK  12 active torsions:
REMARK  status: ('A' for Active; 'I' for Inactive)
REMARK    1  A    between atoms: C_1  and  O_2
REMARK    2  A    between atoms: O_2  and  C_3
REMARK    3  A    between atoms: C_5  and  C_13
REMARK    4  A    between atoms: C_7  and  O_11
REMARK    5  A    between atoms: C_8  and  O_9
REMARK    6  A    between atoms: O_9  and  C_10
REMARK    7  A    between atoms: O_11  and  C_12
REMARK    8  A    between atoms: C_15  and  C_27
REMARK    9  A    between atoms: C_19  and  N_26
REMARK   10  A    between atoms: C_20  and  C_22
REMARK   11  A    between atoms: C_22  and  O_24
REMARK   12  A    between atoms: O_24  and  C_25
REMARK                            x       y       z     vdW  Elec       q    Type
REMARK                         _______ _______ _______ _____ _____    ______ ____
ROOT
ATOM      1  C   UNL     1      -0.572   0.341   0.569  0.00  0.00    -0.004 A 
ATOM      2  C   UNL     1      -0.394  -0.857  -0.103  0.00  0.00    +0.037 A 
ATOM      3  C   UNL     1       0.869  -1.446  -0.162  0.00  0.00    +0.073 A 
ATOM      4  N   UNL     1       1.908  -0.864   0.425  0.00  0.00    -0.239 NA
ATOM      5  C   UNL     1       1.788   0.273   1.074  0.00  0.00    +0.112 A 
ATOM      6  C   UNL     1       0.556   0.955   1.196  0.00  0.00    +0.037 A 
ATOM      7  C   UNL     1       0.609   2.196   1.946  0.00  0.00    +0.056 A 
ATOM      8  C   UNL     1       1.823   2.597   2.466  0.00  0.00    +0.119 A 
ATOM      9  S   UNL     1       2.937   1.304   1.953  0.00  0.00    -0.060 S 
ENDROOT
BRANCH   1  12
ATOM     10  C   UNL     1      -3.341   2.863   0.222  0.00  0.00    +0.166 A 
ATOM     11  C   UNL     1      -2.091   2.273   0.159  0.00  0.00    +0.058 A 
ATOM     12  C   UNL     1      -1.909   0.975   0.637  0.00  0.00    -0.010 A 
ATOM     13  C   UNL     1      -2.988   0.274   1.175  0.00  0.00    +0.058 A 
ATOM     14  C   UNL     1      -4.235   0.870   1.243  0.00  0.00    +0.166 A 
ATOM     15  C   UNL     1      -4.415   2.164   0.764  0.00  0.00    +0.204 A 
BRANCH  10  17
ATOM     16  C   UNL     1      -2.374   4.787  -0.788  0.00  0.00    +0.277 C 
ATOM     17  O   UNL     1      -3.519   4.128  -0.245  0.00  0.00    -0.491 OA
ENDBRANCH  10  17
BRANCH  15  18
ATOM     18  O   UNL     1      -5.643   2.746   0.826  0.00  0.00    -0.488 OA
ATOM     19  C   UNL     1      -6.507   2.559  -0.297  0.00  0.00    +0.277 C 
ENDBRANCH  15  18
BRANCH  14  20
ATOM     20  O   UNL     1      -5.286   0.189   1.772  0.00  0.00    -0.491 OA
ATOM     21  C   UNL     1      -5.029  -1.135   2.244  0.00  0.00    +0.277 C 
ENDBRANCH  14  20
ENDBRANCH   1  12
BRANCH   3  22
ATOM     22  C   UNL     1       1.052  -2.728  -0.884  0.00  0.00    +0.000 A 
ATOM     23  C   UNL     1      -0.037  -3.347  -1.497  0.00  0.00    +0.010 A 
ATOM     24  C   UNL     1       0.141  -4.538  -2.171  0.00  0.00    +0.001 A 
ATOM     25  C   UNL     1       1.393  -5.123  -2.230  0.00  0.00    +0.000 A 
ATOM     26  C   UNL     1       2.475  -4.516  -1.619  0.00  0.00    +0.001 A 
ATOM     27  C   UNL     1       2.311  -3.322  -0.947  0.00  0.00    +0.010 A 
ENDBRANCH   3  22
BRANCH   7  28
ATOM     28  N   UNL     1      -0.533   2.963   2.133  0.00  0.00    -0.356 N 
ATOM     29  H   UNL     1      -1.404   2.538   2.159  0.00  0.00    +0.142 HD
ATOM     30  H   UNL     1      -0.459   3.925   2.236  0.00  0.00    +0.142 HD
ENDBRANCH   7  28
BRANCH   8  31
ATOM     31  C   UNL     1       2.114   3.756   3.222  0.00  0.00    +0.348 C 
ATOM     32  O   UNL     1       1.228   4.547   3.488  0.00  0.00    -0.244 OA
BRANCH  31  33
ATOM     33  O   UNL     1       3.374   3.984   3.649  0.00  0.00    -0.464 OA
ATOM     34  C   UNL     1       3.596   5.174   4.408  0.00  0.00    +0.280 C 
ENDBRANCH  31  33
ENDBRANCH   8  31
TORSDOF 8
