REMARK  Name = ZINC64705398
REMARK  8 active torsions:
REMARK  status: ('A' for Active; 'I' for Inactive)
REMARK    1  A    between atoms: C_1  and  O_2
REMARK    2  A    between atoms: O_2  and  C_3
REMARK    3  A    between atoms: C_6  and  C_9
REMARK    4  A    between atoms: C_9  and  C_11
REMARK    5  A    between atoms: C_9  and  C_27
REMARK    6  A    between atoms: C_11  and  N_12
REMARK    7  A    between atoms: C_13  and  C_15
REMARK    8  A    between atoms: C_15  and  N_16
REMARK                            x       y       z     vdW  Elec       q    Type
REMARK                         _______ _______ _______ _____ _____    ______ ____
ROOT
ATOM      1  C   UNL     1       2.587  -2.550   4.310  0.00  0.00    +0.064 C 
ENDROOT
BRANCH   1   2
ATOM      2  C   UNL     1       3.726  -3.388   3.789  0.00  0.00    -0.033 C 
ATOM      3  C   UNL     1       5.036  -3.264   4.102  0.00  0.00    -0.000 A 
ATOM      4  C   UNL     1       5.764  -2.348   4.987  0.00  0.00    +0.010 A 
ATOM      5  C   UNL     1       7.107  -2.471   5.098  0.00  0.00    +0.001 A 
ATOM      6  C   UNL     1       7.818  -3.449   4.389  0.00  0.00    +0.002 A 
ATOM      7  C   UNL     1       7.218  -4.327   3.557  0.00  0.00    +0.026 A 
ATOM      8  C   UNL     1       5.810  -4.289   3.365  0.00  0.00    +0.043 A 
ATOM      9  N   UNL     1       5.009  -5.017   2.626  0.00  0.00    -0.380 N 
ATOM     10  C   UNL     1       3.635  -4.540   2.814  0.00  0.00    +0.145 C 
ATOM     11  H   UNL     1       5.280  -5.752   2.052  0.00  0.00    +0.160 HD
ENDBRANCH   1   2
BRANCH   1  15
ATOM     12  C   UNL     1       0.626  -0.618   1.042  0.00  0.00    +0.120 A 
ATOM     13  C   UNL     1       1.202   0.138   2.051  0.00  0.00    +0.046 A 
ATOM     14  C   UNL     1       1.835  -0.488   3.107  0.00  0.00    +0.008 A 
ATOM     15  C   UNL     1       1.895  -1.869   3.158  0.00  0.00    -0.038 A 
ATOM     16  C   UNL     1       1.322  -2.625   2.152  0.00  0.00    +0.008 A 
ATOM     17  C   UNL     1       0.682  -2.003   1.098  0.00  0.00    +0.046 A 
BRANCH  12  19
ATOM     18  C   UNL     1      -0.017   1.425   0.010  0.00  0.00    +0.277 C 
ATOM     19  O   UNL     1       0.002  -0.004   0.002  0.00  0.00    -0.495 OA
ENDBRANCH  12  19
ENDBRANCH   1  15
BRANCH   1  20
ATOM     20  C   UNL     1       1.589  -3.447   5.046  0.00  0.00    +0.116 C 
BRANCH  20  21
ATOM     21  N   UNL     1       2.228  -4.016   6.235  0.00  0.00    -0.313 N 
ATOM     22  C   UNL     1       1.535  -4.844   7.042  0.00  0.00    +0.231 C 
ATOM     23  O   UNL     1       0.382  -5.117   6.783  0.00  0.00    -0.274 OA
ATOM     24  H   UNL     1       3.150  -3.797   6.441  0.00  0.00    +0.149 HD
BRANCH  22  25
ATOM     25  C   UNL     1       2.192  -5.429   8.265  0.00  0.00    +0.212 C 
BRANCH  25  26
ATOM     26  N   UNL     1       1.237  -6.288   8.969  0.00  0.00    -0.233 N 
ATOM     27  C   UNL     1       0.414  -5.830   9.922  0.00  0.00    +0.223 C 
ATOM     28  O   UNL     1       0.357  -4.682  10.310  0.00  0.00    -0.275 OA
ATOM     29  C   UNL     1      -0.436  -6.974  10.438  0.00  0.00    +0.112 C 
ATOM     30  C   UNL     1       0.048  -8.171   9.610  0.00  0.00    +0.056 C 
ATOM     31  C   UNL     1       1.109  -7.598   8.709  0.00  0.00    +0.229 C 
ATOM     32  O   UNL     1       1.746  -8.220   7.886  0.00  0.00    -0.275 OA
ATOM     33  C   UNL     1       0.614  -9.271  10.516  0.00  0.00    +0.016 C 
ATOM     34  C   UNL     1      -0.556 -10.281  10.653  0.00  0.00    +0.001 C 
ATOM     35  C   UNL     1      -1.196 -10.261   9.242  0.00  0.00    +0.001 C 
ATOM     36  C   UNL     1      -1.098  -8.783   8.802  0.00  0.00    +0.016 C 
ENDBRANCH  25  26
ENDBRANCH  22  25
ENDBRANCH  20  21
ENDBRANCH   1  20
TORSDOF 7
