REMARK  Name = ZINC39945543
REMARK  4 active torsions:
REMARK  status: ('A' for Active; 'I' for Inactive)
REMARK    1  A    between atoms: C_1  and  C_2
REMARK    2  A    between atoms: C_2  and  C_3
REMARK    3  A    between atoms: C_2  and  C_4
REMARK    4  A    between atoms: C_2  and  C_5
REMARK                            x       y       z     vdW  Elec       q    Type
REMARK                         _______ _______ _______ _____ _____    ______ ____
ROOT
ATOM      1  C   UNL     1       0.707  -0.490  -1.238  0.00  0.00    +0.052 C 
ATOM      2  N   UNL     1       1.233   0.235  -2.170  0.00  0.00    -0.158 NA
ATOM      3  N   UNL     1       1.808  -0.531  -3.178  0.00  0.00    -0.162 NA
ATOM      4  C   UNL     1       1.692  -1.800  -2.961  0.00  0.00    +0.113 C 
ATOM      5  C   UNL     1       0.952  -1.930  -1.645  0.00  0.00    +0.102 C 
ENDROOT
BRANCH   1   7
ATOM      6  C   UNL     1      -0.019   1.526   0.010  0.00  0.00    +0.017 C 
ATOM      7  C   UNL     1       0.002  -0.004   0.002  0.00  0.00    +0.003 C 
ATOM      8  C   UNL     1       0.742  -0.511   1.242  0.00  0.00    +0.017 C 
ATOM      9  C   UNL     1      -1.433  -0.534   0.013  0.00  0.00    +0.017 C 
ENDBRANCH   1   7
TORSDOF 1
