REMARK  Name = ZINC15959953
REMARK  7 active torsions:
REMARK  status: ('A' for Active; 'I' for Inactive)
REMARK    1  A    between atoms: C_1  and  S_2
REMARK    2  A    between atoms: S_2  and  C_3
REMARK    3  A    between atoms: C_3  and  C_4
REMARK    4  A    between atoms: C_4  and  C_5
REMARK    5  A    between atoms: N_13  and  C_16
REMARK    6  A    between atoms: C_16  and  C_17
REMARK    7  A    between atoms: C_17  and  C_18
REMARK                            x       y       z     vdW  Elec       q    Type
REMARK                         _______ _______ _______ _____ _____    ______ ____
ROOT
ATOM      1  C   UNL     1       1.701  -2.297  -2.963  0.00  0.00    +0.068 C 
ATOM      2  C   UNL     1       1.729  -3.827  -3.164  0.00  0.00    +0.107 C 
ATOM      3  C   UNL     1       3.130  -4.125  -3.767  0.00  0.00    +0.122 C 
ATOM      4  C   UNL     1       3.804  -4.947  -2.690  0.00  0.00    +0.228 C 
ATOM      5  O   UNL     1       4.926  -5.399  -2.754  0.00  0.00    -0.275 OA
ATOM      6  N   UNL     1       2.967  -5.096  -1.657  0.00  0.00    -0.241 N 
ATOM      7  C   UNL     1       1.760  -4.508  -1.815  0.00  0.00    +0.227 C 
ATOM      8  O   UNL     1       0.850  -4.517  -1.014  0.00  0.00    -0.275 OA
ATOM      9  C   UNL     1       3.800  -2.750  -3.880  0.00  0.00    +0.136 C 
ATOM     10  N   UNL     1       3.130  -1.894  -2.873  0.00  0.00    -0.295 NA
ATOM     11  C   UNL     1       5.278  -2.832  -3.622  0.00  0.00    +0.005 A 
ATOM     12  C   UNL     1       6.032  -3.249  -2.548  0.00  0.00    +0.008 A 
ATOM     13  C   UNL     1       7.413  -3.207  -2.612  0.00  0.00    +0.002 A 
ATOM     14  C   UNL     1       8.036  -2.742  -3.756  0.00  0.00    +0.022 A 
ATOM     15  C   UNL     1       7.285  -2.321  -4.835  0.00  0.00    +0.062 A 
ATOM     16  C   UNL     1       5.892  -2.361  -4.779  0.00  0.00    +0.057 A 
ATOM     17  N   UNL     1       4.930  -1.996  -5.723  0.00  0.00    -0.282 N 
ATOM     18  C   UNL     1       3.676  -2.193  -5.272  0.00  0.00    +0.243 C 
ATOM     19  O   UNL     1       2.647  -1.966  -5.872  0.00  0.00    -0.273 OA
ATOM     20 CL   UNL     1       8.076  -1.739  -6.266  0.00  0.00    -0.082 Cl
ATOM     21  H   UNL     1       3.245  -0.917  -3.099  0.00  0.00    +0.123 HD
ATOM     22  H   UNL     1       5.140  -1.640  -6.601  0.00  0.00    +0.155 HD
ENDROOT
BRANCH   1  23
ATOM     23  C   UNL     1       0.966  -1.944  -1.668  0.00  0.00    +0.030 C 
BRANCH  23  24
ATOM     24  C   UNL     1       0.873  -0.423  -1.533  0.00  0.00    +0.070 C 
BRANCH  24  26
ATOM     25  C   UNL     1      -0.022   1.810   0.012  0.00  0.00    +0.084 C 
ATOM     26  S   UNL     1       0.002  -0.004   0.002  0.00  0.00    -0.164 S 
ENDBRANCH  24  26
ENDBRANCH  23  24
ENDBRANCH   1  23
BRANCH   6  27
ATOM     27  C   UNL     1       3.327  -5.845  -0.449  0.00  0.00    +0.121 C 
BRANCH  27  28
ATOM     28  C   UNL     1       3.970  -4.897   0.565  0.00  0.00    +0.054 C 
BRANCH  28  29
ATOM     29  C   UNL     1       4.340  -5.667   1.807  0.00  0.00    -0.046 A 
ATOM     30  C   UNL     1       3.429  -5.791   2.840  0.00  0.00    +0.004 A 
ATOM     31  C   UNL     1       3.768  -6.497   3.979  0.00  0.00    +0.000 A 
ATOM     32  C   UNL     1       5.017  -7.079   4.085  0.00  0.00    +0.000 A 
ATOM     33  C   UNL     1       5.928  -6.956   3.052  0.00  0.00    +0.000 A 
ATOM     34  C   UNL     1       5.587  -6.253   1.911  0.00  0.00    +0.004 A 
ENDBRANCH  28  29
ENDBRANCH  27  28
ENDBRANCH   6  27
TORSDOF 6
