REMARK  Name = ZINC40850342
REMARK  13 active torsions:
REMARK  status: ('A' for Active; 'I' for Inactive)
REMARK    1  A    between atoms: C_1  and  C_2
REMARK    2  A    between atoms: C_4  and  C_37
REMARK    3  A    between atoms: C_9  and  C_33
REMARK    4  A    between atoms: C_11  and  S_13
REMARK    5  A    between atoms: S_13  and  C_14
REMARK    6  A    between atoms: C_14  and  C_15
REMARK    7  A    between atoms: C_15  and  C_16
REMARK    8  A    between atoms: N_21  and  C_24
REMARK    9  A    between atoms: C_27  and  C_30
REMARK   10  A    between atoms: C_30  and  C_32
REMARK   11  A    between atoms: C_33  and  C_34
REMARK   12  A    between atoms: C_34  and  C_35
REMARK   13  A    between atoms: C_34  and  C_36
REMARK                            x       y       z     vdW  Elec       q    Type
REMARK                         _______ _______ _______ _____ _____    ______ ____
ROOT
ATOM      1  C   UNL     1       0.061  -6.788  -0.867  0.00  0.00    +0.085 C 
ENDROOT
BRANCH   1   2
ATOM      2  S   UNL     1       0.053  -7.133   0.914  0.00  0.00    -0.105 S 
BRANCH   2  13
ATOM      3  C   UNL     1      -0.052   1.499   0.020  0.00  0.00    +0.067 C 
ATOM      4  C   UNL     1      -0.035  -0.007   0.011  0.00  0.00    +0.061 A 
ATOM      5  C   UNL     1      -0.022  -0.820  -1.129  0.00  0.00    +0.048 A 
ATOM      6  C   UNL     1      -0.009  -2.110  -0.722  0.00  0.00    +0.045 A 
ATOM      7  N   UNL     1      -0.014  -2.112   0.638  0.00  0.00    -0.202 N 
ATOM      8  N   UNL     1      -0.025  -0.778   1.068  0.00  0.00    -0.169 NA
ATOM      9  C   UNL     1      -0.004  -3.240   1.458  0.00  0.00    +0.253 A 
ATOM     10  N   UNL     1      -0.016  -3.082   2.772  0.00  0.00    -0.216 NA
ATOM     11  C   UNL     1      -0.008  -4.128   3.585  0.00  0.00    +0.048 A 
ATOM     12  C   UNL     1       0.013  -5.400   3.048  0.00  0.00    +0.058 A 
ATOM     13  C   UNL     1       0.025  -5.535   1.657  0.00  0.00    +0.103 A 
ATOM     14  N   UNL     1       0.011  -4.440   0.903  0.00  0.00    -0.204 NA
ATOM     15  C   UNL     1       0.007  -3.325  -1.613  0.00  0.00    +0.066 C 
BRANCH  11  16
ATOM     16  C   UNL     1      -0.021  -3.932   5.079  0.00  0.00    +0.058 C 
BRANCH  16  17
ATOM     17  C   UNL     1       1.146  -3.030   5.485  0.00  0.00    -0.011 C 
ATOM     18  C   UNL     1       0.942  -1.634   4.892  0.00  0.00    +0.007 C 
ATOM     19  C   UNL     1       1.207  -2.931   7.011  0.00  0.00    +0.007 C 
ENDBRANCH  16  17
ENDBRANCH  11  16
ENDBRANCH   2  13
ENDBRANCH   1   2
BRANCH   1  20
ATOM     20  C   UNL     1       0.085  -8.108  -1.641  0.00  0.00    +0.107 C 
BRANCH  20  21
ATOM     21  C   UNL     1       0.092  -7.822  -3.121  0.00  0.00    +0.216 C 
ATOM     22  O   UNL     1       0.079  -6.675  -3.517  0.00  0.00    -0.276 OA
ATOM     23  N   UNL     1       0.113  -8.839  -4.004  0.00  0.00    -0.298 N 
ATOM     24  C   UNL     1       0.122 -10.233  -3.539  0.00  0.00    +0.126 C 
ATOM     25  C   UNL     1      -1.057 -10.973  -4.182  0.00  0.00    +0.124 C 
ATOM     26  N   UNL     1      -1.044 -10.709  -5.628  0.00  0.00    -0.327 N 
ATOM     27  C   UNL     1      -1.054  -9.315  -6.093  0.00  0.00    +0.124 C 
ATOM     28  C   UNL     1       0.119  -8.575  -5.450  0.00  0.00    +0.126 C 
BRANCH  26  29
ATOM     29  C   UNL     1      -1.023 -11.758  -6.538  0.00  0.00    +0.030 A 
ATOM     30  C   UNL     1      -0.895 -13.069  -6.084  0.00  0.00    +0.024 A 
ATOM     31  C   UNL     1      -0.873 -14.103  -6.975  0.00  0.00    +0.013 A 
ATOM     32  C   UNL     1      -0.981 -13.844  -8.348  0.00  0.00    +0.017 A 
ATOM     33  C   UNL     1      -1.110 -12.524  -8.800  0.00  0.00    +0.013 A 
ATOM     34  C   UNL     1      -1.136 -11.497  -7.902  0.00  0.00    +0.024 A 
BRANCH  32  35
ATOM     35  C   UNL     1      -0.957 -14.953  -9.310  0.00  0.00    +0.160 C 
ATOM     36  O   UNL     1      -0.943 -16.099  -8.914  0.00  0.00    -0.292 OA
ATOM     37  C   UNL     1      -0.951 -14.666 -10.790  0.00  0.00    +0.091 C 
ENDBRANCH  32  35
ENDBRANCH  26  29
ENDBRANCH  20  21
ENDBRANCH   1  20
TORSDOF 8
