REMARK  Name = ZINC00699772
REMARK  12 active torsions:
REMARK  status: ('A' for Active; 'I' for Inactive)
REMARK    1  A    between atoms: C_1  and  C_2
REMARK    2  A    between atoms: C_6  and  N_9
REMARK    3  A    between atoms: C_7  and  C_8
REMARK    4  A    between atoms: N_12  and  C_13
REMARK    5  A    between atoms: N_12  and  C_20
REMARK    6  A    between atoms: C_13  and  C_14
REMARK    7  A    between atoms: C_20  and  C_21
REMARK    8  A    between atoms: N_23  and  C_24
REMARK    9  A    between atoms: N_23  and  C_32
REMARK   10  A    between atoms: C_24  and  C_25
REMARK   11  A    between atoms: C_32  and  C_33
REMARK   12  A    between atoms: C_34  and  C_38
REMARK                            x       y       z     vdW  Elec       q    Type
REMARK                         _______ _______ _______ _____ _____    ______ ____
ROOT
ATOM      1  N   UNL     1      -3.623  -0.614   2.817  0.00  0.00    -0.269 N 
ATOM      2  C   UNL     1      -2.883   0.283   3.499  0.00  0.00    +0.307 C 
ATOM      3  O   UNL     1      -2.801   0.208   4.709  0.00  0.00    -0.252 OA
ATOM      4  N   UNL     1      -2.234   1.262   2.838  0.00  0.00    -0.274 N 
ATOM      5  H   UNL     1      -3.637  -0.593   1.717  0.00  0.00    +0.156 HD
ENDROOT
BRANCH   1  11
ATOM      6  C   UNL     1      -7.543  -3.575   3.025  0.00  0.00    +0.044 C 
ATOM      7  C   UNL     1      -6.278  -3.024   3.632  0.00  0.00    -0.046 A 
ATOM      8  C   UNL     1      -5.859  -3.465   4.874  0.00  0.00    +0.004 A 
ATOM      9  C   UNL     1      -4.699  -2.961   5.435  0.00  0.00    +0.002 A 
ATOM     10  C   UNL     1      -3.953  -2.019   4.753  0.00  0.00    +0.023 A 
ATOM     11  C   UNL     1      -4.374  -1.571   3.508  0.00  0.00    +0.038 A 
ATOM     12  C   UNL     1      -5.539  -2.079   2.948  0.00  0.00    -0.026 A 
ATOM     13  C   UNL     1      -5.997  -1.599   1.594  0.00  0.00    +0.046 C 
ENDBRANCH   1  11
BRANCH   4  14
ATOM     14  C   UNL     1      -2.333   1.353   1.379  0.00  0.00    +0.141 C 
BRANCH  14  15
ATOM     15  C   UNL     1      -1.213   0.530   0.740  0.00  0.00    +0.136 C 
ATOM     16  C   UNL     1      -1.298   0.611  -0.800  0.00  0.00    +0.035 C 
ATOM     17  C   UNL     1       0.178   0.650  -1.256  0.00  0.00    +0.031 C 
ATOM     18  C   UNL     1       0.980   0.589   0.063  0.00  0.00    +0.160 C 
ATOM     19  O   UNL     1       0.078   1.095   1.070  0.00  0.00    -0.375 OA
ENDBRANCH  14  15
ENDBRANCH   4  14
BRANCH   4  20
ATOM     20  C   UNL     1      -1.430   2.237   3.579  0.00  0.00    +0.205 C 
BRANCH  20  21
ATOM     21  C   UNL     1      -2.292   3.412   3.962  0.00  0.00    +0.234 C 
ATOM     22  O   UNL     1      -3.463   3.434   3.648  0.00  0.00    -0.274 OA
ATOM     23  N   UNL     1      -1.761   4.439   4.655  0.00  0.00    -0.291 N 
BRANCH  23  24
ATOM     24  C   UNL     1      -2.599   5.582   5.028  0.00  0.00    +0.143 C 
BRANCH  24  25
ATOM     25  C   UNL     1      -3.123   5.386   6.427  0.00  0.00    -0.030 A 
ATOM     26  C   UNL     1      -4.327   4.738   6.630  0.00  0.00    +0.008 A 
ATOM     27  C   UNL     1      -4.806   4.553   7.913  0.00  0.00    +0.038 A 
ATOM     28  C   UNL     1      -4.084   5.026   8.995  0.00  0.00    +0.123 A 
ATOM     29  C   UNL     1      -2.880   5.679   8.791  0.00  0.00    +0.038 A 
ATOM     30  C   UNL     1      -2.401   5.858   7.508  0.00  0.00    +0.008 A 
ATOM     31  F   UNL     1      -4.553   4.850  10.250  0.00  0.00    -0.205 F 
ENDBRANCH  24  25
ENDBRANCH  23  24
BRANCH  23  32
ATOM     32  C   UNL     1      -0.346   4.414   5.035  0.00  0.00    +0.150 C 
BRANCH  32  33
ATOM     33  C   UNL     1       0.470   5.118   3.982  0.00  0.00    +0.010 A 
ATOM     34  C   UNL     1       0.910   6.400   3.959  0.00  0.00    -0.039 A 
ATOM     35  C   UNL     1       1.655   6.833   2.879  0.00  0.00    +0.011 A 
ATOM     36  C   UNL     1       1.915   5.967   1.869  0.00  0.00    +0.046 A 
ATOM     37  S   UNL     1       1.101   4.483   2.438  0.00  0.00    -0.100 S 
ATOM     38  C   UNL     1       0.594   7.337   5.096  0.00  0.00    +0.044 C 
ENDBRANCH  32  33
ENDBRANCH  23  32
ENDBRANCH  20  21
ENDBRANCH   4  20
TORSDOF 9
