REMARK  Name = ZINC47931881
REMARK  4 active torsions:
REMARK  status: ('A' for Active; 'I' for Inactive)
REMARK    1  A    between atoms: C_1  and  C_2
REMARK    2  A    between atoms: C_5  and  C_8
REMARK    3  A    between atoms: N_10  and  N_11
REMARK    4  A    between atoms: C_12  and  C_14
REMARK                            x       y       z     vdW  Elec       q    Type
REMARK                         _______ _______ _______ _____ _____    ______ ____
ROOT
ATOM      1  N   UNL     1       0.095  -6.332   1.134  0.00  0.00    -0.230 N 
ATOM      2  C   UNL     1       0.110  -7.012   2.298  0.00  0.00    +0.260 C 
ATOM      3  O   UNL     1       0.107  -6.411   3.353  0.00  0.00    -0.269 OA
ATOM      4  H   UNL     1       0.097  -6.813   0.292  0.00  0.00    +0.173 HD
ENDROOT
BRANCH   2   5
ATOM      5  C   UNL     1       0.130  -8.494   2.290  0.00  0.00    +0.040 A 
ATOM      6  C   UNL     1       0.139  -9.182   1.067  0.00  0.00    +0.014 A 
ATOM      7  C   UNL     1       0.157 -10.543   1.033  0.00  0.00    +0.016 A 
ATOM      8  C   UNL     1       0.167 -11.272   2.231  0.00  0.00    +0.065 A 
ATOM      9  C   UNL     1       0.159 -10.588   3.475  0.00  0.00    +0.080 A 
ATOM     10  C   UNL     1       0.145  -9.186   3.489  0.00  0.00    +0.041 A 
ATOM     11  N   UNL     1       0.169 -11.300   4.611  0.00  0.00    -0.223 NA
ATOM     12  C   UNL     1       0.187 -12.624   4.581  0.00  0.00    +0.180 A 
ATOM     13  N   UNL     1       0.196 -13.317   3.430  0.00  0.00    -0.301 N 
ATOM     14  H   UNL     1       0.209 -14.287   3.456  0.00  0.00    +0.171 HD
ATOM     15  C   UNL     1       0.186 -12.683   2.238  0.00  0.00    +0.260 A 
ATOM     16  O   UNL     1       0.195 -13.378   1.087  0.00  0.00    -0.267 OA
ATOM     17  S   UNL     1       0.200 -13.483   6.062  0.00  0.00    -0.011 S 
ENDBRANCH   2   5
BRANCH   1  20
ATOM     18  C   UNL     1       0.061  -4.251  -0.021  0.00  0.00    +0.260 C 
ATOM     19  O   UNL     1       0.064  -4.853  -1.077  0.00  0.00    -0.269 OA
ATOM     20  N   UNL     1       0.076  -4.931   1.142  0.00  0.00    -0.230 N 
ATOM     21  H   UNL     1       0.073  -4.451   1.985  0.00  0.00    +0.173 HD
BRANCH  18  26
ATOM     22  C   UNL     1      -0.018   1.503   0.010  0.00  0.00    +0.044 C 
ATOM     23  C   UNL     1       0.002  -0.004   0.002  0.00  0.00    -0.050 A 
ATOM     24  C   UNL     1       0.006  -0.686  -1.202  0.00  0.00    +0.004 A 
ATOM     25  C   UNL     1       0.025  -2.066  -1.216  0.00  0.00    +0.013 A 
ATOM     26  C   UNL     1       0.041  -2.773  -0.013  0.00  0.00    +0.038 A 
ATOM     27  C   UNL     1       0.037  -2.079   1.198  0.00  0.00    +0.013 A 
ATOM     28  C   UNL     1       0.023  -0.699   1.198  0.00  0.00    +0.004 A 
ENDBRANCH  18  26
ENDBRANCH   1  20
TORSDOF 3
