REMARK  Name = ZINC20446177
REMARK  17 active torsions:
REMARK  status: ('A' for Active; 'I' for Inactive)
REMARK    1  A    between atoms: C_1  and  C_2
REMARK    2  A    between atoms: C_2  and  O_3
REMARK    3  A    between atoms: O_3  and  C_4
REMARK    4  A    between atoms: C_9  and  O_10
REMARK    5  A    between atoms: O_10  and  C_11
REMARK    6  A    between atoms: C_11  and  C_12
REMARK    7  A    between atoms: C_13  and  C_28
REMARK    8  A    between atoms: N_15  and  C_19
REMARK    9  A    between atoms: C_22  and  C_25
REMARK   10  A    between atoms: C_25  and  C_26
REMARK   11  A    between atoms: C_25  and  C_27
REMARK   12  A    between atoms: C_30  and  O_38
REMARK   13  A    between atoms: C_31  and  O_36
REMARK   14  A    between atoms: C_32  and  O_34
REMARK   15  A    between atoms: O_34  and  C_35
REMARK   16  A    between atoms: O_36  and  C_37
REMARK   17  A    between atoms: O_38  and  C_39
REMARK                            x       y       z     vdW  Elec       q    Type
REMARK                         _______ _______ _______ _____ _____    ______ ____
ROOT
ATOM      1  C   UNL     1       5.310   0.434  -4.090  0.00  0.00    +0.162 A 
ATOM      2  C   UNL     1       5.101  -0.629  -3.229  0.00  0.00    +0.053 A 
ATOM      3  C   UNL     1       4.814  -0.401  -1.892  0.00  0.00    -0.030 A 
ATOM      4  C   UNL     1       4.735   0.889  -1.413  0.00  0.00    -0.015 A 
ATOM      5  C   UNL     1       4.945   1.958  -2.273  0.00  0.00    +0.055 A 
ATOM      6  C   UNL     1       5.232   1.737  -3.608  0.00  0.00    +0.162 A 
ATOM      7  C   UNL     1       4.425   1.178   0.029  0.00  0.00    +0.142 C 
ATOM      8  N   UNL     1       4.721   0.044   0.887  0.00  0.00    -0.260 N 
ATOM      9  C   UNL     1       4.797  -1.214   0.447  0.00  0.00    +0.225 C 
ATOM     10  O   UNL     1       5.039  -2.094   1.245  0.00  0.00    -0.275 OA
ATOM     11  C   UNL     1       4.596  -1.585  -0.990  0.00  0.00    +0.132 C 
ENDROOT
BRANCH   8  12
ATOM     12  C   UNL     1       4.940   0.283   2.248  0.00  0.00    +0.037 A 
ATOM     13  C   UNL     1       3.895   0.153   3.154  0.00  0.00    +0.024 A 
ATOM     14  C   UNL     1       4.115   0.385   4.497  0.00  0.00    +0.006 A 
ATOM     15  C   UNL     1       5.371   0.756   4.940  0.00  0.00    -0.045 A 
ATOM     16  C   UNL     1       6.412   0.892   4.040  0.00  0.00    +0.006 A 
ATOM     17  C   UNL     1       6.200   0.656   2.696  0.00  0.00    +0.024 A 
BRANCH  15  18
ATOM     18  C   UNL     1       5.606   1.014   6.406  0.00  0.00    +0.013 C 
ATOM     19  C   UNL     1       4.697   2.151   6.877  0.00  0.00    +0.012 C 
ATOM     20  C   UNL     1       5.292  -0.254   7.203  0.00  0.00    +0.012 C 
ENDBRANCH  15  18
ENDBRANCH   8  12
BRANCH   7  21
ATOM     21  C   UNL     1       2.963   1.521   0.157  0.00  0.00    -0.015 A 
ATOM     22  C   UNL     1       2.571   2.843   0.246  0.00  0.00    +0.055 A 
ATOM     23  C   UNL     1       1.226   3.162   0.364  0.00  0.00    +0.165 A 
ATOM     24  C   UNL     1       0.274   2.151   0.392  0.00  0.00    +0.204 A 
ATOM     25  C   UNL     1       0.672   0.823   0.301  0.00  0.00    +0.165 A 
ATOM     26  C   UNL     1       2.019   0.511   0.189  0.00  0.00    +0.055 A 
BRANCH  25  27
ATOM     27  O   UNL     1      -0.256  -0.171   0.329  0.00  0.00    -0.491 OA
ATOM     28  C   UNL     1       0.226  -1.512   0.231  0.00  0.00    +0.277 C 
ENDBRANCH  25  27
BRANCH  24  29
ATOM     29  O   UNL     1      -1.047   2.460   0.507  0.00  0.00    -0.488 OA
ATOM     30  C   UNL     1      -1.578   2.551   1.831  0.00  0.00    +0.277 C 
ENDBRANCH  24  29
BRANCH  23  31
ATOM     31  O   UNL     1       0.841   4.463   0.452  0.00  0.00    -0.491 OA
ATOM     32  C   UNL     1       1.874   5.450   0.417  0.00  0.00    +0.277 C 
ENDBRANCH  23  31
ENDBRANCH   7  21
BRANCH   1  33
ATOM     33  O   UNL     1       5.592   0.206  -5.401  0.00  0.00    -0.489 OA
BRANCH  33  35
ATOM     34  C   UNL     1       5.982  -1.214  -7.317  0.00  0.00    +0.048 C 
ATOM     35  C   UNL     1       5.657  -1.158  -5.823  0.00  0.00    +0.226 C 
ENDBRANCH  33  35
ENDBRANCH   1  33
BRANCH   6  36
ATOM     36  O   UNL     1       5.437   2.788  -4.446  0.00  0.00    -0.489 OA
BRANCH  36  37
ATOM     37  C   UNL     1       5.340   4.097  -3.880  0.00  0.00    +0.226 C 
ATOM     38  C   UNL     1       5.600   5.143  -4.966  0.00  0.00    +0.048 C 
ENDBRANCH  36  37
ENDBRANCH   6  36
TORSDOF 10
