REMARK  Name = ZINC39769481
REMARK  15 active torsions:
REMARK  status: ('A' for Active; 'I' for Inactive)
REMARK    1  A    between atoms: C_1  and  C_2
REMARK    2  A    between atoms: C_2  and  C_3
REMARK    3  A    between atoms: C_3  and  C_4
REMARK    4  A    between atoms: C_4  and  C_5
REMARK    5  A    between atoms: C_5  and  N_6
REMARK    6  A    between atoms: C_10  and  C_11
REMARK    7  A    between atoms: C_12  and  C_33
REMARK    8  A    between atoms: C_13  and  C_31
REMARK    9  A    between atoms: N_16  and  C_29
REMARK   10  A    between atoms: C_17  and  N_18
REMARK   11  A    between atoms: C_21  and  C_24
REMARK   12  A    between atoms: C_24  and  O_26
REMARK   13  A    between atoms: O_26  and  C_27
REMARK   14  A    between atoms: C_27  and  C_28
REMARK   15  A    between atoms: C_29  and  C_30
REMARK                            x       y       z     vdW  Elec       q    Type
REMARK                         _______ _______ _______ _____ _____    ______ ____
ROOT
ATOM      1  C   UNL     1      -1.438  -6.568   4.325  0.00  0.00    +0.019 A 
ATOM      2  C   UNL     1      -1.518  -5.167   4.385  0.00  0.00    -0.017 A 
ATOM      3  C   UNL     1      -2.607  -4.582   5.025  0.00  0.00    +0.120 A 
ATOM      4  C   UNL     1      -3.606  -5.409   5.598  0.00  0.00    +0.270 A 
ATOM      5  O   UNL     1      -4.562  -4.903   6.158  0.00  0.00    -0.266 OA
ATOM      6  N   UNL     1      -3.507  -6.749   5.527  0.00  0.00    -0.295 N 
ATOM      7  C   UNL     1      -2.457  -7.343   4.904  0.00  0.00    +0.112 A 
ATOM      8  C   UNL     1      -0.441  -4.311   3.768  0.00  0.00    +0.046 C 
ENDROOT
BRANCH   1  13
ATOM      9  N   UNL     1      -0.589  -6.437   0.092  0.00  0.00    -0.255 N 
ATOM     10  C   UNL     1      -0.979  -6.439   1.355  0.00  0.00    +0.258 C 
ATOM     11  O   UNL     1      -2.026  -5.914   1.689  0.00  0.00    -0.269 OA
ATOM     12  C   UNL     1      -0.136  -7.076   2.316  0.00  0.00    +0.077 C 
ATOM     13  C   UNL     1      -0.306  -7.216   3.659  0.00  0.00    +0.032 C 
ATOM     14  S   UNL     1       1.202  -7.641   1.275  0.00  0.00    -0.061 S 
ATOM     15  C   UNL     1       0.570  -7.025  -0.279  0.00  0.00    +0.121 C 
ATOM     16  S   UNL     1       1.260  -7.147  -1.841  0.00  0.00    -0.027 S 
BRANCH   9  17
ATOM     17  C   UNL     1      -1.427  -5.793  -0.921  0.00  0.00    +0.115 C 
BRANCH  17  18
ATOM     18  C   UNL     1      -2.418  -6.812  -1.486  0.00  0.00    +0.019 C 
BRANCH  18  19
ATOM     19  C   UNL     1      -3.295  -6.139  -2.545  0.00  0.00    +0.001 C 
BRANCH  19  21
ATOM     20  C   UNL     1      -5.162  -6.486  -4.168  0.00  0.00    +0.004 C 
ATOM     21  C   UNL     1      -4.285  -7.159  -3.110  0.00  0.00    -0.003 C 
ENDBRANCH  19  21
ENDBRANCH  18  19
ENDBRANCH  17  18
ENDBRANCH   9  17
ENDBRANCH   1  13
BRANCH   7  22
ATOM     22  N   UNL     1      -2.388  -8.705   4.844  0.00  0.00    -0.316 N 
ATOM     23  C   UNL     1      -2.971  -9.434   3.709  0.00  0.00    +0.107 C 
ATOM     24  C   UNL     1      -1.899 -10.348   3.107  0.00  0.00    +0.033 C 
ATOM     25  C   UNL     1      -1.325 -11.247   4.205  0.00  0.00    +0.101 C 
ATOM     26  C   UNL     1      -0.672 -10.382   5.285  0.00  0.00    +0.033 C 
ATOM     27  C   UNL     1      -1.725  -9.469   5.909  0.00  0.00    +0.107 C 
BRANCH  25  28
ATOM     28  C   UNL     1      -0.294 -12.170   3.609  0.00  0.00    +0.310 C 
ATOM     29  O   UNL     1      -0.044 -12.115   2.428  0.00  0.00    -0.251 OA
BRANCH  28  30
ATOM     30  O   UNL     1       0.346 -13.054   4.390  0.00  0.00    -0.465 OA
BRANCH  30  31
ATOM     31  C   UNL     1       1.311 -13.899   3.759  0.00  0.00    +0.229 C 
ATOM     32  C   UNL     1       1.931 -14.832   4.800  0.00  0.00    +0.048 C 
ENDBRANCH  30  31
ENDBRANCH  28  30
ENDBRANCH  25  28
ENDBRANCH   7  22
BRANCH   6  33
ATOM     33  C   UNL     1      -4.552  -7.581   6.127  0.00  0.00    +0.123 C 
ATOM     34  C   UNL     1      -5.708  -7.740   5.138  0.00  0.00    +0.027 C 
ENDBRANCH   6  33
BRANCH   3  35
ATOM     35  C   UNL     1      -2.717  -3.156   5.104  0.00  0.00    +0.105 C 
ATOM     36  N   UNL     1      -2.805  -2.025   5.166  0.00  0.00    -0.191 NA
ENDBRANCH   3  35
TORSDOF 11
