REMARK  Name = ZINC12984789
REMARK  7 active torsions:
REMARK  status: ('A' for Active; 'I' for Inactive)
REMARK    1  A    between atoms: C_1  and  C_2
REMARK    2  A    between atoms: C_2  and  C_4
REMARK    3  A    between atoms: C_2  and  N_63
REMARK    4  A    between atoms: N_6  and  C_7
REMARK    5  A    between atoms: C_19  and  N_22
REMARK    6  A    between atoms: N_22  and  S_23
REMARK    7  A    between atoms: S_23  and  C_26
REMARK                            x       y       z     vdW  Elec       q    Type
REMARK                         _______ _______ _______ _____ _____    ______ ____
ROOT
ATOM      1  C   UNL     1      -2.376   9.150  -2.442  0.00  0.00    -0.076 C 
ATOM      2  C   UNL     1      -2.899   9.579  -3.814  0.00  0.00    +0.002 C 
ATOM      3  C   UNL     1      -4.420   9.410  -3.852  0.00  0.00    +0.073 C 
ATOM      4  C   UNL     1      -4.771   7.951  -3.545  0.00  0.00    +0.002 C 
ATOM      5  C   UNL     1      -4.194   7.568  -2.181  0.00  0.00    -0.076 C 
ATOM      6  N   UNL     1      -2.724   7.731  -2.218  0.00  0.00    +0.387 N 
ATOM      7  H   UNL     1      -2.347   7.170  -2.991  0.00  0.00    -0.081 HD
ENDROOT
BRANCH   6   9
ATOM      8  C   UNL     1      -2.915   7.808   0.245  0.00  0.00    -0.004 C 
ATOM      9  C   UNL     1      -2.132   7.259  -0.950  0.00  0.00    +0.016 C 
BRANCH   9  10
ATOM     10  C   UNL     1      -2.174   5.753  -0.928  0.00  0.00    +0.200 C 
ATOM     11  O   UNL     1      -2.882   5.154  -1.709  0.00  0.00    -0.278 OA
ATOM     12  N   UNL     1      -1.423   5.071  -0.040  0.00  0.00    -0.311 N 
ATOM     13  H   UNL     1      -0.857   5.550   0.586  0.00  0.00    +0.149 HD
BRANCH  12  14
ATOM     14  C   UNL     1      -1.464   3.606  -0.018  0.00  0.00    +0.035 C 
ATOM     15  C   UNL     1      -1.013   3.064  -1.376  0.00  0.00    +0.029 C 
ATOM     16  C   UNL     1      -1.055   1.535  -1.354  0.00  0.00    -0.008 C 
ATOM     17  C   UNL     1      -0.119   1.015  -0.261  0.00  0.00    +0.007 C 
ATOM     18  C   UNL     1      -0.570   1.557   1.097  0.00  0.00    -0.008 C 
ATOM     19  C   UNL     1      -0.528   3.086   1.075  0.00  0.00    +0.029 C 
ATOM     20  C   UNL     1      -1.998   1.090   1.384  0.00  0.00    +0.007 C 
ATOM     21  C   UNL     1      -2.934   1.610   0.291  0.00  0.00    -0.008 C 
ATOM     22  C   UNL     1      -2.483   1.068  -1.067  0.00  0.00    +0.007 C 
ATOM     23  C   UNL     1      -2.892   3.139   0.269  0.00  0.00    +0.029 C 
ENDBRANCH  12  14
ENDBRANCH   9  10
ENDBRANCH   6   9
BRANCH   3  24
ATOM     24  N   UNL     1      -4.920   9.764  -5.182  0.00  0.00    -0.187 NA
ATOM     25  H   UNL     1      -4.918   9.104  -5.893  0.00  0.00    +0.148 HD
BRANCH  24  26
ATOM     26  S   UNL     1      -5.488  11.293  -5.473  0.00  0.00    +0.065 S 
ATOM     27  O   UNL     1      -5.869  11.331  -6.842  0.00  0.00    -0.153 OA
ATOM     28  O   UNL     1      -6.394  11.596  -4.421  0.00  0.00    -0.153 OA
BRANCH  26  29
ATOM     29  C   UNL     1      -4.125  12.397  -5.299  0.00  0.00    +0.142 A 
ATOM     30  C   UNL     1      -3.244  12.819  -6.237  0.00  0.00    +0.036 A 
ATOM     31  C   UNL     1      -2.243  13.698  -5.869  0.00  0.00    +0.010 A 
ATOM     32  C   UNL     1      -2.172  14.112  -4.580  0.00  0.00    +0.047 A 
ATOM     33  S   UNL     1      -3.554  13.255  -3.842  0.00  0.00    -0.077 S 
ENDBRANCH  26  29
ENDBRANCH  24  26
ENDBRANCH   3  24
TORSDOF 6
