REMARK  Name = ZINC12549529
REMARK  4 active torsions:
REMARK  status: ('A' for Active; 'I' for Inactive)
REMARK    1  A    between atoms: C_4  and  C_8
REMARK    2  A    between atoms: C_8  and  O_9
REMARK    3  A    between atoms: O_9  and  C_10
REMARK    4  A    between atoms: C_13  and  C_16
REMARK                            x       y       z     vdW  Elec       q    Type
REMARK                         _______ _______ _______ _____ _____    ______ ____
ROOT
ATOM      1  C   UNL     1       9.021  -3.680   1.979  0.00  0.00    +0.209 C 
ATOM      2  N   UNL     1       8.912  -4.629   3.103  0.00  0.00    -0.294 N 
ATOM      3  C   UNL     1       9.059  -4.130   4.390  0.00  0.00    +0.159 C 
ATOM      4  N   UNL     1      10.199  -3.363   4.633  0.00  0.00    -0.259 N 
ATOM      5  C   UNL     1      10.624  -2.582   3.560  0.00  0.00    +0.205 A 
ATOM      6  N   UNL     1      10.085  -2.724   2.303  0.00  0.00    -0.288 N 
ATOM      7  C   UNL     1      10.721  -1.824   1.475  0.00  0.00    +0.076 A 
ATOM      8  C   UNL     1      10.617  -1.511   0.125  0.00  0.00    +0.077 A 
ATOM      9  C   UNL     1      11.418  -0.523  -0.413  0.00  0.00    +0.164 A 
ATOM     10  C   UNL     1      12.332   0.159   0.386  0.00  0.00    +0.164 A 
ATOM     11  C   UNL     1      12.451  -0.144   1.726  0.00  0.00    +0.079 A 
ATOM     12  C   UNL     1      11.645  -1.141   2.284  0.00  0.00    +0.095 A 
ATOM     13  N   UNL     1      11.535  -1.653   3.546  0.00  0.00    -0.214 NA
ATOM     14  O   UNL     1      13.112   1.135  -0.166  0.00  0.00    -0.488 OA
ATOM     15  C   UNL     1      14.100   0.693  -1.099  0.00  0.00    +0.232 C 
ATOM     16  C   UNL     1      13.501   0.544  -2.488  0.00  0.00    +0.082 C 
ATOM     17  C   UNL     1      12.444  -0.547  -2.549  0.00  0.00    +0.232 C 
ATOM     18  O   UNL     1      11.318  -0.208  -1.739  0.00  0.00    -0.488 OA
ATOM     19  N   UNL     1       8.179  -4.364   5.321  0.00  0.00    -0.375 N 
ATOM     20  H   UNL     1       8.742  -5.571   2.949  0.00  0.00    +0.151 HD
ATOM     21  H   UNL     1       7.395  -4.901   5.124  0.00  0.00    +0.158 HD
ATOM     22  H   UNL     1      10.661  -3.372   5.486  0.00  0.00    +0.158 HD
ATOM     23  H   UNL     1       8.307  -4.003   6.212  0.00  0.00    +0.158 HD
ENDROOT
BRANCH   1  27
ATOM     24  C   UNL     1       5.319  -1.608   1.467  0.00  0.00    +0.121 A 
ATOM     25  C   UNL     1       6.049  -2.011   0.358  0.00  0.00    +0.046 A 
ATOM     26  C   UNL     1       7.246  -2.680   0.527  0.00  0.00    +0.011 A 
ATOM     27  C   UNL     1       7.716  -2.949   1.799  0.00  0.00    -0.007 A 
ATOM     28  C   UNL     1       6.990  -2.550   2.905  0.00  0.00    +0.011 A 
ATOM     29  C   UNL     1       5.795  -1.875   2.743  0.00  0.00    +0.046 A 
BRANCH  24  30
ATOM     30  O   UNL     1       4.142  -0.949   1.304  0.00  0.00    -0.487 OA
BRANCH  30  31
ATOM     31  C   UNL     1       3.713  -0.710  -0.038  0.00  0.00    +0.268 C 
BRANCH  31  35
ATOM     32  C   UNL     1      -0.017   1.378   0.010  0.00  0.00    +0.004 A 
ATOM     33  C   UNL     1       1.170   2.086   0.002  0.00  0.00    +0.039 A 
ATOM     34  C   UNL     1       2.379   1.411  -0.013  0.00  0.00    +0.131 A 
ATOM     35  C   UNL     1       2.398   0.026  -0.021  0.00  0.00    +0.043 A 
ATOM     36  C   UNL     1       1.209  -0.680  -0.013  0.00  0.00    +0.050 A 
ATOM     37  C   UNL     1       0.002  -0.004   0.002  0.00  0.00    +0.020 A 
ATOM     38 CL   UNL     1       1.232  -2.416  -0.022  0.00  0.00    -0.083 Cl
ATOM     39  F   UNL     1       3.539   2.103  -0.021  0.00  0.00    -0.205 F 
ENDBRANCH  31  35
ENDBRANCH  30  31
ENDBRANCH  24  30
ENDBRANCH   1  27
TORSDOF 4
