REMARK  Name = ZINC23824358
REMARK  7 active torsions:
REMARK  status: ('A' for Active; 'I' for Inactive)
REMARK    1  A    between atoms: C_1  and  C_2
REMARK    2  A    between atoms: C_8  and  N_10
REMARK    3  A    between atoms: C_14  and  C_16
REMARK    4  A    between atoms: C_16  and  N_17
REMARK    5  A    between atoms: N_20  and  C_23
REMARK    6  A    between atoms: C_26  and  C_32
REMARK    7  A    between atoms: C_28  and  N_29
REMARK                            x       y       z     vdW  Elec       q    Type
REMARK                         _______ _______ _______ _____ _____    ______ ____
ROOT
ATOM      1  N   UNL     1      -3.611   1.792   0.029  0.00  0.00    +0.387 N 
ATOM      2  C   UNL     1      -3.656   2.547   1.289  0.00  0.00    -0.059 C 
ATOM      3  C   UNL     1      -4.795   3.568   1.228  0.00  0.00    +0.086 C 
ATOM      4  N   UNL     1      -6.065   2.867   0.992  0.00  0.00    -0.332 N 
ATOM      5  C   UNL     1      -6.020   2.112  -0.268  0.00  0.00    +0.086 C 
ATOM      6  C   UNL     1      -4.881   1.091  -0.207  0.00  0.00    -0.059 C 
ATOM      7  H   UNL     1      -3.461   2.508  -0.792  0.00  0.00    -0.081 HD
ENDROOT
BRANCH   4   8
ATOM      8  C   UNL     1      -7.139   3.760   1.002  0.00  0.00    +0.060 A 
ATOM      9  C   UNL     1      -7.225   4.757   0.037  0.00  0.00    +0.026 A 
ATOM     10  C   UNL     1      -8.288   5.638   0.050  0.00  0.00    +0.014 A 
ATOM     11  C   UNL     1      -9.267   5.530   1.022  0.00  0.00    +0.057 A 
ATOM     12  C   UNL     1      -9.184   4.539   1.983  0.00  0.00    +0.047 A 
ATOM     13  C   UNL     1      -8.127   3.651   1.972  0.00  0.00    +0.148 A 
BRANCH  11  14
ATOM     14  C   UNL     1     -10.425   6.493   1.032  0.00  0.00    +0.417 C 
ATOM     15  F   UNL     1     -10.291   7.396  -0.028  0.00  0.00    -0.166 F 
ATOM     16  F   UNL     1     -11.623   5.784   0.892  0.00  0.00    -0.166 F 
ATOM     17  F   UNL     1     -10.438   7.194   2.243  0.00  0.00    -0.166 F 
ENDBRANCH  11  14
BRANCH  13  18
ATOM     18  N   UNL     1      -8.043   2.587   2.998  0.00  0.00    +0.058 N 
ATOM     19  O   UNL     1      -8.909   2.492   3.849  0.00  0.00    -0.126 OA
ATOM     20  O   UNL     1      -7.107   1.807   2.991  0.00  0.00    -0.126 OA
ENDBRANCH  13  18
ENDBRANCH   4   8
BRANCH   1  21
ATOM     21  C   UNL     1      -2.482   0.853   0.018  0.00  0.00    +0.019 C 
BRANCH  21  26
ATOM     22  N   UNL     1       2.323   0.998  -0.015  0.00  0.00    -0.296 N 
ATOM     23  C   UNL     1       1.147   1.655   0.000  0.00  0.00    +0.306 C 
ATOM     24  O   UNL     1       1.130   2.871   0.007  0.00  0.00    -0.252 OA
ATOM     25  N   UNL     1      -0.011   0.966   0.007  0.00  0.00    -0.242 N 
ATOM     26  C   UNL     1      -1.187   1.624   0.017  0.00  0.00    +0.204 C 
ATOM     27  O   UNL     1      -1.204   2.836   0.023  0.00  0.00    -0.277 OA
ATOM     28  H   UNL     1       2.338  -0.102  -0.021  0.00  0.00    +0.151 HD
ATOM     29  H   UNL     1       0.004  -0.134   0.006  0.00  0.00    +0.159 HD
BRANCH  22  36
ATOM     30  C   UNL     1       4.334   0.505   2.010  0.00  0.00    +0.009 C 
ATOM     31  C   UNL     1       4.694   0.882   0.572  0.00  0.00    +0.006 C 
ATOM     32  C   UNL     1       6.009   1.665   0.563  0.00  0.00    +0.005 C 
ATOM     33  C   UNL     1       6.369   2.042  -0.875  0.00  0.00    +0.000 C 
ATOM     34  C   UNL     1       5.256   2.907  -1.470  0.00  0.00    +0.002 C 
ATOM     35  C   UNL     1       3.942   2.124  -1.461  0.00  0.00    +0.022 C 
ATOM     36  C   UNL     1       3.582   1.747  -0.023  0.00  0.00    +0.077 C 
ENDBRANCH  22  36
ENDBRANCH  21  26
ENDBRANCH   1  21
TORSDOF 6
