REMARK  Name = ZINC23449518
REMARK  11 active torsions:
REMARK  status: ('A' for Active; 'I' for Inactive)
REMARK    1  A    between atoms: C_1  and  C_2
REMARK    2  A    between atoms: C_5  and  C_8
REMARK    3  A    between atoms: C_8  and  O_9
REMARK    4  A    between atoms: O_9  and  C_10
REMARK    5  A    between atoms: C_10  and  C_12
REMARK    6  A    between atoms: C_10  and  C_29
REMARK    7  A    between atoms: C_12  and  N_13
REMARK    8  A    between atoms: N_16  and  S_19
REMARK    9  A    between atoms: S_19  and  C_22
REMARK   10  A    between atoms: C_33  and  O_35
REMARK   11  A    between atoms: O_35  and  C_36
REMARK                            x       y       z     vdW  Elec       q    Type
REMARK                         _______ _______ _______ _____ _____    ______ ____
ROOT
ATOM      1  C   UNL     1      -0.591   1.730   3.656  0.00  0.00    +0.132 C 
ENDROOT
BRANCH   1   2
ATOM      2  C   UNL     1       0.186   1.272   4.863  0.00  0.00    -0.017 A 
ATOM      3  C   UNL     1      -0.170   0.104   5.511  0.00  0.00    +0.006 A 
ATOM      4  C   UNL     1       0.544  -0.323   6.615  0.00  0.00    +0.004 A 
ATOM      5  C   UNL     1       1.610   0.424   7.080  0.00  0.00    +0.045 A 
ATOM      6  C   UNL     1       1.966   1.599   6.435  0.00  0.00    +0.120 A 
ATOM      7  C   UNL     1       1.251   2.022   5.324  0.00  0.00    +0.051 A 
BRANCH   6   8
ATOM      8  O   UNL     1       3.014   2.335   6.891  0.00  0.00    -0.495 OA
ATOM      9  C   UNL     1       3.704   1.839   8.039  0.00  0.00    +0.277 C 
ENDBRANCH   6   8
ENDBRANCH   1   2
BRANCH   1  10
ATOM     10  O   UNL     1      -1.984   1.493   3.869  0.00  0.00    -0.369 OA
BRANCH  10  11
ATOM     11  C   UNL     1      -2.673   2.583   4.484  0.00  0.00    +0.195 C 
BRANCH  11  16
ATOM     12  C   UNL     1      -8.246   1.209   5.155  0.00  0.00    +0.044 C 
ATOM     13  C   UNL     1      -6.793   1.568   4.980  0.00  0.00    -0.050 A 
ATOM     14  C   UNL     1      -5.883   1.274   5.979  0.00  0.00    +0.004 A 
ATOM     15  C   UNL     1      -4.550   1.603   5.819  0.00  0.00    +0.006 A 
ATOM     16  C   UNL     1      -4.126   2.224   4.659  0.00  0.00    -0.022 A 
ATOM     17  C   UNL     1      -5.036   2.522   3.662  0.00  0.00    +0.006 A 
ATOM     18  C   UNL     1      -6.369   2.189   3.821  0.00  0.00    +0.004 A 
ENDBRANCH  11  16
ENDBRANCH  10  11
ENDBRANCH   1  10
BRANCH   1  19
ATOM     19  C   UNL     1      -0.123   0.955   2.423  0.00  0.00    -0.042 C 
BRANCH  19  20
ATOM     20  N   UNL     1      -0.901   1.382   1.252  0.00  0.00    +0.383 N 
ATOM     21  C   UNL     1      -0.419   0.722   0.032  0.00  0.00    -0.061 C 
ATOM     22  C   UNL     1      -1.363   1.050  -1.130  0.00  0.00    +0.091 C 
ATOM     23  N   UNL     1      -1.497   2.512  -1.224  0.00  0.00    -0.180 NA
ATOM     24  C   UNL     1      -1.844   3.259  -0.006  0.00  0.00    +0.091 C 
ATOM     25  C   UNL     1      -0.881   2.844   1.111  0.00  0.00    -0.061 C 
ATOM     26  H   UNL     1      -1.946   1.075   1.408  0.00  0.00    -0.082 HD
BRANCH  23  27
ATOM     27  S   UNL     1      -1.263   3.295  -2.665  0.00  0.00    +0.062 S 
ATOM     28  O   UNL     1      -0.907   4.634  -2.346  0.00  0.00    -0.153 OA
ATOM     29  O   UNL     1      -0.433   2.454  -3.454  0.00  0.00    -0.153 OA
BRANCH  27  30
ATOM     30  C   UNL     1      -2.825   3.369  -3.477  0.00  0.00    +0.124 A 
ATOM     31  C   UNL     1      -3.433   4.591  -3.696  0.00  0.00    +0.030 A 
ATOM     32  C   UNL     1      -4.656   4.649  -4.338  0.00  0.00    +0.002 A 
ATOM     33  C   UNL     1      -5.276   3.485  -4.752  0.00  0.00    +0.002 A 
ATOM     34  C   UNL     1      -4.671   2.263  -4.529  0.00  0.00    +0.022 A 
ATOM     35  C   UNL     1      -3.445   2.204  -3.891  0.00  0.00    +0.067 A 
ATOM     36 CL   UNL     1      -2.685   0.669  -3.610  0.00  0.00    -0.082 Cl
ENDBRANCH  27  30
ENDBRANCH  23  27
ENDBRANCH  19  20
ENDBRANCH   1  19
TORSDOF 9
