REMARK  Name = ZINC36558590
REMARK  15 active torsions:
REMARK  status: ('A' for Active; 'I' for Inactive)
REMARK    1  A    between atoms: C_1  and  C_2
REMARK    2  A    between atoms: C_2  and  C_3
REMARK    3  A    between atoms: C_3  and  C_5
REMARK    4  A    between atoms: C_3  and  C_11
REMARK    5  A    between atoms: N_13  and  C_14
REMARK    6  A    between atoms: N_13  and  C_21
REMARK    7  A    between atoms: C_14  and  C_15
REMARK    8  A    between atoms: C_18  and  C_20
REMARK    9  A    between atoms: C_21  and  C_23
REMARK   10  A    between atoms: C_21  and  C_32
REMARK   11  A    between atoms: C_26  and  N_29
REMARK   12  A    between atoms: N_34  and  C_35
REMARK   13  A    between atoms: C_35  and  C_36
REMARK   14  A    between atoms: C_35  and  C_37
REMARK   15  A    between atoms: C_35  and  C_38
REMARK                            x       y       z     vdW  Elec       q    Type
REMARK                         _______ _______ _______ _____ _____    ______ ____
ROOT
ATOM      1  C   UNL     1      -1.700  -3.183  -0.242  0.00  0.00    +0.224 C 
ATOM      2  O   UNL     1      -1.764  -4.153  -0.967  0.00  0.00    -0.275 OA
ATOM      3  N   UNL     1      -1.380  -3.334   1.058  0.00  0.00    -0.278 N 
ENDROOT
BRANCH   1   4
ATOM      4  C   UNL     1      -1.976  -1.809  -0.795  0.00  0.00    +0.105 C 
BRANCH   4   5
ATOM      5  C   UNL     1      -2.495  -1.930  -2.205  0.00  0.00    -0.036 A 
ATOM      6  C   UNL     1      -1.722  -2.537  -3.177  0.00  0.00    +0.004 A 
ATOM      7  C   UNL     1      -2.198  -2.647  -4.470  0.00  0.00    +0.000 A 
ATOM      8  C   UNL     1      -3.448  -2.152  -4.790  0.00  0.00    +0.000 A 
ATOM      9  C   UNL     1      -4.222  -1.546  -3.818  0.00  0.00    +0.000 A 
ATOM     10  C   UNL     1      -3.747  -1.438  -2.525  0.00  0.00    +0.004 A 
ENDBRANCH   4   5
BRANCH   4  12
ATOM     11  C   UNL     1      -1.000   0.463  -1.155  0.00  0.00    +0.005 C 
ATOM     12  C   UNL     1      -0.683  -0.990  -0.796  0.00  0.00    +0.014 C 
ENDBRANCH   4  12
ENDBRANCH   1   4
BRANCH   3  13
ATOM     13  C   UNL     1      -1.433  -2.184   1.964  0.00  0.00    +0.183 C 
BRANCH  13  14
ATOM     14  C   UNL     1      -2.835  -1.633   1.995  0.00  0.00    +0.122 A 
ATOM     15  C   UNL     1      -3.872  -2.155   2.675  0.00  0.00    +0.046 A 
ATOM     16  C   UNL     1      -4.988  -1.325   2.422  0.00  0.00    +0.045 A 
ATOM     17  C   UNL     1      -4.567  -0.345   1.603  0.00  0.00    +0.102 A 
ATOM     18  O   UNL     1      -3.261  -0.533   1.352  0.00  0.00    -0.463 OA
ATOM     19  C   UNL     1      -5.415   0.778   1.063  0.00  0.00    +0.086 C 
ENDBRANCH  13  14
ENDBRANCH   3  13
BRANCH   3  20
ATOM     20  C   UNL     1      -0.980  -4.649   1.567  0.00  0.00    +0.193 C 
BRANCH  20  21
ATOM     21  C   UNL     1       0.513  -4.677   1.766  0.00  0.00    -0.018 A 
ATOM     22  C   UNL     1       1.142  -3.638   2.427  0.00  0.00    +0.008 A 
ATOM     23  C   UNL     1       2.512  -3.664   2.610  0.00  0.00    +0.033 A 
ATOM     24  C   UNL     1       3.253  -4.729   2.133  0.00  0.00    +0.126 A 
ATOM     25  C   UNL     1       2.624  -5.769   1.473  0.00  0.00    +0.033 A 
ATOM     26  C   UNL     1       1.253  -5.745   1.294  0.00  0.00    +0.008 A 
BRANCH  24  27
ATOM     27  N   UNL     1       4.720  -4.757   2.328  0.00  0.00    +0.056 N 
ATOM     28  O   UNL     1       5.270  -3.848   2.905  0.00  0.00    -0.126 OA
ATOM     29  O   UNL     1       5.368  -5.688   1.911  0.00  0.00    -0.126 OA
ENDBRANCH  24  27
ENDBRANCH  20  21
BRANCH  20  30
ATOM     30  C   UNL     1      -1.668  -4.910   2.882  0.00  0.00    +0.238 C 
ATOM     31  O   UNL     1      -2.337  -4.040   3.399  0.00  0.00    -0.273 OA
ATOM     32  N   UNL     1      -1.539  -6.109   3.483  0.00  0.00    -0.309 N 
ATOM     33  H   UNL     1      -0.947  -6.779   3.108  0.00  0.00    +0.149 HD
BRANCH  32  34
ATOM     34  C   UNL     1      -2.293  -6.400   4.705  0.00  0.00    +0.026 C 
ATOM     35  C   UNL     1      -3.792  -6.310   4.413  0.00  0.00    +0.031 C 
ATOM     36  C   UNL     1      -1.952  -7.810   5.191  0.00  0.00    +0.031 C 
ATOM     37  C   UNL     1      -1.923  -5.384   5.788  0.00  0.00    +0.031 C 
ENDBRANCH  32  34
ENDBRANCH  20  30
ENDBRANCH   3  20
TORSDOF 10
