REMARK  Name = ZINC34761587
REMARK  9 active torsions:
REMARK  status: ('A' for Active; 'I' for Inactive)
REMARK    1  A    between atoms: C_1  and  C_2
REMARK    2  A    between atoms: C_2  and  C_3
REMARK    3  A    between atoms: C_4  and  C_34
REMARK    4  A    between atoms: C_8  and  N_20
REMARK    5  A    between atoms: C_10  and  S_12
REMARK    6  A    between atoms: S_12  and  C_13
REMARK    7  A    between atoms: C_13  and  C_14
REMARK    8  A    between atoms: N_23  and  C_26
REMARK    9  A    between atoms: C_26  and  C_27
REMARK                            x       y       z     vdW  Elec       q    Type
REMARK                         _______ _______ _______ _____ _____    ______ ____
ROOT
ATOM      1  C   UNL     1       0.576  -0.597  -1.264  0.00  0.00    -0.025 A 
ATOM      2  C   UNL     1      -0.199  -0.768  -2.344  0.00  0.00    -0.007 A 
ATOM      3  S   UNL     1       0.944  -1.326  -3.594  0.00  0.00    -0.073 S 
ATOM      4  C   UNL     1       2.433  -1.314  -2.631  0.00  0.00    +0.115 A 
ATOM      5  C   UNL     1       2.001  -0.870  -1.362  0.00  0.00    +0.051 A 
ATOM      6  C   UNL     1       3.016  -0.760  -0.372  0.00  0.00    +0.134 A 
ATOM      7  N   UNL     1       4.264  -1.066  -0.688  0.00  0.00    -0.206 NA
ATOM      8  C   UNL     1       4.604  -1.473  -1.905  0.00  0.00    +0.191 A 
ATOM      9  N   UNL     1       3.698  -1.603  -2.865  0.00  0.00    -0.215 NA
ATOM     10  C   UNL     1      -1.684  -0.543  -2.472  0.00  0.00    +0.052 C 
ENDROOT
BRANCH   6  11
ATOM     11  N   UNL     1       2.703  -0.339   0.907  0.00  0.00    -0.318 N 
ATOM     12  C   UNL     1       2.385  -1.309   1.966  0.00  0.00    +0.088 C 
ATOM     13  C   UNL     1       3.238  -0.982   3.196  0.00  0.00    -0.059 C 
ATOM     14  N   UNL     1       3.030   0.421   3.576  0.00  0.00    +0.384 N 
ATOM     15  C   UNL     1       3.518   1.306   2.511  0.00  0.00    -0.059 C 
ATOM     16  C   UNL     1       2.683   1.092   1.248  0.00  0.00    +0.088 C 
ATOM     17  H   UNL     1       2.045   0.586   3.724  0.00  0.00    -0.081 HD
BRANCH  14  18
ATOM     18  C   UNL     1       3.762   0.704   4.818  0.00  0.00    -0.043 C 
BRANCH  18  19
ATOM     19  C   UNL     1       3.452   2.105   5.276  0.00  0.00    -0.064 A 
ATOM     20  C   UNL     1       4.230   3.162   4.843  0.00  0.00    +0.003 A 
ATOM     21  C   UNL     1       3.946   4.448   5.263  0.00  0.00    +0.020 A 
ATOM     22  C   UNL     1       2.882   4.678   6.117  0.00  0.00    +0.041 A 
ATOM     23  C   UNL     1       2.103   3.619   6.550  0.00  0.00    +0.020 A 
ATOM     24  C   UNL     1       2.385   2.335   6.125  0.00  0.00    +0.003 A 
ATOM     25 CL   UNL     1       2.526   6.292   6.645  0.00  0.00    -0.084 Cl
ENDBRANCH  18  19
ENDBRANCH  14  18
ENDBRANCH   6  11
BRANCH   1  27
ATOM     26  C   UNL     1      -0.119   1.406   0.022  0.00  0.00    +0.009 C 
ATOM     27  C   UNL     1      -0.021  -0.121   0.035  0.00  0.00    +0.033 C 
ENDBRANCH   1  27
BRANCH   8  28
ATOM     28  S   UNL     1       6.288  -1.861  -2.247  0.00  0.00    -0.081 S 
BRANCH  28  29
ATOM     29  C   UNL     1       6.278  -2.360  -3.991  0.00  0.00    +0.112 C 
BRANCH  29  30
ATOM     30  C   UNL     1       7.677  -2.723  -4.418  0.00  0.00    -0.037 A 
ATOM     31  C   UNL     1       8.516  -1.754  -4.934  0.00  0.00    +0.004 A 
ATOM     32  C   UNL     1       9.799  -2.087  -5.326  0.00  0.00    +0.000 A 
ATOM     33  C   UNL     1      10.243  -3.390  -5.201  0.00  0.00    +0.000 A 
ATOM     34  C   UNL     1       9.405  -4.359  -4.684  0.00  0.00    +0.000 A 
ATOM     35  C   UNL     1       8.123  -4.025  -4.288  0.00  0.00    +0.004 A 
ENDBRANCH  29  30
ENDBRANCH  28  29
ENDBRANCH   8  28
TORSDOF 7
