REMARK  Name = ZINC33661681
REMARK  17 active torsions:
REMARK  status: ('A' for Active; 'I' for Inactive)
REMARK    1  A    between atoms: C_1  and  C_2
REMARK    2  A    between atoms: C_2  and  C_3
REMARK    3  A    between atoms: C_3  and  C_5
REMARK    4  A    between atoms: C_3  and  N_6
REMARK    5  A    between atoms: N_6  and  C_7
REMARK    6  A    between atoms: C_7  and  C_8
REMARK    7  A    between atoms: N_10  and  C_11
REMARK    8  A    between atoms: N_10  and  C_25
REMARK    9  A    between atoms: C_11  and  C_12
REMARK   10  A    between atoms: N_16  and  C_17
REMARK   11  A    between atoms: C_17  and  C_18
REMARK   12  A    between atoms: C_25  and  C_26
REMARK   13  A    between atoms: C_26  and  C_27
REMARK   14  A    between atoms: C_26  and  C_28
REMARK   15  A    between atoms: N_31  and  C_32
REMARK   16  A    between atoms: C_37  and  O_38
REMARK   17  A    between atoms: O_38  and  C_39
REMARK                            x       y       z     vdW  Elec       q    Type
REMARK                         _______ _______ _______ _____ _____    ______ ____
ROOT
ATOM      1  C   UNL     1      -1.078   1.649   0.891  0.00  0.00    +0.233 C 
ATOM      2  O   UNL     1      -1.654   2.186   1.814  0.00  0.00    -0.274 OA
ATOM      3  N   UNL     1      -1.782   1.142  -0.140  0.00  0.00    -0.294 N 
ENDROOT
BRANCH   1   4
ATOM      4  C   UNL     1       0.426   1.548   0.898  0.00  0.00    +0.205 C 
BRANCH   4   5
ATOM      5  N   UNL     1       0.944   2.054   2.172  0.00  0.00    -0.274 N 
ATOM      6  C   UNL     1       1.256   3.359   2.301  0.00  0.00    +0.307 C 
ATOM      7  O   UNL     1       1.771   3.762   3.326  0.00  0.00    -0.252 OA
ATOM      8  N   UNL     1       0.998   4.216   1.294  0.00  0.00    -0.266 N 
ATOM      9  H   UNL     1       0.463   3.868   0.399  0.00  0.00    +0.156 HD
BRANCH   8  10
ATOM     10  C   UNL     1       1.410   5.553   1.389  0.00  0.00    +0.077 A 
ATOM     11  C   UNL     1       2.579   5.874   2.064  0.00  0.00    +0.027 A 
ATOM     12  C   UNL     1       2.986   7.191   2.152  0.00  0.00    +0.002 A 
ATOM     13  C   UNL     1       2.226   8.193   1.577  0.00  0.00    +0.004 A 
ATOM     14  C   UNL     1       1.057   7.881   0.907  0.00  0.00    +0.047 A 
ATOM     15  C   UNL     1       0.644   6.562   0.811  0.00  0.00    +0.141 A 
BRANCH  15  16
ATOM     16  O   UNL     1      -0.505   6.254   0.153  0.00  0.00    -0.493 OA
ATOM     17  C   UNL     1      -1.239   7.341  -0.415  0.00  0.00    +0.277 C 
ENDBRANCH  15  16
ENDBRANCH   8  10
BRANCH   5  18
ATOM     18  C   UNL     1       1.122   1.142   3.305  0.00  0.00    +0.075 C 
ATOM     19  C   UNL     1      -0.198   0.425   3.594  0.00  0.00    +0.028 C 
BRANCH  18  21
ATOM     20  C   UNL     1       3.546   0.816   2.797  0.00  0.00    +0.006 C 
ATOM     21  C   UNL     1       2.199   0.111   2.965  0.00  0.00    +0.019 C 
ENDBRANCH  18  21
ENDBRANCH   5  18
ENDBRANCH   4   5
ENDBRANCH   1   4
BRANCH   3  22
ATOM     22  C   UNL     1      -3.233   1.337  -0.201  0.00  0.00    +0.161 C 
BRANCH  22  23
ATOM     23  C   UNL     1      -3.919   0.251   0.588  0.00  0.00    +0.036 A 
ATOM     24  C   UNL     1      -3.372  -0.461   1.594  0.00  0.00    +0.024 A 
ATOM     25  C   UNL     1      -4.352  -1.363   2.054  0.00  0.00    +0.019 A 
ATOM     26  C   UNL     1      -5.457  -1.173   1.306  0.00  0.00    +0.086 A 
ATOM     27  N   UNL     1      -5.198  -0.184   0.405  0.00  0.00    -0.345 N 
BRANCH  27  28
ATOM     28  C   UNL     1      -6.138   0.327  -0.596  0.00  0.00    +0.158 C 
BRANCH  28  29
ATOM     29  C   UNL     1      -6.702   1.644  -0.130  0.00  0.00    -0.009 A 
ATOM     30  C   UNL     1      -6.129   2.830  -0.553  0.00  0.00    +0.007 A 
ATOM     31  C   UNL     1      -6.646   4.038  -0.125  0.00  0.00    +0.000 A 
ATOM     32  C   UNL     1      -7.736   4.062   0.726  0.00  0.00    +0.001 A 
ATOM     33  C   UNL     1      -8.309   2.878   1.149  0.00  0.00    +0.020 A 
ATOM     34  C   UNL     1      -7.795   1.668   0.717  0.00  0.00    +0.046 A 
ATOM     35 CL   UNL     1      -8.520   0.180   1.242  0.00  0.00    -0.083 Cl
ENDBRANCH  28  29
ENDBRANCH  27  28
ENDBRANCH  22  23
ENDBRANCH   3  22
BRANCH   3  36
ATOM     36  C   UNL     1      -1.098   0.398  -1.199  0.00  0.00    +0.111 C 
BRANCH  36  37
ATOM     37  C   UNL     1      -0.546   1.377  -2.237  0.00  0.00    +0.000 C 
ATOM     38  C   UNL     1       0.220   0.604  -3.312  0.00  0.00    +0.009 C 
ATOM     39  C   UNL     1      -1.704   2.140  -2.884  0.00  0.00    +0.009 C 
ENDBRANCH  36  37
ENDBRANCH   3  36
TORSDOF 12
