REMARK  Name = ZINC19367741
REMARK  9 active torsions:
REMARK  status: ('A' for Active; 'I' for Inactive)
REMARK    1  A    between atoms: C_1  and  C_2
REMARK    2  A    between atoms: C_2  and  C_3
REMARK    3  A    between atoms: C_3  and  O_4
REMARK    4  A    between atoms: O_4  and  C_5
REMARK    5  A    between atoms: C_8  and  N_11
REMARK    6  A    between atoms: C_15  and  N_19
REMARK    7  A    between atoms: N_22  and  C_25
REMARK    8  A    between atoms: C_25  and  C_26
REMARK    9  A    between atoms: C_25  and  C_33
REMARK                            x       y       z     vdW  Elec       q    Type
REMARK                         _______ _______ _______ _____ _____    ______ ____
ROOT
ATOM      1  N   UNL     1      -8.181  -7.096   1.144  0.00  0.00    -0.289 NA
ATOM      2  C   UNL     1      -7.702  -6.475   2.386  0.00  0.00    +0.100 C 
ATOM      3  C   UNL     1      -8.091  -7.354   3.577  0.00  0.00    +0.100 C 
ATOM      4  N   UNL     1      -7.512  -8.694   3.404  0.00  0.00    -0.289 NA
ATOM      5  C   UNL     1      -7.991  -9.315   2.161  0.00  0.00    +0.100 C 
ATOM      6  C   UNL     1      -7.602  -8.436   0.971  0.00  0.00    +0.100 C 
ENDROOT
BRANCH   1  11
ATOM      7  N   UNL     1      -6.308  -4.540   0.037  0.00  0.00    -0.209 N 
ATOM      8  C   UNL     1      -7.471  -3.886   0.139  0.00  0.00    +0.228 C 
ATOM      9  O   UNL     1      -7.594  -2.683   0.234  0.00  0.00    -0.275 OA
ATOM     10  C   UNL     1      -8.608  -4.884   0.117  0.00  0.00    +0.125 C 
ATOM     11  C   UNL     1      -7.893  -6.244  -0.017  0.00  0.00    +0.153 C 
ATOM     12  C   UNL     1      -6.427  -5.870  -0.062  0.00  0.00    +0.244 C 
ATOM     13  O   UNL     1      -5.506  -6.652  -0.169  0.00  0.00    -0.273 OA
BRANCH   7  17
ATOM     14  C   UNL     1      -2.617  -2.595   0.012  0.00  0.00    +0.121 A 
ATOM     15  C   UNL     1      -3.068  -3.241  -1.130  0.00  0.00    +0.047 A 
ATOM     16  C   UNL     1      -4.290  -3.885  -1.122  0.00  0.00    +0.027 A 
ATOM     17  C   UNL     1      -5.066  -3.886   0.029  0.00  0.00    +0.044 A 
ATOM     18  C   UNL     1      -4.614  -3.240   1.171  0.00  0.00    +0.027 A 
ATOM     19  C   UNL     1      -3.390  -2.601   1.164  0.00  0.00    +0.047 A 
BRANCH  14  20
ATOM     20  O   UNL     1      -1.414  -1.962   0.004  0.00  0.00    -0.492 OA
BRANCH  20  21
ATOM     21  C   UNL     1      -0.671  -1.996  -1.216  0.00  0.00    +0.229 C 
BRANCH  21  23
ATOM     22  C   UNL     1       1.440  -1.273  -2.340  0.00  0.00    +0.007 C 
ATOM     23  C   UNL     1       0.644  -1.236  -1.034  0.00  0.00    +0.038 C 
ENDBRANCH  21  23
ENDBRANCH  20  21
ENDBRANCH  14  20
ENDBRANCH   7  17
ENDBRANCH   1  11
BRANCH   4  24
ATOM     24  C   UNL     1      -7.800  -9.546   4.564  0.00  0.00    +0.117 C 
BRANCH  24  25
ATOM     25  C   UNL     1      -7.192 -10.908   4.351  0.00  0.00    -0.026 A 
ATOM     26  C   UNL     1      -5.938 -11.023   3.780  0.00  0.00    +0.008 A 
ATOM     27  C   UNL     1      -5.379 -12.271   3.584  0.00  0.00    +0.038 A 
ATOM     28  C   UNL     1      -6.075 -13.408   3.960  0.00  0.00    +0.123 A 
ATOM     29  C   UNL     1      -7.330 -13.292   4.532  0.00  0.00    +0.038 A 
ATOM     30  C   UNL     1      -7.886 -12.042   4.732  0.00  0.00    +0.008 A 
ATOM     31  F   UNL     1      -5.529 -14.629   3.769  0.00  0.00    -0.205 F 
ENDBRANCH  24  25
BRANCH  24  32
ATOM     32  C   UNL     1      -7.213  -8.922   5.804  0.00  0.00    -0.026 A 
ATOM     33  C   UNL     1      -5.972  -8.316   5.751  0.00  0.00    +0.008 A 
ATOM     34  C   UNL     1      -5.433  -7.743   6.887  0.00  0.00    +0.038 A 
ATOM     35  C   UNL     1      -6.136  -7.777   8.079  0.00  0.00    +0.123 A 
ATOM     36  C   UNL     1      -7.379  -8.385   8.132  0.00  0.00    +0.038 A 
ATOM     37  C   UNL     1      -7.919  -8.952   6.993  0.00  0.00    +0.008 A 
ATOM     38  F   UNL     1      -5.610  -7.218   9.191  0.00  0.00    -0.205 F 
ENDBRANCH  24  32
ENDBRANCH   4  24
TORSDOF 8
