REMARK  Name = ZINC26593444
REMARK  13 active torsions:
REMARK  status: ('A' for Active; 'I' for Inactive)
REMARK    1  A    between atoms: C_1  and  C_2
REMARK    2  A    between atoms: C_2  and  C_3
REMARK    3  A    between atoms: C_3  and  C_4
REMARK    4  A    between atoms: C_10  and  C_11
REMARK    5  A    between atoms: C_13  and  O_29
REMARK    6  A    between atoms: C_14  and  O_18
REMARK    7  A    between atoms: O_18  and  C_19
REMARK    8  A    between atoms: C_19  and  C_20
REMARK    9  A    between atoms: C_20  and  O_21
REMARK   10  A    between atoms: O_21  and  C_22
REMARK   11  A    between atoms: C_27  and  C_28
REMARK   12  A    between atoms: O_29  and  C_30
REMARK   13  A    between atoms: C_30  and  C_31
REMARK                            x       y       z     vdW  Elec       q    Type
REMARK                         _______ _______ _______ _____ _____    ______ ____
ROOT
ATOM      1  C   UNL     1      -0.080  -7.040   2.558  0.00  0.00    -0.019 A 
ATOM      2  C   UNL     1       0.141  -7.868   3.668  0.00  0.00    +0.057 A 
ATOM      3  C   UNL     1      -0.458  -7.573   4.875  0.00  0.00    +0.164 A 
ATOM      4  C   UNL     1      -1.282  -6.453   4.991  0.00  0.00    +0.180 A 
ATOM      5  C   UNL     1      -1.504  -5.630   3.893  0.00  0.00    +0.087 A 
ATOM      6  C   UNL     1      -0.905  -5.913   2.684  0.00  0.00    +0.032 A 
ATOM      7 CL   UNL     1      -2.531  -4.240   4.045  0.00  0.00    -0.080 Cl
ENDROOT
BRANCH   1  14
ATOM      8  C   UNL     1      -3.183  -4.199  -2.060  0.00  0.00    +0.100 C 
ATOM      9  N   UNL     1      -2.926  -4.915  -1.003  0.00  0.00    -0.169 NA
ATOM     10  N   UNL     1      -1.859  -5.787  -0.972  0.00  0.00    -0.152 N 
ATOM     11  C   UNL     1      -1.545  -6.671   0.083  0.00  0.00    +0.152 C 
ATOM     12  N   UNL     1      -2.422  -7.082   0.959  0.00  0.00    -0.283 NA
ATOM     13  C   UNL     1      -0.115  -7.089   0.098  0.00  0.00    +0.081 C 
ATOM     14  C   UNL     1       0.553  -7.347   1.274  0.00  0.00    +0.024 C 
ATOM     15  C   UNL     1       0.551  -7.213  -1.222  0.00  0.00    +0.273 C 
ATOM     16  O   UNL     1       1.513  -7.949  -1.374  0.00  0.00    -0.268 OA
ATOM     17  N   UNL     1       0.062  -6.491  -2.249  0.00  0.00    -0.152 NA
ATOM     18  C   UNL     1      -1.046  -5.812  -2.085  0.00  0.00    +0.181 C 
ATOM     19  S   UNL     1      -1.883  -4.698  -3.182  0.00  0.00    -0.038 S 
ATOM     20  H   UNL     1      -3.324  -6.724   0.948  0.00  0.00    +0.188 HD
BRANCH   8  21
ATOM     21  C   UNL     1      -4.295  -3.207  -2.283  0.00  0.00    +0.064 C 
BRANCH  21  23
ATOM     22  C   UNL     1      -6.290  -2.113  -1.251  0.00  0.00    +0.004 C 
ATOM     23  C   UNL     1      -5.161  -3.120  -1.024  0.00  0.00    +0.003 C 
ENDBRANCH  21  23
ENDBRANCH   8  21
ENDBRANCH   1  14
BRANCH   4  24
ATOM     24  O   UNL     1      -1.870  -6.165   6.181  0.00  0.00    -0.483 OA
BRANCH  24  25
ATOM     25  C   UNL     1      -1.144  -5.321   7.076  0.00  0.00    +0.270 C 
BRANCH  25  26
ATOM     26  C   UNL     1      -1.959  -5.111   8.354  0.00  0.00    +0.270 C 
BRANCH  26  27
ATOM     27  O   UNL     1      -2.099  -6.357   9.039  0.00  0.00    -0.488 OA
BRANCH  27  28
ATOM     28  C   UNL     1      -2.802  -6.346  10.202  0.00  0.00    +0.124 A 
ATOM     29  C   UNL     1      -3.351  -5.161  10.671  0.00  0.00    +0.046 A 
ATOM     30  C   UNL     1      -4.066  -5.152  11.853  0.00  0.00    +0.004 A 
ATOM     31  C   UNL     1      -4.234  -6.323  12.569  0.00  0.00    +0.000 A 
ATOM     32  C   UNL     1      -3.688  -7.505  12.105  0.00  0.00    +0.007 A 
ATOM     33  C   UNL     1      -2.977  -7.520  10.920  0.00  0.00    -0.009 A 
ATOM     34  C   UNL     1      -2.388  -8.810  10.411  0.00  0.00    +0.047 C 
ENDBRANCH  27  28
ENDBRANCH  26  27
ENDBRANCH  25  26
ENDBRANCH  24  25
ENDBRANCH   4  24
BRANCH   3  35
ATOM     35  O   UNL     1      -0.245  -8.374   5.954  0.00  0.00    -0.489 OA
BRANCH  35  36
ATOM     36  C   UNL     1       0.609  -9.504   5.764  0.00  0.00    +0.226 C 
ATOM     37  C   UNL     1       0.727 -10.280   7.077  0.00  0.00    +0.048 C 
ENDBRANCH  35  36
ENDBRANCH   3  35
TORSDOF 10
