REMARK  Name = ZINC35808288
REMARK  13 active torsions:
REMARK  status: ('A' for Active; 'I' for Inactive)
REMARK    1  A    between atoms: C_1  and  C_2
REMARK    2  A    between atoms: C_6  and  C_7
REMARK    3  A    between atoms: C_7  and  N_8
REMARK    4  A    between atoms: N_8  and  C_9
REMARK    5  A    between atoms: C_9  and  C_10
REMARK    6  A    between atoms: C_19  and  C_21
REMARK    7  A    between atoms: C_21  and  N_22
REMARK    8  A    between atoms: N_22  and  C_23
REMARK    9  A    between atoms: C_23  and  C_24
REMARK   10  A    between atoms: C_24  and  C_25
REMARK   11  A    between atoms: C_25  and  O_26
REMARK   12  A    between atoms: O_26  and  C_27
REMARK   13  A    between atoms: N_30  and  C_31
REMARK                            x       y       z     vdW  Elec       q    Type
REMARK                         _______ _______ _______ _____ _____    ______ ____
ROOT
ATOM      1  N   UNL     1      -1.620  -0.244   3.002  0.00  0.00    -0.291 N 
ATOM      2  C   UNL     1      -2.441   0.780   2.697  0.00  0.00    +0.234 C 
ATOM      3  O   UNL     1      -3.623   0.708   2.959  0.00  0.00    -0.274 OA
ENDROOT
BRANCH   1   4
ATOM      4  C   UNL     1      -0.216  -0.206   2.584  0.00  0.00    +0.150 C 
BRANCH   4  10
ATOM      5  C   UNL     1       0.038  -3.143   1.720  0.00  0.00    +0.044 C 
ATOM      6  C   UNL     1       0.016  -2.000   0.738  0.00  0.00    -0.039 A 
ATOM      7  C   UNL     1       0.106  -2.241  -0.621  0.00  0.00    +0.011 A 
ATOM      8  C   UNL     1       0.083  -1.190  -1.477  0.00  0.00    +0.046 A 
ATOM      9  S   UNL     1      -0.069   0.194  -0.360  0.00  0.00    -0.100 S 
ATOM     10  C   UNL     1      -0.098  -0.722   1.173  0.00  0.00    +0.010 A 
ENDBRANCH   4  10
ENDBRANCH   1   4
BRANCH   1  11
ATOM     11  C   UNL     1      -2.131  -1.396   3.750  0.00  0.00    +0.143 C 
BRANCH  11  12
ATOM     12  C   UNL     1      -1.960  -1.150   5.227  0.00  0.00    -0.026 A 
ATOM     13  C   UNL     1      -0.795  -1.541   5.861  0.00  0.00    +0.009 A 
ATOM     14  C   UNL     1      -0.633  -1.318   7.215  0.00  0.00    +0.050 A 
ATOM     15  C   UNL     1      -1.640  -0.702   7.942  0.00  0.00    +0.166 A 
ATOM     16  C   UNL     1      -2.814  -0.309   7.303  0.00  0.00    +0.167 A 
ATOM     17  C   UNL     1      -2.966  -0.530   5.944  0.00  0.00    +0.054 A 
ATOM     18  O   UNL     1      -3.640   0.267   8.224  0.00  0.00    -0.453 OA
ATOM     19  C   UNL     1      -3.131  -0.145   9.507  0.00  0.00    +0.466 C 
ATOM     20  O   UNL     1      -1.731  -0.372   9.263  0.00  0.00    -0.453 OA
ENDBRANCH  11  12
ENDBRANCH   1  11
BRANCH   2  21
ATOM     21  C   UNL     1      -1.891   2.015   2.032  0.00  0.00    +0.205 C 
BRANCH  21  22
ATOM     22  N   UNL     1      -2.950   3.021   1.917  0.00  0.00    -0.277 N 
ATOM     23  C   UNL     1      -3.733   3.052   0.820  0.00  0.00    +0.307 C 
ATOM     24  O   UNL     1      -3.560   2.247  -0.074  0.00  0.00    -0.252 OA
ATOM     25  N   UNL     1      -4.708   3.978   0.714  0.00  0.00    -0.269 N 
ATOM     26  H   UNL     1      -4.795   4.669   1.389  0.00  0.00    +0.156 HD
BRANCH  25  27
ATOM     27  C   UNL     1      -5.593   3.941  -0.369  0.00  0.00    +0.037 A 
ATOM     28  C   UNL     1      -6.070   5.124  -0.918  0.00  0.00    +0.023 A 
ATOM     29  C   UNL     1      -6.943   5.086  -1.987  0.00  0.00    +0.005 A 
ATOM     30  C   UNL     1      -7.344   3.871  -2.512  0.00  0.00    +0.038 A 
ATOM     31  C   UNL     1      -6.871   2.689  -1.968  0.00  0.00    +0.125 A 
ATOM     32  C   UNL     1      -5.991   2.722  -0.900  0.00  0.00    +0.061 A 
ATOM     33  F   UNL     1      -7.265   1.504  -2.482  0.00  0.00    -0.205 F 
ENDBRANCH  25  27
BRANCH  22  34
ATOM     34  C   UNL     1      -3.159   3.992   2.994  0.00  0.00    +0.112 C 
BRANCH  34  35
ATOM     35  C   UNL     1      -2.304   5.234   2.733  0.00  0.00    +0.047 C 
BRANCH  35  36
ATOM     36  C   UNL     1      -2.521   6.248   3.858  0.00  0.00    +0.161 C 
BRANCH  36  37
ATOM     37  O   UNL     1      -1.723   7.407   3.614  0.00  0.00    -0.383 OA
ATOM     38  C   UNL     1      -1.853   8.422   4.612  0.00  0.00    +0.193 C 
ENDBRANCH  36  37
ENDBRANCH  35  36
ENDBRANCH  34  35
ENDBRANCH  22  34
ENDBRANCH  21  22
ENDBRANCH   2  21
TORSDOF 11
