REMARK  Name = ZINC48819773
REMARK  4 active torsions:
REMARK  status: ('A' for Active; 'I' for Inactive)
REMARK    1  A    between atoms: C_5  and  C_7
REMARK    2  A    between atoms: C_7  and  N_8
REMARK    3  A    between atoms: N_8  and  C_9
REMARK    4  A    between atoms: C_14  and  N_15
REMARK                            x       y       z     vdW  Elec       q    Type
REMARK                         _______ _______ _______ _____ _____    ______ ____
ROOT
ATOM      1  C   UNL     1       1.553  -4.050   1.575  0.00  0.00    +0.050 A 
ATOM      2  C   UNL     1       1.378  -4.940   0.531  0.00  0.00    +0.053 A 
ATOM      3  C   UNL     1       1.443  -6.311   0.772  0.00  0.00    +0.080 A 
ATOM      4  C   UNL     1       1.689  -6.777   2.085  0.00  0.00    +0.067 A 
ATOM      5  C   UNL     1       1.865  -5.870   3.131  0.00  0.00    +0.040 A 
ATOM      6  C   UNL     1       1.802  -4.515   2.874  0.00  0.00    +0.047 A 
ATOM      7  C   UNL     1       1.750  -8.227   2.301  0.00  0.00    +0.259 A 
ATOM      8  O   UNL     1       1.958  -8.693   3.407  0.00  0.00    -0.267 OA
ATOM      9  N   UNL     1       1.567  -9.027   1.225  0.00  0.00    -0.313 N 
ATOM     10  H   UNL     1       1.601  -9.991   1.331  0.00  0.00    +0.170 HD
ATOM     11  C   UNL     1       1.335  -8.493  -0.004  0.00  0.00    +0.199 A 
ATOM     12  N   UNL     1       1.275  -7.216  -0.226  0.00  0.00    -0.237 NA
ENDROOT
BRANCH   6  13
ATOM     13  N   UNL     1       1.984  -3.600   3.919  0.00  0.00    -0.357 N 
ATOM     14  H   UNL     1       1.937  -2.647   3.742  0.00  0.00    +0.142 HD
ATOM     15  H   UNL     1       2.156  -3.918   4.819  0.00  0.00    +0.142 HD
ENDBRANCH   6  13
BRANCH   1  16
ATOM     16  N   UNL     1       1.488  -2.679   1.333  0.00  0.00    -0.338 N 
ATOM     17  H   UNL     1       1.615  -2.051   2.062  0.00  0.00    +0.146 HD
BRANCH  16  18
ATOM     18  C   UNL     1       1.229  -2.186  -0.022  0.00  0.00    +0.138 C 
BRANCH  18  23
ATOM     19  C   UNL     1      -0.017   1.378   0.010  0.00  0.00    +0.000 A 
ATOM     20  C   UNL     1       1.171   2.086   0.002  0.00  0.00    +0.001 A 
ATOM     21  C   UNL     1       2.377   1.412  -0.013  0.00  0.00    +0.015 A 
ATOM     22  C   UNL     1       2.397   0.029  -0.021  0.00  0.00    +0.023 A 
ATOM     23  C   UNL     1       1.208  -0.679  -0.013  0.00  0.00    -0.016 A 
ATOM     24  C   UNL     1       0.002  -0.004   0.002  0.00  0.00    +0.006 A 
ATOM     25 BR   UNL     1       4.047  -0.894  -0.042  0.00  0.00    -0.050 Br
ENDBRANCH  18  23
ENDBRANCH  16  18
ENDBRANCH   1  16
TORSDOF 4
