REMARK  Name = ZINC15722231
REMARK  10 active torsions:
REMARK  status: ('A' for Active; 'I' for Inactive)
REMARK    1  A    between atoms: C_1  and  N_71
REMARK    2  A    between atoms: C_2  and  C_3
REMARK    3  A    between atoms: C_2  and  N_71
REMARK    4  A    between atoms: C_3  and  C_4
REMARK    5  A    between atoms: C_4  and  N_5
REMARK    6  A    between atoms: C_6  and  C_8
REMARK    7  A    between atoms: C_8  and  N_9
REMARK    8  A    between atoms: C_16  and  S_18
REMARK    9  A    between atoms: S_18  and  N_21
REMARK   10  A    between atoms: C_27  and  N_71
REMARK                            x       y       z     vdW  Elec       q    Type
REMARK                         _______ _______ _______ _____ _____    ______ ____
ROOT
ATOM      1  N   UNL     1       8.406   2.086   4.844  0.00  0.00    -0.338 N 
ATOM      2  C   UNL     1       8.400   2.695   6.070  0.00  0.00    +0.087 A 
ATOM      3  C   UNL     1       9.178   2.011   6.924  0.00  0.00    +0.027 A 
ATOM      4  C   UNL     1       9.736   0.878   6.183  0.00  0.00    +0.002 A 
ATOM      5  C   UNL     1       9.217   0.973   4.878  0.00  0.00    +0.050 A 
ATOM      6  C   UNL     1       9.575   0.020   3.931  0.00  0.00    +0.028 A 
ATOM      7  C   UNL     1      10.430  -1.003   4.279  0.00  0.00    +0.030 A 
ATOM      8  C   UNL     1      10.939  -1.093   5.567  0.00  0.00    +0.106 A 
ATOM      9  C   UNL     1      10.600  -0.167   6.513  0.00  0.00    +0.038 A 
ENDROOT
BRANCH   8  10
ATOM     10  S   UNL     1      12.030  -2.412   5.985  0.00  0.00    +0.061 S 
ATOM     11  O   UNL     1      11.936  -2.586   7.392  0.00  0.00    -0.153 OA
ATOM     12  O   UNL     1      11.766  -3.464   5.068  0.00  0.00    -0.153 OA
BRANCH  10  13
ATOM     13  N   UNL     1      13.571  -1.889   5.675  0.00  0.00    -0.177 NA
ATOM     14  C   UNL     1      14.183  -2.105   4.356  0.00  0.00    +0.109 C 
ATOM     15  C   UNL     1      14.684  -0.753   3.824  0.00  0.00    +0.017 C 
ATOM     16  C   UNL     1      15.621  -0.121   4.856  0.00  0.00    +0.003 C 
ATOM     17  C   UNL     1      14.855   0.129   6.157  0.00  0.00    +0.017 C 
ATOM     18  C   UNL     1      14.354  -1.207   6.714  0.00  0.00    +0.109 C 
ENDBRANCH  10  13
ENDBRANCH   8  10
BRANCH   1  19
ATOM     19  C   UNL     1       7.666   2.552   3.670  0.00  0.00    +0.217 C 
BRANCH  19  21
ATOM     20  N   UNL     1       5.496   2.090   2.575  0.00  0.00    -0.314 N 
ATOM     21  C   UNL     1       6.350   1.823   3.583  0.00  0.00    +0.233 C 
ATOM     22  O   UNL     1       6.059   0.995   4.420  0.00  0.00    -0.274 OA
ATOM     23  H   UNL     1       5.729   2.752   1.905  0.00  0.00    +0.149 HD
BRANCH  20  24
ATOM     24  C   UNL     1       4.217   1.381   2.491  0.00  0.00    +0.102 C 
BRANCH  24  25
ATOM     25  C   UNL     1       3.444   1.868   1.264  0.00  0.00    +0.000 C 
BRANCH  25  26
ATOM     26  C   UNL     1       2.108   1.127   1.176  0.00  0.00    -0.077 C 
BRANCH  26  28
ATOM     27  C   UNL     1       2.056   1.218  -1.243  0.00  0.00    -0.096 C 
ATOM     28  N   UNL     1       1.364   1.623  -0.001  0.00  0.00    +0.380 N 
ATOM     29  H   UNL     1       1.323   2.648   0.038  0.00  0.00    -0.082 HD
BRANCH  28  30
ATOM     30  C   UNL     1      -0.013   1.086   0.008  0.00  0.00    -0.069 C 
ATOM     31  C   UNL     1      -0.729   1.579   1.267  0.00  0.00    -0.015 C 
ATOM     32  C   UNL     1      -2.164   1.050   1.278  0.00  0.00    -0.002 C 
ATOM     33  C   UNL     1      -2.904   1.556   0.038  0.00  0.00    -0.000 C 
ATOM     34  C   UNL     1      -2.188   1.063  -1.221  0.00  0.00    -0.002 C 
ATOM     35  C   UNL     1      -0.753   1.593  -1.232  0.00  0.00    -0.015 C 
ENDBRANCH  28  30
ENDBRANCH  26  28
ENDBRANCH  25  26
ENDBRANCH  24  25
ENDBRANCH  20  24
ENDBRANCH  19  21
ENDBRANCH   1  19
TORSDOF 9
