REMARK  Name = ZINC22738495
REMARK  11 active torsions:
REMARK  status: ('A' for Active; 'I' for Inactive)
REMARK    1  A    between atoms: C_1  and  C_2
REMARK    2  A    between atoms: C_9  and  N_17
REMARK    3  A    between atoms: C_10  and  C_11
REMARK    4  A    between atoms: C_11  and  O_13
REMARK    5  A    between atoms: O_13  and  C_14
REMARK    6  A    between atoms: C_14  and  C_15
REMARK    7  A    between atoms: C_14  and  C_16
REMARK    8  A    between atoms: C_18  and  C_20
REMARK    9  A    between atoms: C_20  and  C_22
REMARK   10  A    between atoms: C_20  and  S_23
REMARK   11  A    between atoms: S_23  and  C_24
REMARK                            x       y       z     vdW  Elec       q    Type
REMARK                         _______ _______ _______ _____ _____    ______ ____
ROOT
ATOM      1  C   UNL     1      -4.237  -2.366  -4.655  0.00  0.00    +0.008 C 
ATOM      2  C   UNL     1      -3.566  -1.649  -3.482  0.00  0.00    -0.009 C 
ATOM      3  C   UNL     1      -2.044  -1.716  -3.638  0.00  0.00    +0.008 C 
ATOM      4  C   UNL     1      -1.375  -0.798  -2.613  0.00  0.00    +0.037 C 
ATOM      5  C   UNL     1      -1.919  -1.128  -1.228  0.00  0.00    -0.021 A 
ATOM      6  C   UNL     1      -3.069  -1.820  -1.079  0.00  0.00    -0.004 A 
ATOM      7  S   UNL     1      -3.284  -1.967   0.672  0.00  0.00    -0.077 S 
ATOM      8  C   UNL     1      -1.864  -1.128   1.201  0.00  0.00    +0.086 A 
ATOM      9  C   UNL     1      -1.256  -0.753   0.010  0.00  0.00    +0.091 A 
ATOM     10  C   UNL     1      -3.959  -2.337  -2.166  0.00  0.00    +0.046 C 
ENDROOT
BRANCH   8  11
ATOM     11  N   UNL     1      -1.438  -0.889   2.498  0.00  0.00    -0.278 N 
ATOM     12  C   UNL     1      -2.167  -1.334   3.540  0.00  0.00    +0.231 C 
ATOM     13  O   UNL     1      -3.197  -1.944   3.343  0.00  0.00    -0.274 OA
ATOM     14  H   UNL     1      -0.504  -0.336   2.677  0.00  0.00    +0.155 HD
BRANCH  12  15
ATOM     15  C   UNL     1      -1.704  -1.074   4.950  0.00  0.00    +0.136 C 
ATOM     16  C   UNL     1      -2.180   0.309   5.397  0.00  0.00    +0.029 C 
BRANCH  15  17
ATOM     17  S   UNL     1      -2.393  -2.337   6.056  0.00  0.00    -0.084 S 
BRANCH  17  18
ATOM     18  C   UNL     1      -1.651  -1.989   7.615  0.00  0.00    +0.161 A 
ATOM     19  N   UNL     1      -0.792  -1.041   7.940  0.00  0.00    -0.133 NA
ATOM     20  N   UNL     1      -0.334  -0.947   9.234  0.00  0.00    -0.125 NA
ATOM     21  C   UNL     1      -0.755  -1.804  10.143  0.00  0.00    +0.180 A 
ATOM     22  S   UNL     1      -1.865  -2.820   9.182  0.00  0.00    -0.025 S 
ATOM     23  N   UNL     1      -0.426  -1.890  11.491  0.00  0.00    -0.336 N 
ATOM     24  H   UNL     1      -0.873  -2.676  12.117  0.00  0.00    +0.144 HD
ATOM     25  H   UNL     1       0.282  -1.172  11.931  0.00  0.00    +0.144 HD
ENDBRANCH  17  18
ENDBRANCH  15  17
ENDBRANCH  12  15
ENDBRANCH   8  11
BRANCH   9  26
ATOM     26  C   UNL     1       0.002  -0.004   0.002  0.00  0.00    +0.342 C 
ATOM     27  O   UNL     1       1.064  -0.598  -0.011  0.00  0.00    -0.245 OA
BRANCH  26  28
ATOM     28  O   UNL     1      -0.016   1.345   0.009  0.00  0.00    -0.458 OA
BRANCH  28  29
ATOM     29  C   UNL     1       1.268   2.021   0.001  0.00  0.00    +0.171 C 
ATOM     30  C   UNL     1       1.131   3.368  -0.712  0.00  0.00    +0.052 C 
ATOM     31  C   UNL     1       1.733   2.251   1.440  0.00  0.00    +0.052 C 
ENDBRANCH  28  29
ENDBRANCH  26  28
ENDBRANCH   9  26
TORSDOF 7
