REMARK  Name = ZINC11782708
REMARK  10 active torsions:
REMARK  status: ('A' for Active; 'I' for Inactive)
REMARK    1  A    between atoms: C_1  and  C_2
REMARK    2  A    between atoms: C_2  and  C_3
REMARK    3  A    between atoms: C_3  and  C_4
REMARK    4  A    between atoms: C_4  and  C_19
REMARK    5  A    between atoms: N_7  and  C_11
REMARK    6  A    between atoms: C_11  and  C_12
REMARK    7  A    between atoms: C_12  and  C_13
REMARK    8  A    between atoms: C_18  and  N_72
REMARK    9  A    between atoms: C_25  and  C_27
REMARK   10  A    between atoms: C_28  and  C_29
REMARK                            x       y       z     vdW  Elec       q    Type
REMARK                         _______ _______ _______ _____ _____    ______ ____
ROOT
ATOM      1  C   UNL     1       9.500   1.350   1.503  0.00  0.00    +0.115 C 
ATOM      2  C   UNL     1      10.858   2.022   1.546  0.00  0.00    +0.247 C 
ATOM      3  O   UNL     1      11.729   1.967   0.706  0.00  0.00    -0.273 OA
ATOM      4  N   UNL     1      10.895   2.693   2.715  0.00  0.00    -0.224 N 
ATOM      5  C   UNL     1       9.761   2.539   3.408  0.00  0.00    +0.309 C 
ATOM      6  O   UNL     1       9.559   3.049   4.493  0.00  0.00    -0.252 OA
ATOM      7  N   UNL     1       8.870   1.758   2.771  0.00  0.00    -0.285 N 
ATOM      8  H   UNL     1       7.986   1.513   3.084  0.00  0.00    +0.151 HD
ENDROOT
BRANCH   1   9
ATOM      9  C   UNL     1       8.686   1.858   0.310  0.00  0.00    +0.024 C 
ATOM     10  C   UNL     1       8.596   3.384   0.367  0.00  0.00    +0.025 C 
ATOM     11  C   UNL     1       7.810   3.891  -0.846  0.00  0.00    +0.108 C 
ATOM     12  N   UNL     1       6.508   3.211  -0.884  0.00  0.00    -0.298 N 
ATOM     13  C   UNL     1       6.477   1.742  -0.845  0.00  0.00    +0.108 C 
ATOM     14  C   UNL     1       7.278   1.260   0.363  0.00  0.00    +0.025 C 
ATOM     15  C   UNL     1       5.364   3.921  -0.948  0.00  0.00    +0.239 C 
ATOM     16  O   UNL     1       4.291   3.351  -0.884  0.00  0.00    -0.271 OA
BRANCH  15  17
ATOM     17  C   UNL     1       5.413   5.376  -1.094  0.00  0.00    +0.068 C 
ATOM     18  C   UNL     1       4.272   6.076  -1.258  0.00  0.00    +0.016 C 
BRANCH  18  19
ATOM     19  C   UNL     1       4.321   7.539  -1.404  0.00  0.00    +0.010 A 
ATOM     20  C   UNL     1       5.550   8.208  -1.374  0.00  0.00    +0.011 A 
ATOM     21  C   UNL     1       5.588   9.579  -1.513  0.00  0.00    +0.001 A 
ATOM     22  C   UNL     1       4.414  10.296  -1.675  0.00  0.00    +0.003 A 
ATOM     23  C   UNL     1       3.195   9.644  -1.712  0.00  0.00    +0.039 A 
ATOM     24  C   UNL     1       3.139   8.270  -1.575  0.00  0.00    +0.131 A 
ATOM     25  F   UNL     1       1.947   7.634  -1.605  0.00  0.00    -0.205 F 
ENDBRANCH  18  19
ENDBRANCH  15  17
ENDBRANCH   1   9
BRANCH   1  26
ATOM     26  C   UNL     1       9.650  -0.171   1.442  0.00  0.00    +0.035 C 
BRANCH  26  28
ATOM     27  C   UNL     1      10.507  -2.186   2.644  0.00  0.00    +0.004 C 
ATOM     28  C   UNL     1      10.357  -0.665   2.705  0.00  0.00    -0.001 C 
ENDBRANCH  26  28
ENDBRANCH   1  26
BRANCH   4  29
ATOM     29  C   UNL     1      12.037   3.490   3.170  0.00  0.00    +0.116 C 
BRANCH  29  30
ATOM     30  C   UNL     1      12.988   2.605   3.978  0.00  0.00    +0.004 C 
BRANCH  30  31
ATOM     31  C   UNL     1      14.114   3.462   4.558  0.00  0.00    -0.068 C 
ATOM     32  C   UNL     1      14.973   4.044   3.415  0.00  0.00    -0.017 C 
ATOM     33  C   UNL     1      16.413   3.968   3.986  0.00  0.00    -0.020 C 
ATOM     34  C   UNL     1      16.357   2.652   4.801  0.00  0.00    -0.079 C 
ATOM     35  C   UNL     1      14.493   1.255   5.489  0.00  0.00    -0.096 C 
ATOM     36  N   UNL     1      15.007   2.646   5.397  0.00  0.00    +0.380 N 
ATOM     37  H   UNL     1      15.050   3.050   6.340  0.00  0.00    -0.082 HD
ENDBRANCH  30  31
ENDBRANCH  29  30
ENDBRANCH   4  29
TORSDOF 8
