REMARK  Name = ZINC39912526
REMARK  14 active torsions:
REMARK  status: ('A' for Active; 'I' for Inactive)
REMARK    1  A    between atoms: C_1  and  C_2
REMARK    2  A    between atoms: C_2  and  C_3
REMARK    3  A    between atoms: C_3  and  O_4
REMARK    4  A    between atoms: O_4  and  C_5
REMARK    5  A    between atoms: C_8  and  C_14
REMARK    6  A    between atoms: C_10  and  O_11
REMARK    7  A    between atoms: O_11  and  C_12
REMARK    8  A    between atoms: C_12  and  C_13
REMARK    9  A    between atoms: C_17  and  C_33
REMARK   10  A    between atoms: N_24  and  C_25
REMARK   11  A    between atoms: C_25  and  C_26
REMARK   12  A    between atoms: C_35  and  C_41
REMARK   13  A    between atoms: C_37  and  C_40
REMARK   14  A    between atoms: C_38  and  O_39
REMARK                            x       y       z     vdW  Elec       q    Type
REMARK                         _______ _______ _______ _____ _____    ______ ____
ROOT
ATOM      1  C   UNL     1       2.722  -4.062  -5.707  0.00  0.00    +0.142 C 
ATOM      2  C   UNL     1       4.198  -4.263  -5.914  0.00  0.00    +0.035 A 
ATOM      3  C   UNL     1       5.389  -4.824  -5.442  0.00  0.00    +0.102 A 
ATOM      4  N   UNL     1       6.342  -4.503  -6.296  0.00  0.00    -0.173 NA
ATOM      5  N   UNL     1       5.870  -3.796  -7.260  0.00  0.00    -0.272 N 
ATOM      6  H   UNL     1       6.389  -3.449  -8.003  0.00  0.00    +0.189 HD
ATOM      7  C   UNL     1       4.528  -3.606  -7.084  0.00  0.00    +0.126 A 
ATOM      8  C   UNL     1       3.314  -2.992  -7.633  0.00  0.00    +0.266 C 
ATOM      9  O   UNL     1       3.269  -2.341  -8.660  0.00  0.00    -0.268 OA
ATOM     10  N   UNL     1       2.257  -3.252  -6.841  0.00  0.00    -0.281 N 
ENDROOT
BRANCH   3  11
ATOM     11  C   UNL     1       5.552  -5.631  -4.207  0.00  0.00    +0.044 A 
ATOM     12  C   UNL     1       4.436  -5.995  -3.458  0.00  0.00    +0.017 A 
ATOM     13  C   UNL     1       4.592  -6.745  -2.310  0.00  0.00    -0.049 A 
ATOM     14  C   UNL     1       5.854  -7.138  -1.901  0.00  0.00    +0.010 A 
ATOM     15  C   UNL     1       6.968  -6.782  -2.637  0.00  0.00    -0.008 A 
ATOM     16  C   UNL     1       6.825  -6.034  -3.795  0.00  0.00    +0.129 A 
ATOM     17  C   UNL     1       8.339  -7.213  -2.184  0.00  0.00    +0.047 C 
ATOM     18  C   UNL     1       3.384  -7.138  -1.499  0.00  0.00    +0.044 C 
BRANCH  16  19
ATOM     19  O   UNL     1       7.919  -5.689  -4.523  0.00  0.00    -0.506 OA
ATOM     20  H   UNL     1       8.317  -4.847  -4.261  0.00  0.00    +0.292 HD
ENDBRANCH  16  19
ENDBRANCH   3  11
BRANCH   1  24
ATOM     21  C   UNL     1       2.016  -1.997  -2.029  0.00  0.00    +0.162 A 
ATOM     22  C   UNL     1       1.531  -3.283  -2.210  0.00  0.00    +0.050 A 
ATOM     23  C   UNL     1       1.760  -3.947  -3.400  0.00  0.00    +0.009 A 
ATOM     24  C   UNL     1       2.474  -3.333  -4.412  0.00  0.00    -0.019 A 
ATOM     25  C   UNL     1       2.962  -2.051  -4.238  0.00  0.00    +0.055 A 
ATOM     26  C   UNL     1       2.730  -1.377  -3.050  0.00  0.00    +0.162 A 
BRANCH  21  27
ATOM     27  O   UNL     1       1.791  -1.342  -0.859  0.00  0.00    -0.488 OA
BRANCH  27  28
ATOM     28  C   UNL     1       1.051  -2.041   0.144  0.00  0.00    +0.229 C 
BRANCH  28  30
ATOM     29  C   UNL     1       0.107  -1.899   2.453  0.00  0.00    +0.007 C 
ATOM     30  C   UNL     1       0.899  -1.151   1.379  0.00  0.00    +0.038 C 
ENDBRANCH  28  30
ENDBRANCH  27  28
ENDBRANCH  21  27
BRANCH  26  31
ATOM     31  O   UNL     1       3.204  -0.113  -2.880  0.00  0.00    -0.489 OA
BRANCH  31  32
ATOM     32  C   UNL     1       3.894   0.475  -3.984  0.00  0.00    +0.226 C 
ATOM     33  C   UNL     1       4.328   1.895  -3.616  0.00  0.00    +0.048 C 
ENDBRANCH  31  32
ENDBRANCH  26  31
ENDBRANCH   1  24
BRANCH  10  34
ATOM     34  C   UNL     1       0.881  -2.803  -7.068  0.00  0.00    +0.144 C 
BRANCH  34  35
ATOM     35  C   UNL     1       0.673  -1.465  -6.407  0.00  0.00    -0.030 A 
ATOM     36  C   UNL     1       0.238  -1.402  -5.097  0.00  0.00    +0.008 A 
ATOM     37  C   UNL     1       0.047  -0.175  -4.489  0.00  0.00    +0.038 A 
ATOM     38  C   UNL     1       0.292   0.991  -5.194  0.00  0.00    +0.123 A 
ATOM     39  C   UNL     1       0.729   0.927  -6.506  0.00  0.00    +0.038 A 
ATOM     40  C   UNL     1       0.924  -0.301  -7.110  0.00  0.00    +0.008 A 
ATOM     41  F   UNL     1       0.106   2.191  -4.601  0.00  0.00    -0.205 F 
ENDBRANCH  34  35
ENDBRANCH  10  34
TORSDOF 10
