REMARK  Name = ZINC34926421
REMARK  5 active torsions:
REMARK  status: ('A' for Active; 'I' for Inactive)
REMARK    1  A    between atoms: C_1  and  C_2
REMARK    2  A    between atoms: C_2  and  C_22
REMARK    3  A    between atoms: C_3  and  C_10
REMARK    4  A    between atoms: C_5  and  C_7
REMARK    5  A    between atoms: C_16  and  C_19
REMARK                            x       y       z     vdW  Elec       q    Type
REMARK                         _______ _______ _______ _____ _____    ______ ____
ROOT
ATOM      1  C   UNL     1       0.789   0.555  -2.132  0.00  0.00    +0.220 C 
ATOM      2  O   UNL     1       0.741   1.729  -1.829  0.00  0.00    -0.275 OA
ATOM      3  N   UNL     1       1.167   0.196  -3.374  0.00  0.00    -0.300 N 
ATOM      4  C   UNL     1       1.224  -1.222  -3.759  0.00  0.00    +0.108 C 
ATOM      5  C   UNL     1       0.393  -1.421  -5.030  0.00  0.00    +0.020 C 
ATOM      6  C   UNL     1       0.883  -0.457  -6.112  0.00  0.00    +0.016 C 
ATOM      7  C   UNL     1       0.696   0.986  -5.635  0.00  0.00    +0.092 C 
ATOM      8  C   UNL     1       1.525   1.213  -4.372  0.00  0.00    +0.120 C 
ENDROOT
BRANCH   1  11
ATOM      9  C   UNL     1      -0.016   1.480   0.532  0.00  0.00    +0.012 C 
ATOM     10  C   UNL     1       0.004  -0.028   0.273  0.00  0.00    -0.009 C 
ATOM     11  C   UNL     1       0.425  -0.500  -1.120  0.00  0.00    +0.096 C 
ATOM     12  C   UNL     1       1.367  -0.693   0.071  0.00  0.00    +0.121 C 
ATOM     13  C   UNL     1      -1.076  -0.836   0.997  0.00  0.00    +0.012 C 
BRANCH  12  14
ATOM     14  C   UNL     1       2.588   0.188   0.141  0.00  0.00    +0.360 C 
ATOM     15  O   UNL     1       2.770   0.901   1.114  0.00  0.00    -0.246 OA
ATOM     16  O   UNL     1       3.393   0.188  -0.774  0.00  0.00    -0.246 OA
ENDBRANCH  12  14
ENDBRANCH   1  11
BRANCH   7  17
ATOM     17  C   UNL     1       1.148   1.935  -6.714  0.00  0.00    +0.215 C 
ATOM     18  O   UNL     1       2.047   2.719  -6.494  0.00  0.00    -0.276 OA
ATOM     19  N   UNL     1       0.553   1.913  -7.923  0.00  0.00    -0.329 N 
ATOM     20  H   UNL     1      -0.166   1.286  -8.099  0.00  0.00    +0.145 HD
ATOM     21  H   UNL     1       0.844   2.525  -8.618  0.00  0.00    +0.145 HD
ENDBRANCH   7  17
TORSDOF 3
