REMARK  Name = ZINC11142203
REMARK  13 active torsions:
REMARK  status: ('A' for Active; 'I' for Inactive)
REMARK    1  A    between atoms: C_1  and  C_2
REMARK    2  A    between atoms: C_2  and  C_3
REMARK    3  A    between atoms: C_3  and  N_4
REMARK    4  A    between atoms: N_4  and  C_5
REMARK    5  A    between atoms: N_4  and  S_8
REMARK    6  A    between atoms: C_5  and  C_6
REMARK    7  A    between atoms: C_6  and  C_7
REMARK    8  A    between atoms: S_8  and  C_11
REMARK    9  A    between atoms: C_14  and  C_17
REMARK   10  A    between atoms: N_19  and  C_20
REMARK   11  A    between atoms: C_20  and  C_21
REMARK   12  A    between atoms: C_30  and  C_37
REMARK   13  A    between atoms: C_32  and  C_36
REMARK                            x       y       z     vdW  Elec       q    Type
REMARK                         _______ _______ _______ _____ _____    ______ ____
ROOT
ATOM      1  C   UNL     1      -2.921   2.968   4.709  0.00  0.00    +0.252 C 
ATOM      2  O   UNL     1      -3.789   2.174   5.013  0.00  0.00    -0.270 OA
ATOM      3  N   UNL     1      -2.825   4.144   5.360  0.00  0.00    -0.244 N 
ATOM      4  C   UNL     1      -3.626   4.392   6.462  0.00  0.00    +0.168 A 
ATOM      5  N   UNL     1      -4.531   3.617   7.013  0.00  0.00    -0.224 NA
ATOM      6  C   UNL     1      -5.242   3.991   8.098  0.00  0.00    +0.083 A 
ATOM      7  C   UNL     1      -6.235   3.256   8.787  0.00  0.00    -0.024 A 
ATOM      8  C   UNL     1      -6.871   3.789   9.877  0.00  0.00    +0.009 A 
ATOM      9  C   UNL     1      -6.567   5.059  10.345  0.00  0.00    -0.049 A 
ATOM     10  C   UNL     1      -5.601   5.806   9.696  0.00  0.00    +0.020 A 
ATOM     11  C   UNL     1      -4.959   5.280   8.602  0.00  0.00    +0.041 A 
ATOM     12  S   UNL     1      -3.696   5.852   7.491  0.00  0.00    -0.052 S 
ATOM     13  C   UNL     1      -7.282   5.620  11.547  0.00  0.00    +0.044 C 
ATOM     14  C   UNL     1      -6.599   1.871   8.316  0.00  0.00    +0.046 C 
ENDROOT
BRANCH   1  18
ATOM     15  C   UNL     1      -0.188   2.038   1.593  0.00  0.00    +0.106 A 
ATOM     16  C   UNL     1      -0.786   3.285   1.635  0.00  0.00    +0.029 A 
ATOM     17  C   UNL     1      -1.678   3.592   2.642  0.00  0.00    +0.015 A 
ATOM     18  C   UNL     1      -1.970   2.644   3.625  0.00  0.00    +0.037 A 
ATOM     19  C   UNL     1      -1.359   1.390   3.579  0.00  0.00    +0.015 A 
ATOM     20  C   UNL     1      -0.472   1.094   2.564  0.00  0.00    +0.029 A 
BRANCH  15  21
ATOM     21  S   UNL     1       0.945   1.651   0.300  0.00  0.00    +0.061 S 
ATOM     22  O   UNL     1       1.787   0.618   0.793  0.00  0.00    -0.153 OA
ATOM     23  O   UNL     1       1.457   2.889  -0.174  0.00  0.00    -0.153 OA
BRANCH  21  24
ATOM     24  N   UNL     1       0.067   0.995  -0.941  0.00  0.00    -0.177 NA
BRANCH  24  25
ATOM     25  C   UNL     1      -0.489   1.861  -1.983  0.00  0.00    +0.109 C 
BRANCH  25  27
ATOM     26  C   UNL     1      -0.110   2.814  -4.261  0.00  0.00    +0.005 C 
ATOM     27  C   UNL     1       0.471   1.909  -3.173  0.00  0.00    +0.014 C 
ENDBRANCH  25  27
ENDBRANCH  24  25
BRANCH  24  28
ATOM     28  C   UNL     1      -0.153  -0.452  -0.997  0.00  0.00    +0.109 C 
BRANCH  28  29
ATOM     29  C   UNL     1      -1.499  -0.789  -0.352  0.00  0.00    +0.014 C 
ATOM     30  C   UNL     1      -1.729  -2.300  -0.411  0.00  0.00    +0.005 C 
ENDBRANCH  28  29
ENDBRANCH  24  28
ENDBRANCH  21  24
ENDBRANCH  15  21
ENDBRANCH   1  18
BRANCH   3  31
ATOM     31  C   UNL     1      -1.874   5.160   4.902  0.00  0.00    +0.147 C 
BRANCH  31  32
ATOM     32  C   UNL     1      -2.605   6.193   4.042  0.00  0.00    +0.136 C 
ATOM     33  C   UNL     1      -1.597   7.177   3.409  0.00  0.00    +0.035 C 
ATOM     34  C   UNL     1      -2.329   8.537   3.441  0.00  0.00    +0.031 C 
ATOM     35  C   UNL     1      -3.693   8.214   4.090  0.00  0.00    +0.160 C 
ATOM     36  O   UNL     1      -3.459   7.018   4.864  0.00  0.00    -0.375 OA
ENDBRANCH  31  32
ENDBRANCH   3  31
TORSDOF 9
