REMARK  Name = ZINC59427597
REMARK  7 active torsions:
REMARK  status: ('A' for Active; 'I' for Inactive)
REMARK    1  A    between atoms: C_4  and  C_7
REMARK    2  A    between atoms: C_9  and  C_27
REMARK    3  A    between atoms: C_10  and  C_21
REMARK    4  A    between atoms: N_11  and  C_12
REMARK    5  A    between atoms: C_15  and  N_18
REMARK    6  A    between atoms: N_28  and  C_29
REMARK    7  A    between atoms: C_33  and  O_35
REMARK                            x       y       z     vdW  Elec       q    Type
REMARK                         _______ _______ _______ _____ _____    ______ ____
ROOT
ATOM      1  C   UNL     1       3.728  -0.677  -0.366  0.00  0.00    +0.055 A 
ATOM      2  C   UNL     1       4.920  -0.051   0.039  0.00  0.00    +0.038 A 
ATOM      3  C   UNL     1       5.841  -1.044   0.334  0.00  0.00    +0.019 A 
ATOM      4  C   UNL     1       5.153  -2.337   0.089  0.00  0.00    +0.063 A 
ATOM      5  N   UNL     1       3.886  -2.045  -0.324  0.00  0.00    -0.308 N 
ENDROOT
BRANCH   1   9
ATOM      6  C   UNL     1       0.189   1.332  -1.522  0.00  0.00    +0.000 A 
ATOM      7  C   UNL     1       0.409   0.029  -1.943  0.00  0.00    +0.001 A 
ATOM      8  C   UNL     1       1.553  -0.632  -1.574  0.00  0.00    +0.010 A 
ATOM      9  C   UNL     1       2.505   0.017  -0.766  0.00  0.00    -0.001 A 
ATOM     10  C   UNL     1       2.271   1.340  -0.345  0.00  0.00    +0.010 A 
ATOM     11  C   UNL     1       1.120   1.981  -0.725  0.00  0.00    +0.001 A 
ENDBRANCH   1   9
BRANCH   5  12
ATOM     12  C   UNL     1       2.903  -2.986  -0.656  0.00  0.00    +0.047 A 
ATOM     13  C   UNL     1       1.771  -3.119   0.137  0.00  0.00    +0.028 A 
ATOM     14  C   UNL     1       0.804  -4.048  -0.194  0.00  0.00    +0.035 A 
ATOM     15  C   UNL     1       0.962  -4.844  -1.313  0.00  0.00    +0.126 A 
ATOM     16  C   UNL     1       2.088  -4.714  -2.104  0.00  0.00    +0.035 A 
ATOM     17  C   UNL     1       3.056  -3.784  -1.782  0.00  0.00    +0.028 A 
BRANCH  15  18
ATOM     18  N   UNL     1      -0.077  -5.838  -1.664  0.00  0.00    +0.056 N 
ATOM     19  O   UNL     1      -1.150  -5.964  -0.911  0.00  0.00    -0.126 OA
ATOM     20  O   UNL     1       0.072  -6.598  -2.730  0.00  0.00    -0.126 OA
ENDBRANCH  15  18
ENDBRANCH   5  12
BRANCH   4  21
ATOM     21  C   UNL     1       5.705  -3.627   0.256  0.00  0.00    -0.001 A 
ATOM     22  C   UNL     1       5.059  -4.575   1.077  0.00  0.00    +0.010 A 
ATOM     23  C   UNL     1       5.602  -5.819   1.230  0.00  0.00    +0.001 A 
ATOM     24  C   UNL     1       6.785  -6.150   0.584  0.00  0.00    +0.000 A 
ATOM     25  C   UNL     1       7.429  -5.226  -0.226  0.00  0.00    +0.001 A 
ATOM     26  C   UNL     1       6.903  -3.978  -0.400  0.00  0.00    +0.010 A 
ENDBRANCH   4  21
BRANCH   3  27
ATOM     27  C   UNL     1       7.173  -0.861   0.781  0.00  0.00    +0.121 C 
ATOM     28  N   UNL     1       7.932  -1.903   1.021  0.00  0.00    -0.255 NA
BRANCH  28  29
ATOM     29  C   UNL     1       9.202  -1.729   1.447  0.00  0.00    +0.067 A 
ATOM     30  C   UNL     1      10.029  -0.771   0.833  0.00  0.00    +0.028 A 
ATOM     31  C   UNL     1      11.322  -0.599   1.273  0.00  0.00    +0.006 A 
ATOM     32  C   UNL     1      11.813  -1.366   2.317  0.00  0.00    +0.045 A 
ATOM     33  C   UNL     1      11.005  -2.317   2.932  0.00  0.00    +0.119 A 
ATOM     34  C   UNL     1       9.703  -2.499   2.508  0.00  0.00    +0.073 A 
BRANCH  33  35
ATOM     35  O   UNL     1      11.496  -3.064   3.955  0.00  0.00    -0.507 OA
ATOM     36  H   UNL     1      11.361  -2.672   4.829  0.00  0.00    +0.292 HD
ENDBRANCH  33  35
ENDBRANCH  28  29
ENDBRANCH   3  27
TORSDOF 7
