REMARK  Name = ZINC03130101
REMARK  7 active torsions:
REMARK  status: ('A' for Active; 'I' for Inactive)
REMARK    1  A    between atoms: C_1  and  O_2
REMARK    2  A    between atoms: O_2  and  C_3
REMARK    3  A    between atoms: C_8  and  N_9
REMARK    4  A    between atoms: C_10  and  C_12
REMARK    5  A    between atoms: C_20  and  C_23
REMARK    6  A    between atoms: C_21  and  O_22
REMARK    7  A    between atoms: N_24  and  C_25
REMARK                            x       y       z     vdW  Elec       q    Type
REMARK                         _______ _______ _______ _____ _____    ______ ____
ROOT
ATOM      1  C   UNL     1       1.120  -4.906   0.178  0.00  0.00    +0.080 A 
ATOM      2  C   UNL     1       2.337  -4.247   0.174  0.00  0.00    +0.025 A 
ATOM      3  C   UNL     1       3.539  -4.965   0.263  0.00  0.00    -0.016 A 
ATOM      4  C   UNL     1       4.781  -4.304   0.258  0.00  0.00    +0.008 A 
ATOM      5  C   UNL     1       5.931  -5.029   0.345  0.00  0.00    +0.001 A 
ATOM      6  C   UNL     1       5.896  -6.418   0.439  0.00  0.00    +0.001 A 
ATOM      7  C   UNL     1       4.710  -7.091   0.445  0.00  0.00    +0.009 A 
ATOM      8  C   UNL     1       3.509  -6.378   0.358  0.00  0.00    -0.006 A 
ATOM      9  C   UNL     1       2.217  -7.067   0.362  0.00  0.00    +0.043 A 
ATOM     10  C   UNL     1       1.049  -6.308   0.277  0.00  0.00    +0.138 A 
ENDROOT
BRANCH   1  12
ATOM     11  N   UNL     1      -0.074  -2.780  -0.012  0.00  0.00    -0.278 N 
ATOM     12  C   UNL     1      -0.128  -4.123   0.083  0.00  0.00    +0.252 C 
ATOM     13  O   UNL     1      -1.203  -4.691   0.090  0.00  0.00    -0.270 OA
ATOM     14  H   UNL     1       0.782  -2.333  -0.099  0.00  0.00    +0.155 HD
BRANCH  11  20
ATOM     15  C   UNL     1      -1.294  -0.766  -0.572  0.00  0.00    +0.141 A 
ATOM     16  C   UNL     1      -2.468  -0.030  -0.547  0.00  0.00    +0.047 A 
ATOM     17  C   UNL     1      -3.596  -0.546   0.063  0.00  0.00    +0.004 A 
ATOM     18  C   UNL     1      -3.557  -1.798   0.650  0.00  0.00    +0.002 A 
ATOM     19  C   UNL     1      -2.390  -2.538   0.630  0.00  0.00    +0.027 A 
ATOM     20  C   UNL     1      -1.256  -2.029   0.015  0.00  0.00    +0.076 A 
BRANCH  15  22
ATOM     21  C   UNL     1      -0.297   1.042  -1.751  0.00  0.00    +0.277 C 
ATOM     22  O   UNL     1      -0.184  -0.259  -1.171  0.00  0.00    -0.493 OA
ENDBRANCH  15  22
ENDBRANCH  11  20
ENDBRANCH   1  12
BRANCH  10  23
ATOM     23  O   UNL     1      -0.157  -6.924   0.283  0.00  0.00    -0.505 OA
ATOM     24  H   UNL     1      -0.480  -7.166  -0.595  0.00  0.00    +0.292 HD
ENDBRANCH  10  23
BRANCH   9  25
ATOM     25  C   UNL     1       2.152  -8.527   0.459  0.00  0.00    +0.123 C 
ATOM     26  N   UNL     1       0.994  -9.130   0.462  0.00  0.00    -0.255 NA
BRANCH  26  27
ATOM     27  C   UNL     1       0.933 -10.494   0.552  0.00  0.00    +0.064 A 
ATOM     28  C   UNL     1       1.786 -11.287  -0.219  0.00  0.00    +0.029 A 
ATOM     29  C   UNL     1       1.720 -12.661  -0.124  0.00  0.00    +0.022 A 
ATOM     30  C   UNL     1       0.809 -13.255   0.734  0.00  0.00    +0.041 A 
ATOM     31  C   UNL     1      -0.040 -12.475   1.501  0.00  0.00    +0.022 A 
ATOM     32  C   UNL     1       0.021 -11.100   1.420  0.00  0.00    +0.029 A 
ATOM     33 CL   UNL     1       0.731 -14.986   0.848  0.00  0.00    -0.084 Cl
ENDBRANCH  26  27
ENDBRANCH   9  25
TORSDOF 6
