REMARK  Name = ZINC14661380
REMARK  17 active torsions:
REMARK  status: ('A' for Active; 'I' for Inactive)
REMARK    1  A    between atoms: C_1  and  C_2
REMARK    2  A    between atoms: C_2  and  C_3
REMARK    3  A    between atoms: C_2  and  C_4
REMARK    4  A    between atoms: C_2  and  C_5
REMARK    5  A    between atoms: C_8  and  O_15
REMARK    6  A    between atoms: C_9  and  C_11
REMARK    7  A    between atoms: C_11  and  C_12
REMARK    8  A    between atoms: C_11  and  C_13
REMARK    9  A    between atoms: C_11  and  C_14
REMARK   10  A    between atoms: O_15  and  C_16
REMARK   11  A    between atoms: C_16  and  C_17
REMARK   12  A    between atoms: C_25  and  C_27
REMARK   13  A    between atoms: C_27  and  C_28
REMARK   14  A    between atoms: C_28  and  O_30
REMARK   15  A    between atoms: O_30  and  C_31
REMARK   16  A    between atoms: C_31  and  C_32
REMARK   17  A    between atoms: C_32  and  C_33
REMARK                            x       y       z     vdW  Elec       q    Type
REMARK                         _______ _______ _______ _____ _____    ______ ____
ROOT
ATOM      1  C   UNL     1      -0.065   3.761  -4.906  0.00  0.00    +0.254 C 
ATOM      2  O   UNL     1       0.317   3.112  -3.955  0.00  0.00    -0.272 OA
ATOM      3  N   UNL     1      -0.566   3.138  -5.991  0.00  0.00    -0.285 N 
ATOM      4  C   UNL     1      -0.952   3.890  -7.197  0.00  0.00    +0.127 C 
ATOM      5  C   UNL     1      -0.087   3.401  -8.361  0.00  0.00    +0.123 C 
ATOM      6  N   UNL     1      -0.042   1.946  -8.396  0.00  0.00    -0.312 N 
ATOM      7  C   UNL     1      -0.294   1.155  -7.352  0.00  0.00    +0.234 C 
ATOM      8  O   UNL     1      -0.147  -0.041  -7.484  0.00  0.00    -0.274 OA
ATOM      9  C   UNL     1      -0.750   1.679  -6.018  0.00  0.00    +0.173 C 
ATOM     10  H   UNL     1       0.186   1.522  -9.238  0.00  0.00    +0.149 HD
ENDROOT
BRANCH   1  11
ATOM     11  C   UNL     1       0.022   5.266  -4.874  0.00  0.00    +0.324 C 
BRANCH  11  12
ATOM     12  O   UNL     1       0.583   5.684  -3.629  0.00  0.00    -0.482 OA
BRANCH  12  16
ATOM     13  C   UNL     1       1.031   9.744  -3.047  0.00  0.00    -0.041 A 
ATOM     14  C   UNL     1       0.495   9.271  -4.231  0.00  0.00    +0.008 A 
ATOM     15  C   UNL     1       0.343   7.913  -4.428  0.00  0.00    +0.046 A 
ATOM     16  C   UNL     1       0.731   7.022  -3.437  0.00  0.00    +0.125 A 
ATOM     17  C   UNL     1       1.263   7.498  -2.248  0.00  0.00    -0.000 A 
ATOM     18  C   UNL     1       1.418   8.858  -2.058  0.00  0.00    +0.012 A 
BRANCH  13  20
ATOM     19  C   UNL     1       0.694  11.977  -4.070  0.00  0.00    +0.015 C 
ATOM     20  C   UNL     1       1.194  11.227  -2.834  0.00  0.00    -0.013 C 
ATOM     21  C   UNL     1       0.383  11.659  -1.611  0.00  0.00    +0.015 C 
ATOM     22  C   UNL     1       2.672  11.549  -2.605  0.00  0.00    +0.015 C 
ENDBRANCH  13  20
BRANCH  17  23
ATOM     23  C   UNL     1       1.679   6.534  -1.168  0.00  0.00    -0.009 C 
ATOM     24  C   UNL     1       2.230   7.314   0.028  0.00  0.00    +0.015 C 
ATOM     25  C   UNL     1       0.468   5.710  -0.725  0.00  0.00    +0.015 C 
ATOM     26  C   UNL     1       2.762   5.598  -1.709  0.00  0.00    +0.015 C 
ENDBRANCH  17  23
ENDBRANCH  12  16
ENDBRANCH  11  12
ENDBRANCH   1  11
BRANCH   9  27
ATOM     27  C   UNL     1       0.079   1.037  -4.904  0.00  0.00    +0.152 C 
BRANCH  27  28
ATOM     28  C   UNL     1       1.533   1.388  -5.094  0.00  0.00    +0.309 C 
ATOM     29  O   UNL     1       1.883   1.998  -6.076  0.00  0.00    -0.251 OA
BRANCH  28  30
ATOM     30  O   UNL     1       2.437   1.024  -4.171  0.00  0.00    -0.464 OA
BRANCH  30  31
ATOM     31  C   UNL     1       3.818   1.396  -4.420  0.00  0.00    +0.237 C 
BRANCH  31  32
ATOM     32  C   UNL     1       4.696   0.898  -3.269  0.00  0.00    +0.076 C 
BRANCH  32  33
ATOM     33  C   UNL     1       6.129   1.284  -3.527  0.00  0.00    -0.044 A 
ATOM     34  C   UNL     1       6.962   0.426  -4.220  0.00  0.00    +0.004 A 
ATOM     35  C   UNL     1       8.276   0.782  -4.460  0.00  0.00    +0.000 A 
ATOM     36  C   UNL     1       8.760   1.992  -4.000  0.00  0.00    +0.000 A 
ATOM     37  C   UNL     1       7.928   2.849  -3.303  0.00  0.00    +0.000 A 
ATOM     38  C   UNL     1       6.613   2.495  -3.066  0.00  0.00    +0.004 A 
ENDBRANCH  32  33
ENDBRANCH  31  32
ENDBRANCH  30  31
ENDBRANCH  28  30
ENDBRANCH  27  28
ENDBRANCH   9  27
TORSDOF 11
