REMARK  Name = ZINC02858355
REMARK  7 active torsions:
REMARK  status: ('A' for Active; 'I' for Inactive)
REMARK    1  A    between atoms: C_10  and  N_11
REMARK    2  A    between atoms: N_11  and  C_12
REMARK    3  A    between atoms: C_12  and  N_14
REMARK    4  A    between atoms: N_14  and  N_15
REMARK    5  A    between atoms: N_15  and  C_16
REMARK    6  A    between atoms: C_16  and  N_18
REMARK    7  A    between atoms: N_18  and  C_19
REMARK                            x       y       z     vdW  Elec       q    Type
REMARK                         _______ _______ _______ _____ _____    ______ ____
ROOT
ATOM      1  N   UNL     1       2.347  -0.365   0.652  0.00  0.00    -0.246 N 
ATOM      2  H   UNL     1       1.567  -0.677   1.135  0.00  0.00    +0.172 HD
ENDROOT
BRANCH   1   3
ATOM      3  C   UNL     1       3.504  -1.053   0.723  0.00  0.00    +0.151 C 
ATOM      4  S   UNL     1       3.595  -2.479   1.666  0.00  0.00    -0.017 S 
BRANCH   3   5
ATOM      5  N   UNL     1       4.589  -0.619   0.051  0.00  0.00    -0.295 N 
ATOM      6  H   UNL     1       4.545   0.204  -0.461  0.00  0.00    +0.154 HD
BRANCH   5  16
ATOM      7  C   UNL     1       9.479   0.554   0.478  0.00  0.00    +0.001 A 
ATOM      8  C   UNL     1       8.307   1.306   0.440  0.00  0.00    +0.001 A 
ATOM      9  C   UNL     1       7.092   0.704   0.314  0.00  0.00    +0.010 A 
ATOM     10  C   UNL     1       7.016  -0.694   0.216  0.00  0.00    +0.003 A 
ATOM     11  C   UNL     1       8.207  -1.460   0.260  0.00  0.00    -0.016 A 
ATOM     12  C   UNL     1       9.443  -0.804   0.391  0.00  0.00    +0.008 A 
ATOM     13  C   UNL     1       8.133  -2.860   0.168  0.00  0.00    +0.008 A 
ATOM     14  C   UNL     1       6.922  -3.470   0.043  0.00  0.00    +0.002 A 
ATOM     15  C   UNL     1       5.745  -2.729   0.004  0.00  0.00    +0.024 A 
ATOM     16  C   UNL     1       5.775  -1.353   0.091  0.00  0.00    +0.040 A 
ENDBRANCH   5  16
ENDBRANCH   3   5
ENDBRANCH   1   3
BRANCH   1  17
ATOM     17  N   UNL     1       2.273   0.802  -0.120  0.00  0.00    -0.246 N 
ATOM     18  H   UNL     1       3.053   1.114  -0.604  0.00  0.00    +0.172 HD
BRANCH  17  19
ATOM     19  C   UNL     1       1.116   1.490  -0.191  0.00  0.00    +0.151 C 
ATOM     20  S   UNL     1       1.025   2.916  -1.134  0.00  0.00    -0.017 S 
BRANCH  19  21
ATOM     21  N   UNL     1       0.031   1.056   0.481  0.00  0.00    -0.296 N 
ATOM     22  H   UNL     1       0.065   0.216   0.965  0.00  0.00    +0.154 HD
BRANCH  21  23
ATOM     23  C   UNL     1      -1.145   1.814   0.476  0.00  0.00    +0.033 A 
ATOM     24  C   UNL     1      -1.839   2.029   1.659  0.00  0.00    +0.025 A 
ATOM     25  C   UNL     1      -2.997   2.782   1.652  0.00  0.00    +0.022 A 
ATOM     26  C   UNL     1      -3.471   3.313   0.466  0.00  0.00    +0.041 A 
ATOM     27  C   UNL     1      -2.784   3.096  -0.716  0.00  0.00    +0.022 A 
ATOM     28  C   UNL     1      -1.623   2.348  -0.714  0.00  0.00    +0.025 A 
ATOM     29 CL   UNL     1      -4.930   4.253   0.459  0.00  0.00    -0.084 Cl
ENDBRANCH  21  23
ENDBRANCH  19  21
ENDBRANCH  17  19
ENDBRANCH   1  17
TORSDOF 7
