REMARK  Name = ZINC30578277
REMARK  10 active torsions:
REMARK  status: ('A' for Active; 'I' for Inactive)
REMARK    1  A    between atoms: C_1  and  C_2
REMARK    2  A    between atoms: C_5  and  N_32
REMARK    3  A    between atoms: C_7  and  S_8
REMARK    4  A    between atoms: S_8  and  N_11
REMARK    5  A    between atoms: N_14  and  C_17
REMARK    6  A    between atoms: C_17  and  C_18
REMARK    7  A    between atoms: N_20  and  C_21
REMARK    8  A    between atoms: C_21  and  C_22
REMARK    9  A    between atoms: C_25  and  O_28
REMARK   10  A    between atoms: O_28  and  C_29
REMARK                            x       y       z     vdW  Elec       q    Type
REMARK                         _______ _______ _______ _____ _____    ______ ____
ROOT
ATOM      1  N   UNL     1       1.071  -4.811   0.858  0.00  0.00    -0.180 NA
ATOM      2  C   UNL     1       1.599  -4.347  -0.434  0.00  0.00    +0.091 C 
ATOM      3  C   UNL     1       1.998  -2.874  -0.296  0.00  0.00    -0.061 C 
ATOM      4  N   UNL     1       0.857  -2.107   0.221  0.00  0.00    +0.387 N 
ATOM      5  C   UNL     1       0.479  -2.555   1.568  0.00  0.00    -0.061 C 
ATOM      6  C   UNL     1       0.018  -4.016   1.506  0.00  0.00    +0.091 C 
ATOM      7  H   UNL     1       0.001  -2.292  -0.445  0.00  0.00    -0.081 HD
ENDROOT
BRANCH   1   8
ATOM      8  S   UNL     1       1.649  -6.193   1.565  0.00  0.00    +0.061 S 
ATOM      9  O   UNL     1       0.573  -6.748   2.309  0.00  0.00    -0.153 OA
ATOM     10  O   UNL     1       2.325  -6.918   0.547  0.00  0.00    -0.153 OA
BRANCH   8  17
ATOM     11  C   UNL     1       4.300  -4.937   0.829  0.00  0.00    +0.046 C 
ATOM     12  C   UNL     1       4.056  -5.140   2.302  0.00  0.00    -0.024 A 
ATOM     13  C   UNL     1       5.017  -4.758   3.220  0.00  0.00    +0.007 A 
ATOM     14  C   UNL     1       4.794  -4.944   4.572  0.00  0.00    +0.033 A 
ATOM     15  C   UNL     1       3.610  -5.511   5.005  0.00  0.00    +0.128 A 
ATOM     16  C   UNL     1       2.648  -5.889   4.087  0.00  0.00    +0.061 A 
ATOM     17  C   UNL     1       2.873  -5.707   2.735  0.00  0.00    +0.111 A 
BRANCH  15  18
ATOM     18  N   UNL     1       3.370  -5.710   6.452  0.00  0.00    +0.056 N 
ATOM     19  O   UNL     1       4.216  -5.373   7.261  0.00  0.00    -0.126 OA
ATOM     20  O   UNL     1       2.327  -6.209   6.834  0.00  0.00    -0.126 OA
ENDBRANCH  15  18
ENDBRANCH   8  17
ENDBRANCH   1   8
BRANCH   4  21
ATOM     21  C   UNL     1       1.141  -0.666   0.206  0.00  0.00    +0.019 C 
BRANCH  21  22
ATOM     22  C   UNL     1      -0.123   0.098   0.505  0.00  0.00    +0.197 C 
ATOM     23  O   UNL     1      -1.159  -0.499   0.710  0.00  0.00    -0.278 OA
ATOM     24  N   UNL     1      -0.103   1.445   0.544  0.00  0.00    -0.313 N 
ATOM     25  H   UNL     1       0.837   1.987   0.362  0.00  0.00    +0.149 HD
BRANCH  24  26
ATOM     26  C   UNL     1      -1.333   2.188   0.829  0.00  0.00    +0.139 C 
BRANCH  26  27
ATOM     27  C   UNL     1      -1.042   3.667   0.815  0.00  0.00    -0.030 A 
ATOM     28  C   UNL     1      -0.665   4.307   1.981  0.00  0.00    +0.009 A 
ATOM     29  C   UNL     1      -0.392   5.661   1.970  0.00  0.00    +0.046 A 
ATOM     30  C   UNL     1      -0.506   6.381   0.789  0.00  0.00    +0.127 A 
ATOM     31  C   UNL     1      -0.890   5.737  -0.379  0.00  0.00    +0.046 A 
ATOM     32  C   UNL     1      -1.156   4.382  -0.363  0.00  0.00    +0.009 A 
BRANCH  30  33
ATOM     33  O   UNL     1      -0.243   7.714   0.776  0.00  0.00    -0.434 OA
BRANCH  33  34
ATOM     34  C   UNL     1       0.147   8.310   2.015  0.00  0.00    +0.541 C 
ATOM     35  F   UNL     1      -0.874   8.138   2.957  0.00  0.00    -0.166 F 
ATOM     36  F   UNL     1       1.317   7.700   2.479  0.00  0.00    -0.166 F 
ENDBRANCH  33  34
ENDBRANCH  30  33
ENDBRANCH  26  27
ENDBRANCH  24  26
ENDBRANCH  21  22
ENDBRANCH   4  21
TORSDOF 9
