REMARK  Name = ZINC02190046
REMARK  6 active torsions:
REMARK  status: ('A' for Active; 'I' for Inactive)
REMARK    1  A    between atoms: C_1  and  C_2
REMARK    2  A    between atoms: C_7  and  N_8
REMARK    3  A    between atoms: C_13  and  S_15
REMARK    4  A    between atoms: S_15  and  C_16
REMARK    5  A    between atoms: N_25  and  C_26
REMARK    6  A    between atoms: C_31  and  C_32
REMARK                            x       y       z     vdW  Elec       q    Type
REMARK                         _______ _______ _______ _____ _____    ______ ____
ROOT
ATOM      1  N   UNL     1      -0.057  -0.037   2.389  0.00  0.00    -0.283 N 
ATOM      2  C   UNL     1       0.301  -0.706   3.544  0.00  0.00    +0.225 A 
ATOM      3  N   UNL     1       0.132  -0.125   4.728  0.00  0.00    -0.181 NA
ATOM      4  C   UNL     1       0.476  -0.768   5.839  0.00  0.00    +0.225 A 
ATOM      5  N   UNL     1       0.990  -1.992   5.766  0.00  0.00    -0.188 NA
ATOM      6  C   UNL     1       1.159  -2.573   4.583  0.00  0.00    +0.203 A 
ATOM      7  N   UNL     1       0.809  -1.932   3.472  0.00  0.00    -0.188 NA
ATOM      8  N   UNL     1       0.301  -0.165   7.069  0.00  0.00    -0.283 N 
ATOM      9  H   UNL     1      -0.006  -0.488   1.532  0.00  0.00    +0.155 HD
ATOM     10  H   UNL     1       0.013   0.761   7.119  0.00  0.00    +0.155 HD
ENDROOT
BRANCH   1  17
ATOM     11  C   UNL     1       0.479   1.665   0.173  0.00  0.00    +0.045 C 
ATOM     12  C   UNL     1      -0.251   2.155   1.397  0.00  0.00    -0.029 A 
ATOM     13  C   UNL     1      -0.687   3.465   1.463  0.00  0.00    +0.005 A 
ATOM     14  C   UNL     1      -1.357   3.915   2.586  0.00  0.00    +0.000 A 
ATOM     15  C   UNL     1      -1.593   3.058   3.645  0.00  0.00    +0.002 A 
ATOM     16  C   UNL     1      -1.160   1.748   3.584  0.00  0.00    +0.023 A 
ATOM     17  C   UNL     1      -0.492   1.290   2.456  0.00  0.00    +0.037 A 
ENDBRANCH   1  17
BRANCH   8  18
ATOM     18  C   UNL     1       0.537  -0.887   8.243  0.00  0.00    +0.037 A 
ATOM     19  C   UNL     1       0.260  -2.247   8.291  0.00  0.00    +0.023 A 
ATOM     20  C   UNL     1       0.495  -2.958   9.451  0.00  0.00    +0.002 A 
ATOM     21  C   UNL     1       1.007  -2.317  10.565  0.00  0.00    +0.000 A 
ATOM     22  C   UNL     1       1.284  -0.963  10.521  0.00  0.00    +0.005 A 
ATOM     23  C   UNL     1       1.056  -0.248   9.361  0.00  0.00    -0.029 A 
ATOM     24  C   UNL     1       1.365   1.226   9.312  0.00  0.00    +0.045 C 
ENDBRANCH   8  18
BRANCH   6  25
ATOM     25  S   UNL     1       1.840  -4.195   4.487  0.00  0.00    +0.009 S 
BRANCH  25  26
ATOM     26  C   UNL     1       1.729  -4.603   2.776  0.00  0.00    +0.266 A 
ATOM     27  N   UNL     1       1.328  -3.787   1.835  0.00  0.00    -0.203 NA
ATOM     28  C   UNL     1       1.371  -4.441   0.642  0.00  0.00    +0.110 A 
ATOM     29  C   UNL     1       1.064  -4.076  -0.669  0.00  0.00    +0.031 A 
ATOM     30  C   UNL     1       1.218  -4.991  -1.687  0.00  0.00    +0.002 A 
ATOM     31  C   UNL     1       1.675  -6.271  -1.416  0.00  0.00    +0.004 A 
ATOM     32  C   UNL     1       1.982  -6.646  -0.124  0.00  0.00    +0.048 A 
ATOM     33  C   UNL     1       1.834  -5.738   0.912  0.00  0.00    +0.156 A 
ATOM     34  O   UNL     1       2.050  -5.797   2.246  0.00  0.00    -0.430 OA
ENDBRANCH  25  26
ENDBRANCH   6  25
TORSDOF 4
