REMARK  Name = ZINC46791694
REMARK  8 active torsions:
REMARK  status: ('A' for Active; 'I' for Inactive)
REMARK    1  A    between atoms: C_1  and  C_2
REMARK    2  A    between atoms: C_7  and  C_10
REMARK    3  A    between atoms: C_14  and  C_17
REMARK    4  A    between atoms: C_17  and  N_18
REMARK    5  A    between atoms: C_19  and  C_21
REMARK    6  A    between atoms: C_22  and  C_23
REMARK    7  A    between atoms: C_26  and  C_28
REMARK    8  A    between atoms: C_33  and  N_34
REMARK                            x       y       z     vdW  Elec       q    Type
REMARK                         _______ _______ _______ _____ _____    ______ ____
ROOT
ATOM      1  N   UNL     1      -3.369  -5.796  -4.369  0.00  0.00    -0.308 N 
ATOM      2  C   UNL     1      -3.827  -6.645  -5.310  0.00  0.00    +0.237 C 
ATOM      3  O   UNL     1      -4.919  -7.169  -5.179  0.00  0.00    -0.271 OA
ATOM      4  H   UNL     1      -2.500  -5.378  -4.474  0.00  0.00    +0.149 HD
ENDROOT
BRANCH   2   5
ATOM      5  C   UNL     1      -3.040  -6.928  -6.451  0.00  0.00    +0.068 C 
ATOM      6  C   UNL     1      -3.501  -7.783  -7.399  0.00  0.00    +0.020 C 
BRANCH   6   7
ATOM      7  C   UNL     1      -2.714  -8.066  -8.539  0.00  0.00    +0.013 A 
ATOM      8  C   UNL     1      -3.002  -8.898  -9.616  0.00  0.00    +0.016 A 
ATOM      9  C   UNL     1      -2.080  -9.018 -10.616  0.00  0.00    +0.017 A 
ATOM     10  C   UNL     1      -0.894  -8.305 -10.519  0.00  0.00    +0.022 A 
ATOM     11  S   UNL     1      -1.099  -7.439  -8.971  0.00  0.00    -0.089 S 
BRANCH  10  12
ATOM     12  C   UNL     1       0.245  -8.268 -11.458  0.00  0.00    +0.019 A 
ATOM     13  C   UNL     1       0.803  -9.457 -11.932  0.00  0.00    +0.011 A 
ATOM     14  C   UNL     1       1.866  -9.415 -12.810  0.00  0.00    +0.001 A 
ATOM     15  C   UNL     1       2.380  -8.198 -13.221  0.00  0.00    +0.002 A 
ATOM     16  C   UNL     1       1.832  -7.016 -12.756  0.00  0.00    +0.033 A 
ATOM     17  C   UNL     1       0.765  -7.043 -11.882  0.00  0.00    +0.134 A 
BRANCH  17  18
ATOM     18  N   UNL     1       0.176  -5.777 -11.390  0.00  0.00    +0.057 N 
ATOM     19  O   UNL     1       0.627  -4.718 -11.757  0.00  0.00    -0.126 OA
ATOM     20  O   UNL     1      -0.756  -5.803 -10.620  0.00  0.00    -0.126 OA
ENDBRANCH  17  18
ENDBRANCH  10  12
ENDBRANCH   6   7
ENDBRANCH   2   5
BRANCH   1  21
ATOM     21  C   UNL     1      -4.185  -5.503  -3.188  0.00  0.00    +0.141 C 
BRANCH  21  33
ATOM     22  C   UNL     1       0.024   1.508  -0.007  0.00  0.00    +0.039 C 
ATOM     23  C   UNL     1       0.027  -0.022  -0.001  0.00  0.00    +0.133 C 
ATOM     24  C   UNL     1      -1.417  -0.537   0.001  0.00  0.00    +0.137 C 
ATOM     25  N   UNL     1      -1.389  -1.995   0.196  0.00  0.00    -0.312 N 
ATOM     26  C   UNL     1      -0.598  -2.529   1.316  0.00  0.00    +0.137 C 
ATOM     27  C   UNL     1       0.806  -1.917   1.250  0.00  0.00    +0.133 C 
ATOM     28  O   UNL     1       0.698  -0.493   1.171  0.00  0.00    -0.371 OA
ATOM     29  C   UNL     1       1.591  -2.301   2.506  0.00  0.00    +0.039 C 
ATOM     30  C   UNL     1      -2.091  -2.844  -0.652  0.00  0.00    +0.099 A 
ATOM     31  C   UNL     1      -2.927  -2.308  -1.627  0.00  0.00    +0.042 A 
ATOM     32  C   UNL     1      -3.619  -3.164  -2.464  0.00  0.00    +0.010 A 
ATOM     33  C   UNL     1      -3.451  -4.533  -2.299  0.00  0.00    -0.014 A 
ATOM     34  C   UNL     1      -2.604  -4.995  -1.311  0.00  0.00    +0.089 A 
ATOM     35  N   UNL     1      -1.953  -4.155  -0.530  0.00  0.00    -0.349 N 
ATOM     36  H   UNL     1      -1.361  -4.507   0.154  0.00  0.00    +0.167 HD
ENDBRANCH  21  33
ENDBRANCH   1  21
TORSDOF 6
