REMARK  Name = ZINC04703532
REMARK  4 active torsions:
REMARK  status: ('A' for Active; 'I' for Inactive)
REMARK    1  A    between atoms: C_6  and  C_7
REMARK    2  A    between atoms: N_8  and  N_9
REMARK    3  A    between atoms: C_10  and  C_11
REMARK    4  A    between atoms: C_15  and  N_17
REMARK                            x       y       z     vdW  Elec       q    Type
REMARK                         _______ _______ _______ _____ _____    ______ ____
ROOT
ATOM      1  N   UNL     1      -1.312   3.424   0.027  0.00  0.00    -0.157 NA
ATOM      2  C   UNL     1      -1.298   2.116   0.020  0.00  0.00    +0.142 C 
ENDROOT
BRANCH   2   3
ATOM      3  C   UNL     1      -0.017   1.395   0.010  0.00  0.00    -0.003 A 
ATOM      4  C   UNL     1       1.189   2.104   0.002  0.00  0.00    +0.011 A 
ATOM      5  C   UNL     1       2.386   1.421  -0.014  0.00  0.00    +0.023 A 
ATOM      6  C   UNL     1       2.397   0.035  -0.021  0.00  0.00    +0.071 A 
ATOM      7  C   UNL     1       1.207  -0.673  -0.013  0.00  0.00    +0.145 A 
ATOM      8  C   UNL     1       0.002  -0.004   0.002  0.00  0.00    +0.043 A 
ATOM      9 CL   UNL     1       3.910  -0.816  -0.040  0.00  0.00    -0.081 Cl
BRANCH   7  10
ATOM     10  N   UNL     1       1.229  -2.154  -0.021  0.00  0.00    +0.058 N 
ATOM     11  O   UNL     1       0.184  -2.778  -0.014  0.00  0.00    -0.126 OA
ATOM     12  O   UNL     1       2.293  -2.747  -0.034  0.00  0.00    -0.126 OA
ENDBRANCH   7  10
ENDBRANCH   2   3
BRANCH   1  14
ATOM     13  C   UNL     1      -2.450   5.364   0.043  0.00  0.00    +0.142 C 
ATOM     14  N   UNL     1      -2.436   4.056   0.036  0.00  0.00    -0.157 NA
BRANCH  13  20
ATOM     15  C   UNL     1      -4.938   5.376   0.049  0.00  0.00    +0.010 A 
ATOM     16  C   UNL     1      -6.135   6.059   0.063  0.00  0.00    +0.016 A 
ATOM     17  C   UNL     1      -6.145   7.445   0.071  0.00  0.00    +0.018 A 
ATOM     18  C   UNL     1      -4.955   8.154   0.069  0.00  0.00    +0.016 A 
ATOM     19  C   UNL     1      -3.750   7.484   0.060  0.00  0.00    +0.010 A 
ATOM     20  C   UNL     1      -3.731   6.085   0.053  0.00  0.00    -0.005 A 
ATOM     21 BR   UNL     1      -7.793   8.373   0.082  0.00  0.00    -0.050 Br
ENDBRANCH  13  20
ENDBRANCH   1  14
TORSDOF 4
