REMARK  Name = ZINC67104347
REMARK  13 active torsions:
REMARK  status: ('A' for Active; 'I' for Inactive)
REMARK    1  A    between atoms: C_1  and  C_2
REMARK    2  A    between atoms: C_2  and  C_3
REMARK    3  A    between atoms: C_2  and  C_4
REMARK    4  A    between atoms: C_4  and  C_5
REMARK    5  A    between atoms: C_5  and  C_6
REMARK    6  A    between atoms: N_8  and  N_9
REMARK    7  A    between atoms: N_12  and  C_13
REMARK    8  A    between atoms: C_13  and  C_14
REMARK    9  A    between atoms: C_18  and  N_20
REMARK   10  A    between atoms: C_21  and  C_23
REMARK   11  A    between atoms: C_23  and  N_24
REMARK   12  A    between atoms: N_24  and  C_25
REMARK   13  A    between atoms: N_24  and  C_26
REMARK                            x       y       z     vdW  Elec       q    Type
REMARK                         _______ _______ _______ _____ _____    ______ ____
ROOT
ATOM      1  C   UNL     1       7.961   0.507  -3.049  0.00  0.00    +0.141 C 
ENDROOT
BRANCH   1   5
ATOM      2  N   UNL     1       4.392  -0.333  -3.327  0.00  0.00    -0.218 N 
ATOM      3  C   UNL     1       5.709  -0.243  -3.599  0.00  0.00    +0.316 C 
ATOM      4  O   UNL     1       6.157  -0.750  -4.609  0.00  0.00    -0.251 OA
ATOM      5  N   UNL     1       6.529   0.409  -2.752  0.00  0.00    -0.294 N 
ATOM      6  H   UNL     1       3.802  -0.803  -3.936  0.00  0.00    +0.174 HD
ATOM      7  H   UNL     1       6.172   0.814  -1.946  0.00  0.00    +0.151 HD
BRANCH   2  10
ATOM      8  C   UNL     1       2.559   0.161  -1.890  0.00  0.00    +0.229 C 
ATOM      9  O   UNL     1       1.821  -0.426  -2.652  0.00  0.00    -0.274 OA
ATOM     10  N   UNL     1       3.876   0.251  -2.163  0.00  0.00    -0.233 N 
ATOM     11  H   UNL     1       4.467   0.721  -1.553  0.00  0.00    +0.173 HD
BRANCH   8  12
ATOM     12  C   UNL     1       2.005   0.790  -0.638  0.00  0.00    +0.097 C 
BRANCH  12  13
ATOM     13  C   UNL     1       0.496   0.544  -0.569  0.00  0.00    +0.012 C 
BRANCH  13  15
ATOM     14  C   UNL     1       0.091   2.702   0.623  0.00  0.00    +0.007 C 
ATOM     15  C   UNL     1      -0.068   1.183   0.702  0.00  0.00    -0.017 C 
ATOM     16  C   UNL     1      -1.551   0.831   0.835  0.00  0.00    +0.007 C 
ENDBRANCH  13  15
ENDBRANCH  12  13
ENDBRANCH   8  12
ENDBRANCH   2  10
ENDBRANCH   1   5
BRANCH   1  17
ATOM     17  C   UNL     1       8.649   1.281  -1.953  0.00  0.00    -0.029 A 
ATOM     18  C   UNL     1       8.765   2.655  -2.047  0.00  0.00    +0.005 A 
ATOM     19  C   UNL     1       9.396   3.369  -1.044  0.00  0.00    +0.002 A 
ATOM     20  C   UNL     1       9.911   2.709   0.055  0.00  0.00    +0.023 A 
ATOM     21  C   UNL     1       9.796   1.329   0.152  0.00  0.00    +0.034 A 
ATOM     22  C   UNL     1       9.157   0.616  -0.855  0.00  0.00    +0.028 A 
BRANCH  21  23
ATOM     23  N   UNL     1      10.317   0.658   1.264  0.00  0.00    -0.287 N 
ATOM     24  C   UNL     1      10.312   1.253   2.473  0.00  0.00    +0.201 C 
ATOM     25  O   UNL     1       9.771   2.328   2.618  0.00  0.00    -0.278 OA
ATOM     26  H   UNL     1      10.681  -0.235   1.164  0.00  0.00    +0.155 HD
BRANCH  24  27
ATOM     27  C   UNL     1      10.979   0.581   3.646  0.00  0.00    +0.018 C 
BRANCH  27  28
ATOM     28  N   UNL     1      10.836   1.425   4.840  0.00  0.00    +0.382 N 
ATOM     29  C   UNL     1       9.416   1.522   5.204  0.00  0.00    -0.096 C 
ATOM     30  C   UNL     1      11.588   0.830   5.953  0.00  0.00    -0.096 C 
ATOM     31  H   UNL     1      11.197   2.347   4.645  0.00  0.00    -0.082 HD
ENDBRANCH  27  28
ENDBRANCH  24  27
ENDBRANCH  21  23
ENDBRANCH   1  17
TORSDOF 9
