REMARK  Name = ZINC51173199
REMARK  4 active torsions:
REMARK  status: ('A' for Active; 'I' for Inactive)
REMARK    1  A    between atoms: C_5  and  C_6
REMARK    2  A    between atoms: N_8  and  C_9
REMARK    3  A    between atoms: C_9  and  C_17
REMARK    4  A    between atoms: N_18  and  O_19
REMARK                            x       y       z     vdW  Elec       q    Type
REMARK                         _______ _______ _______ _____ _____    ______ ____
ROOT
ATOM      1  C   UNL     1      -2.008  -3.195   0.113  0.00  0.00    +0.093 C 
ATOM      2  C   UNL     1      -2.904  -2.774   1.274  0.00  0.00    +0.033 C 
ATOM      3  C   UNL     1      -2.982  -3.820   2.386  0.00  0.00    +0.002 C 
ATOM      4  C   UNL     1      -2.064  -3.373   3.540  0.00  0.00    +0.000 C 
ATOM      5  C   UNL     1      -0.608  -3.570   3.129  0.00  0.00    +0.000 C 
ATOM      6  C   UNL     1      -0.416  -4.922   2.455  0.00  0.00    +0.000 C 
ATOM      7  C   UNL     1      -0.174  -4.743   0.961  0.00  0.00    +0.002 C 
ATOM      8  C   UNL     1      -1.488  -4.616   0.204  0.00  0.00    +0.033 C 
ENDROOT
BRANCH   1   9
ATOM      9  C   UNL     1      -2.833  -3.082  -1.162  0.00  0.00    +0.155 C 
ATOM     10  N   UNL     1      -3.932  -3.750  -1.282  0.00  0.00    -0.075 NA
ATOM     11  N   UNL     1      -2.408  -2.267  -2.188  0.00  0.00    -0.342 N 
ATOM     12  H   UNL     1      -1.546  -1.825  -2.130  0.00  0.00    +0.144 HD
ATOM     13  H   UNL     1      -2.970  -2.135  -2.967  0.00  0.00    +0.144 HD
BRANCH  10  14
ATOM     14  O   UNL     1      -4.315  -4.670  -0.275  0.00  0.00    -0.408 OA
ATOM     15  H   UNL     1      -5.151  -5.121  -0.453  0.00  0.00    +0.328 HD
ENDBRANCH  10  14
ENDBRANCH   1   9
BRANCH   1  18
ATOM     16  C   UNL     1      -1.153  -0.913  -0.002  0.00  0.00    +0.251 C 
ATOM     17  O   UNL     1      -2.302  -0.512   0.008  0.00  0.00    -0.270 OA
ATOM     18  N   UNL     1      -0.901  -2.237  -0.010  0.00  0.00    -0.299 N 
ATOM     19  H   UNL     1       0.010  -2.557  -0.097  0.00  0.00    +0.150 HD
BRANCH  16  24
ATOM     20  C   UNL     1      -0.085   1.430   0.003  0.00  0.00    +0.022 A 
ATOM     21  C   UNL     1       1.134   2.063  -0.001  0.00  0.00    +0.028 A 
ATOM     22  C   UNL     1       2.267   1.314  -0.012  0.00  0.00    +0.079 A 
ATOM     23  S   UNL     1       1.711  -0.271  -0.017  0.00  0.00    -0.072 S 
ATOM     24  C   UNL     1      -0.043   0.044  -0.004  0.00  0.00    +0.075 A 
ATOM     25 CL   UNL     1       3.912   1.868  -0.019  0.00  0.00    -0.076 Cl
ENDBRANCH  16  24
ENDBRANCH   1  18
TORSDOF 4
