REMARK  Name = ZINC39960482
REMARK  10 active torsions:
REMARK  status: ('A' for Active; 'I' for Inactive)
REMARK    1  A    between atoms: C_1  and  C_2
REMARK    2  A    between atoms: C_3  and  C_33
REMARK    3  A    between atoms: C_4  and  C_23
REMARK    4  A    between atoms: C_10  and  C_11
REMARK    5  A    between atoms: C_28  and  O_29
REMARK    6  A    between atoms: O_29  and  C_30
REMARK    7  A    between atoms: C_30  and  C_31
REMARK    8  A    between atoms: C_30  and  C_32
REMARK    9  A    between atoms: C_33  and  O_35
REMARK   10  A    between atoms: O_35  and  C_36
REMARK                            x       y       z     vdW  Elec       q    Type
REMARK                         _______ _______ _______ _____ _____    ______ ____
ROOT
ATOM      1  C   UNL     1      -0.098   1.767  -0.166  0.00  0.00    +0.066 C 
ATOM      2  C   UNL     1      -0.072   0.261  -0.207  0.00  0.00    +0.053 C 
ATOM      3  C   UNL     1      -1.241  -0.439  -0.108  0.00  0.00    +0.085 C 
ATOM      4  C   UNL     1      -1.172  -1.948  -0.153  0.00  0.00    +0.165 C 
ATOM      5  N   UNL     1       0.177  -2.563  -0.303  0.00  0.00    -0.275 N 
ATOM      6  C   UNL     1       0.440  -3.875  -0.363  0.00  0.00    +0.268 A 
ATOM      7  O   UNL     1      -0.453  -4.698  -0.295  0.00  0.00    -0.266 OA
ATOM      8  C   UNL     1       1.850  -4.289  -0.514  0.00  0.00    +0.080 A 
ATOM      9  C   UNL     1       2.389  -5.558  -0.600  0.00  0.00    +0.026 C 
ATOM     10  S   UNL     1       2.670  -2.703  -0.555  0.00  0.00    -0.046 S 
ATOM     11  C   UNL     1       1.224  -1.674  -0.384  0.00  0.00    +0.178 A 
ATOM     12  N   UNL     1       1.086  -0.375  -0.343  0.00  0.00    -0.228 NA
ENDROOT
BRANCH   9  13
ATOM     13  C   UNL     1       3.768  -5.723  -0.741  0.00  0.00    -0.018 C 
ATOM     14  C   UNL     1       4.468  -6.925  -0.847  0.00  0.00    +0.003 A 
ATOM     15  C   UNL     1       4.053  -8.274  -0.847  0.00  0.00    +0.010 A 
ATOM     16  C   UNL     1       4.975  -9.261  -0.969  0.00  0.00    +0.001 A 
ATOM     17  C   UNL     1       6.340  -8.980  -1.095  0.00  0.00    +0.002 A 
ATOM     18  C   UNL     1       6.810  -7.711  -1.104  0.00  0.00    +0.026 A 
ATOM     19  C   UNL     1       5.905  -6.621  -0.981  0.00  0.00    +0.043 A 
ATOM     20  N   UNL     1       6.104  -5.322  -0.962  0.00  0.00    -0.380 N 
ATOM     21  C   UNL     1       4.817  -4.635  -0.818  0.00  0.00    +0.149 C 
ATOM     22  H   UNL     1       6.968  -4.886  -1.034  0.00  0.00    +0.160 HD
ENDBRANCH   9  13
BRANCH   4  23
ATOM     23  C   UNL     1      -1.784  -2.478   1.118  0.00  0.00    +0.022 A 
ATOM     24  C   UNL     1      -3.031  -3.072   1.090  0.00  0.00    +0.009 A 
ATOM     25  C   UNL     1      -3.593  -3.558   2.256  0.00  0.00    +0.001 A 
ATOM     26  C   UNL     1      -2.909  -3.451   3.453  0.00  0.00    +0.004 A 
ATOM     27  C   UNL     1      -1.661  -2.859   3.486  0.00  0.00    +0.046 A 
ATOM     28  C   UNL     1      -1.093  -2.376   2.316  0.00  0.00    +0.126 A 
BRANCH  28  29
ATOM     29  O   UNL     1       0.137  -1.798   2.345  0.00  0.00    -0.489 OA
BRANCH  29  30
ATOM     30  C   UNL     1       0.823  -1.794   3.599  0.00  0.00    +0.167 C 
ATOM     31  C   UNL     1       1.538  -3.133   3.793  0.00  0.00    +0.051 C 
ATOM     32  C   UNL     1       1.849  -0.660   3.616  0.00  0.00    +0.051 C 
ENDBRANCH  29  30
ENDBRANCH  28  29
ENDBRANCH   4  23
BRANCH   3  33
ATOM     33  C   UNL     1      -2.473   0.226   0.031  0.00  0.00    +0.339 C 
ATOM     34  O   UNL     1      -2.499   1.435   0.175  0.00  0.00    -0.245 OA
BRANCH  33  35
ATOM     35  O   UNL     1      -3.626  -0.477   0.006  0.00  0.00    -0.465 OA
ATOM     36  C   UNL     1      -4.843   0.272   0.041  0.00  0.00    +0.280 C 
ENDBRANCH  33  35
ENDBRANCH   3  33
TORSDOF 6
