REMARK  Name = ZINC63104257
REMARK  1 active torsions:
REMARK  status: ('A' for Active; 'I' for Inactive)
REMARK    1  A    between atoms: C_6  and  N_7
REMARK                            x       y       z     vdW  Elec       q    Type
REMARK                         _______ _______ _______ _____ _____    ______ ____
ROOT
ATOM      1  C   UNL     1      -0.017   1.388   0.010  0.00  0.00    +0.025 A 
ATOM      2  C   UNL     1       1.143   2.119   0.003  0.00  0.00    +0.031 A 
ATOM      3  C   UNL     1       2.402   1.478  -0.013  0.00  0.00    +0.080 A 
ATOM      4  C   UNL     1       2.386   0.064  -0.021  0.00  0.00    +0.042 A 
ATOM      5  C   UNL     1       1.224  -0.664  -0.013  0.00  0.00    +0.040 A 
ATOM      6  C   UNL     1       0.002  -0.004   0.002  0.00  0.00    +0.026 A 
ATOM      7  S   UNL     1       4.118  -0.334  -0.039  0.00  0.00    -0.052 S 
ATOM      8  C   UNL     1       4.735   1.343  -0.036  0.00  0.00    +0.162 A 
ATOM      9  N   UNL     1       3.629   2.049  -0.022  0.00  0.00    -0.225 NA
ATOM     10  N   UNL     1       6.044   1.784  -0.046  0.00  0.00    -0.302 N 
ATOM     11  C   UNL     1       7.173   0.836  -0.067  0.00  0.00    +0.135 C 
ATOM     12  C   UNL     1       8.161   1.218   1.039  0.00  0.00    +0.179 C 
ATOM     13  O   UNL     1       8.486   2.609   0.942  0.00  0.00    -0.373 OA
ATOM     14  C   UNL     1       7.360   3.469   1.106  0.00  0.00    +0.139 C 
ATOM     15  C   UNL     1       6.368   3.216  -0.042  0.00  0.00    +0.104 C 
ATOM     16  C   UNL     1       5.115   4.058   0.190  0.00  0.00    +0.025 C 
ATOM     17  C   UNL     1       5.505   5.539   0.186  0.00  0.00    +0.002 C 
ATOM     18  C   UNL     1       6.529   5.813   1.288  0.00  0.00    +0.003 C 
ATOM     19  C   UNL     1       7.772   4.939   1.072  0.00  0.00    +0.033 C 
ENDROOT
BRANCH   6  20
ATOM     20  N   UNL     1      -1.195  -0.729   0.009  0.00  0.00    -0.358 N 
ATOM     21  H   UNL     1      -2.045  -0.262   0.019  0.00  0.00    +0.142 HD
ATOM     22  H   UNL     1      -1.175  -1.699   0.004  0.00  0.00    +0.142 HD
ENDBRANCH   6  20
TORSDOF 1
