REMARK  Name = ZINC35700519
REMARK  11 active torsions:
REMARK  status: ('A' for Active; 'I' for Inactive)
REMARK    1  A    between atoms: C_1  and  C_2
REMARK    2  A    between atoms: C_2  and  C_3
REMARK    3  A    between atoms: C_3  and  C_4
REMARK    4  A    between atoms: C_4  and  C_5
REMARK    5  A    between atoms: C_5  and  N_6
REMARK    6  A    between atoms: N_6  and  C_7
REMARK    7  A    between atoms: C_7  and  C_8
REMARK    8  A    between atoms: N_10  and  C_11
REMARK    9  A    between atoms: C_13  and  C_23
REMARK   10  A    between atoms: N_15  and  C_16
REMARK   11  A    between atoms: C_29  and  C_31
REMARK                            x       y       z     vdW  Elec       q    Type
REMARK                         _______ _______ _______ _____ _____    ______ ____
ROOT
ATOM      1  C   UNL     1      -0.347  -4.783  -3.699  0.00  0.00    +0.236 C 
ATOM      2  O   UNL     1       0.473  -4.515  -4.551  0.00  0.00    -0.274 OA
ATOM      3  N   UNL     1      -1.522  -5.345  -4.047  0.00  0.00    -0.269 N 
ATOM      4  H   UNL     1      -2.178  -5.559  -3.366  0.00  0.00    +0.156 HD
ENDROOT
BRANCH   3   5
ATOM      5  C   UNL     1      -1.794  -5.617  -5.388  0.00  0.00    +0.129 A 
ATOM      6  C   UNL     1      -0.968  -5.375  -6.439  0.00  0.00    +0.074 A 
ATOM      7  C   UNL     1      -1.626  -5.798  -7.610  0.00  0.00    +0.095 A 
ATOM      8  N   UNL     1      -2.805  -6.276  -7.269  0.00  0.00    -0.165 NA
ATOM      9  N   UNL     1      -2.934  -6.179  -5.878  0.00  0.00    -0.218 N 
BRANCH   9  10
ATOM     10  C   UNL     1      -4.042  -6.587  -5.123  0.00  0.00    +0.068 A 
ATOM     11  C   UNL     1      -3.861  -7.116  -3.852  0.00  0.00    +0.030 A 
ATOM     12  C   UNL     1      -4.955  -7.516  -3.110  0.00  0.00    +0.040 A 
ATOM     13  C   UNL     1      -6.231  -7.391  -3.632  0.00  0.00    +0.124 A 
ATOM     14  C   UNL     1      -6.414  -6.863  -4.899  0.00  0.00    +0.040 A 
ATOM     15  C   UNL     1      -5.323  -6.456  -5.643  0.00  0.00    +0.030 A 
ATOM     16  F   UNL     1      -7.299  -7.783  -2.904  0.00  0.00    -0.205 F 
ENDBRANCH   9  10
BRANCH   7  17
ATOM     17  C   UNL     1      -1.085  -5.718  -8.989  0.00  0.00    +0.002 A 
ATOM     18  C   UNL     1       0.187  -5.193  -9.212  0.00  0.00    +0.010 A 
ATOM     19  C   UNL     1       0.685  -5.122 -10.497  0.00  0.00    +0.001 A 
ATOM     20  C   UNL     1      -0.074  -5.571 -11.562  0.00  0.00    +0.000 A 
ATOM     21  C   UNL     1      -1.337  -6.093 -11.347  0.00  0.00    +0.001 A 
ATOM     22  C   UNL     1      -1.843  -6.175 -10.065  0.00  0.00    +0.010 A 
ENDBRANCH   7  17
ENDBRANCH   3   5
BRANCH   1  23
ATOM     23  C   UNL     1      -0.053  -4.488  -2.251  0.00  0.00    +0.204 C 
BRANCH  23  24
ATOM     24  N   UNL     1       1.277  -3.884  -2.136  0.00  0.00    -0.289 N 
ATOM     25  C   UNL     1       2.339  -4.649  -1.815  0.00  0.00    +0.247 C 
ATOM     26  O   UNL     1       3.428  -4.137  -1.645  0.00  0.00    -0.270 OA
BRANCH  25  27
ATOM     27  C   UNL     1       2.180  -6.112  -1.670  0.00  0.00    +0.040 A 
ATOM     28  C   UNL     1       1.508  -6.845  -2.650  0.00  0.00    +0.013 A 
ATOM     29  C   UNL     1       1.362  -8.209  -2.510  0.00  0.00    +0.004 A 
ATOM     30  C   UNL     1       1.880  -8.854  -1.401  0.00  0.00    +0.038 A 
ATOM     31  C   UNL     1       2.548  -8.133  -0.423  0.00  0.00    +0.124 A 
ATOM     32  C   UNL     1       2.705  -6.767  -0.555  0.00  0.00    +0.051 A 
ATOM     33  F   UNL     1       3.050  -8.769   0.657  0.00  0.00    -0.205 F 
ENDBRANCH  25  27
BRANCH  24  34
ATOM     34  C   UNL     1       1.452  -2.449  -2.369  0.00  0.00    +0.108 C 
BRANCH  34  35
ATOM     35  C   UNL     1       1.160  -1.683  -1.078  0.00  0.00    +0.019 C 
BRANCH  35  36
ATOM     36  C   UNL     1       1.343  -0.183  -1.322  0.00  0.00    +0.001 C 
BRANCH  36  38
ATOM     37  C   UNL     1       1.234   2.082  -0.274  0.00  0.00    +0.004 C 
ATOM     38  C   UNL     1       1.051   0.583  -0.030  0.00  0.00    -0.003 C 
ENDBRANCH  36  38
ENDBRANCH  35  36
ENDBRANCH  34  35
ENDBRANCH  24  34
ENDBRANCH  23  24
ENDBRANCH   1  23
TORSDOF 10
