REMARK  Name = ZINC42010933
REMARK  7 active torsions:
REMARK  status: ('A' for Active; 'I' for Inactive)
REMARK    1  A    between atoms: C_1  and  C_2
REMARK    2  A    between atoms: C_5  and  C_11
REMARK    3  A    between atoms: C_5  and  S_14
REMARK    4  A    between atoms: C_7  and  C_9
REMARK    5  A    between atoms: C_7  and  C_10
REMARK    6  A    between atoms: S_14  and  C_15
REMARK    7  A    between atoms: C_21  and  N_23
REMARK                            x       y       z     vdW  Elec       q    Type
REMARK                         _______ _______ _______ _____ _____    ______ ____
ROOT
ATOM      1  C   UNL     1      -0.075   1.694   0.814  0.00  0.00    +0.007 C 
ATOM      2  C   UNL     1      -0.069   0.197   0.496  0.00  0.00    -0.012 C 
ATOM      3  C   UNL     1       0.548  -0.029  -0.885  0.00  0.00    +0.033 C 
ATOM      4  C   UNL     1       0.554  -1.525  -1.203  0.00  0.00    +0.125 C 
ATOM      5  C   UNL     1       1.379  -2.267  -0.149  0.00  0.00    +0.036 C 
ATOM      6  C   UNL     1       0.763  -2.041   1.233  0.00  0.00    -0.033 C 
ATOM      7  C   UNL     1       0.757  -0.544   1.550  0.00  0.00    +0.009 C 
ATOM      8  C   UNL     1      -0.673  -2.570   1.244  0.00  0.00    +0.011 C 
ATOM      9  C   UNL     1       1.588  -2.782   2.287  0.00  0.00    +0.011 C 
ENDROOT
BRANCH   4  10
ATOM     10  C   UNL     1       1.161  -1.748  -2.564  0.00  0.00    +0.372 C 
ATOM     11  O   UNL     1       2.307  -1.395  -2.785  0.00  0.00    -0.245 OA
ATOM     12  O   UNL     1       0.507  -2.280  -3.444  0.00  0.00    -0.245 OA
ENDBRANCH   4  10
BRANCH   4  13
ATOM     13  S   UNL     1      -1.148  -2.153  -1.190  0.00  0.00    -0.069 S 
BRANCH  13  14
ATOM     14  C   UNL     1      -1.958  -1.213  -2.440  0.00  0.00    +0.172 A 
ATOM     15  N   UNL     1      -3.279  -1.435  -2.691  0.00  0.00    -0.302 N 
ATOM     16  H   UNL     1      -3.762  -2.105  -2.183  0.00  0.00    +0.171 HD
ATOM     17  C   UNL     1      -3.916  -0.724  -3.645  0.00  0.00    +0.254 A 
ATOM     18  O   UNL     1      -5.099  -0.916  -3.876  0.00  0.00    -0.268 OA
ATOM     19  C   UNL     1      -3.198   0.237  -4.364  0.00  0.00    +0.113 A 
ATOM     20  C   UNL     1      -1.854   0.424  -4.070  0.00  0.00    +0.124 A 
ATOM     21  N   UNL     1      -1.277  -0.306  -3.110  0.00  0.00    -0.209 NA
BRANCH  20  22
ATOM     22  N   UNL     1      -1.118   1.365  -4.762  0.00  0.00    -0.343 N 
ATOM     23  H   UNL     1      -1.540   1.896  -5.456  0.00  0.00    +0.144 HD
ATOM     24  H   UNL     1      -0.179   1.494  -4.555  0.00  0.00    +0.144 HD
ENDBRANCH  20  22
ENDBRANCH  13  14
ENDBRANCH   4  13
TORSDOF 4
