REMARK  Name = ZINC39675260
REMARK  11 active torsions:
REMARK  status: ('A' for Active; 'I' for Inactive)
REMARK    1  A    between atoms: C_1  and  C_2
REMARK    2  A    between atoms: C_2  and  C_4
REMARK    3  A    between atoms: C_2  and  N_14
REMARK    4  A    between atoms: C_4  and  C_5
REMARK    5  A    between atoms: C_5  and  C_6
REMARK    6  A    between atoms: C_9  and  O_12
REMARK    7  A    between atoms: O_12  and  C_13
REMARK    8  A    between atoms: C_15  and  C_17
REMARK    9  A    between atoms: C_28  and  C_30
REMARK   10  A    between atoms: C_33  and  O_36
REMARK   11  A    between atoms: O_36  and  C_37
REMARK                            x       y       z     vdW  Elec       q    Type
REMARK                         _______ _______ _______ _____ _____    ______ ____
ROOT
ATOM      1  C   UNL     1      -4.044  -1.423  -0.875  0.00  0.00    +0.100 C 
ATOM      2  C   UNL     1      -4.679  -0.290  -0.039  0.00  0.00    +0.121 C 
ATOM      3  N   UNL     1      -5.231   0.651  -1.041  0.00  0.00    -0.296 N 
ATOM      4  C   UNL     1      -5.794  -0.224  -2.097  0.00  0.00    +0.115 C 
ATOM      5  C   UNL     1      -4.781  -1.379  -2.224  0.00  0.00    -0.004 C 
ATOM      6  C   UNL     1      -3.797  -1.094  -3.355  0.00  0.00    -0.010 C 
ATOM      7  C   UNL     1      -4.544  -1.111  -4.691  0.00  0.00    -0.082 C 
ATOM      8  N   UNL     1      -5.175  -2.422  -4.884  0.00  0.00    +0.379 N 
ATOM      9  C   UNL     1      -6.187  -2.648  -3.845  0.00  0.00    -0.082 C 
ATOM     10  C   UNL     1      -5.509  -2.696  -2.472  0.00  0.00    -0.010 C 
ATOM     11  C   UNL     1      -5.224   1.998  -1.002  0.00  0.00    +0.247 C 
ATOM     12  O   UNL     1      -4.611   2.578  -0.126  0.00  0.00    -0.270 OA
ATOM     13  H   UNL     1      -5.615  -2.451  -5.792  0.00  0.00    -0.086 HD
ATOM     14  H   UNL     1      -4.472  -3.143  -4.831  0.00  0.00    -0.086 HD
ENDROOT
BRANCH  11  15
ATOM     15  C   UNL     1      -5.960   2.771  -2.022  0.00  0.00    +0.037 A 
ATOM     16  C   UNL     1      -6.995   2.170  -2.743  0.00  0.00    +0.016 A 
ATOM     17  C   UNL     1      -7.679   2.894  -3.694  0.00  0.00    +0.047 A 
ATOM     18  C   UNL     1      -7.342   4.221  -3.936  0.00  0.00    +0.130 A 
ATOM     19  C   UNL     1      -6.313   4.822  -3.221  0.00  0.00    +0.047 A 
ATOM     20  C   UNL     1      -5.627   4.106  -2.265  0.00  0.00    +0.016 A 
BRANCH  18  21
ATOM     21  O   UNL     1      -8.018   4.930  -4.874  0.00  0.00    -0.406 OA
BRANCH  21  22
ATOM     22  C   UNL     1      -7.620   6.288  -5.073  0.00  0.00    +0.575 C 
ATOM     23  F   UNL     1      -6.278   6.327  -5.467  0.00  0.00    -0.133 F 
ATOM     24  F   UNL     1      -8.415   6.867  -6.068  0.00  0.00    -0.133 F 
ATOM     25  F   UNL     1      -7.776   6.999  -3.878  0.00  0.00    -0.133 F 
ENDBRANCH  21  22
ENDBRANCH  18  21
ENDBRANCH  11  15
BRANCH   1  27
ATOM     26  N   UNL     1      -1.735  -2.197  -1.313  0.00  0.00    -0.312 N 
ATOM     27  C   UNL     1      -2.572  -1.168  -1.073  0.00  0.00    +0.218 C 
ATOM     28  O   UNL     1      -2.139  -0.036  -1.016  0.00  0.00    -0.275 OA
ATOM     29  H   UNL     1      -2.081  -3.102  -1.358  0.00  0.00    +0.149 HD
BRANCH  26  31
ATOM     30  C   UNL     1       0.391  -1.893  -0.143  0.00  0.00    +0.028 C 
ATOM     31  C   UNL     1      -0.304  -1.949  -1.505  0.00  0.00    +0.070 C 
BRANCH  31  32
ATOM     32  C   UNL     1       0.301  -3.078  -2.341  0.00  0.00    +0.026 C 
BRANCH  32  33
ATOM     33  C   UNL     1      -0.305  -3.055  -3.745  0.00  0.00    +0.037 C 
BRANCH  33  34
ATOM     34  C   UNL     1       0.291  -4.168  -4.568  0.00  0.00    -0.047 A 
ATOM     35  C   UNL     1       1.439  -3.941  -5.306  0.00  0.00    +0.007 A 
ATOM     36  C   UNL     1       1.988  -4.959  -6.061  0.00  0.00    +0.046 A 
ATOM     37  C   UNL     1       1.386  -6.209  -6.080  0.00  0.00    +0.120 A 
ATOM     38  C   UNL     1       0.235  -6.434  -5.339  0.00  0.00    +0.046 A 
ATOM     39  C   UNL     1      -0.307  -5.414  -4.581  0.00  0.00    +0.007 A 
BRANCH  37  40
ATOM     40  O   UNL     1       1.924  -7.212  -6.823  0.00  0.00    -0.495 OA
ATOM     41  C   UNL     1       1.251  -8.473  -6.795  0.00  0.00    +0.277 C 
ENDBRANCH  37  40
ENDBRANCH  33  34
ENDBRANCH  32  33
ENDBRANCH  31  32
ENDBRANCH  26  31
ENDBRANCH   1  27
TORSDOF 9
