REMARK  Name = ZINC09220344
REMARK  11 active torsions:
REMARK  status: ('A' for Active; 'I' for Inactive)
REMARK    1  A    between atoms: C_1  and  C_2
REMARK    2  A    between atoms: C_4  and  C_18
REMARK    3  A    between atoms: C_5  and  C_17
REMARK    4  A    between atoms: N_6  and  C_7
REMARK    5  A    between atoms: C_10  and  O_13
REMARK    6  A    between atoms: O_13  and  C_14
REMARK    7  A    between atoms: C_18  and  C_20
REMARK    8  A    between atoms: C_20  and  S_21
REMARK    9  A    between atoms: S_21  and  C_22
REMARK   10  A    between atoms: C_25  and  C_28
REMARK   11  A    between atoms: C_33  and  O_34
REMARK                            x       y       z     vdW  Elec       q    Type
REMARK                         _______ _______ _______ _____ _____    ______ ____
ROOT
ATOM      1  C   UNL     1       4.419   4.413  -0.016  0.00  0.00    +0.175 C 
ATOM      2  O   UNL     1       3.802   5.458  -0.005  0.00  0.00    -0.291 OA
ENDROOT
BRANCH   1   6
ATOM      3  C   UNL     1       9.290   2.921  -0.072  0.00  0.00    +0.064 C 
ATOM      4  C   UNL     1       8.032   3.750  -0.055  0.00  0.00    +0.022 A 
ATOM      5  C   UNL     1       6.779   3.264  -0.046  0.00  0.00    +0.034 A 
ATOM      6  C   UNL     1       5.883   4.428  -0.030  0.00  0.00    +0.039 A 
ATOM      7  C   UNL     1       6.705   5.540  -0.038  0.00  0.00    +0.031 A 
ATOM      8  N   UNL     1       7.983   5.116  -0.047  0.00  0.00    -0.317 N 
ATOM      9  C   UNL     1       6.249   6.976  -0.033  0.00  0.00    +0.064 C 
BRANCH   8  10
ATOM     10  C   UNL     1       9.105   5.958  -0.053  0.00  0.00    +0.047 A 
ATOM     11  C   UNL     1       9.364   6.778   1.036  0.00  0.00    +0.030 A 
ATOM     12  C   UNL     1      10.472   7.603   1.031  0.00  0.00    +0.048 A 
ATOM     13  C   UNL     1      11.320   7.618  -0.066  0.00  0.00    +0.127 A 
ATOM     14  C   UNL     1      11.059   6.803  -1.157  0.00  0.00    +0.048 A 
ATOM     15  C   UNL     1       9.955   5.974  -1.152  0.00  0.00    +0.030 A 
BRANCH  13  16
ATOM     16  O   UNL     1      12.408   8.434  -0.072  0.00  0.00    -0.434 OA
BRANCH  16  17
ATOM     17  C   UNL     1      12.616   9.246   1.085  0.00  0.00    +0.541 C 
ATOM     18  F   UNL     1      11.515  10.090   1.266  0.00  0.00    -0.166 F 
ATOM     19  F   UNL     1      12.767   8.428   2.209  0.00  0.00    -0.166 F 
ENDBRANCH  16  17
ENDBRANCH  13  16
ENDBRANCH   8  10
ENDBRANCH   1   6
BRANCH   1  20
ATOM     20  C   UNL     1       3.678   3.101  -0.016  0.00  0.00    +0.157 C 
BRANCH  20  21
ATOM     21  S   UNL     1       1.895   3.414   0.002  0.00  0.00    -0.078 S 
BRANCH  21  22
ATOM     22  C   UNL     1       1.294   1.758  -0.001  0.00  0.00    +0.190 A 
ATOM     23  N   UNL     1      -0.017   1.372   0.010  0.00  0.00    -0.316 N 
ATOM     24  H   UNL     1      -0.797   1.947   0.017  0.00  0.00    +0.169 HD
ATOM     25  C   UNL     1       0.002  -0.004   0.002  0.00  0.00    +0.166 A 
ATOM     26  N   UNL     1       1.262  -0.372  -0.012  0.00  0.00    -0.128 NA
ATOM     27  N   UNL     1       2.022   0.664  -0.014  0.00  0.00    -0.122 NA
BRANCH  25  28
ATOM     28  C   UNL     1      -1.174  -0.898   0.008  0.00  0.00    +0.060 A 
ATOM     29  C   UNL     1      -2.463  -0.363   0.022  0.00  0.00    +0.015 A 
ATOM     30  C   UNL     1      -3.557  -1.203   0.027  0.00  0.00    +0.001 A 
ATOM     31  C   UNL     1      -3.382  -2.576   0.017  0.00  0.00    +0.004 A 
ATOM     32  C   UNL     1      -2.111  -3.118   0.003  0.00  0.00    +0.046 A 
ATOM     33  C   UNL     1      -1.002  -2.288  -0.007  0.00  0.00    +0.128 A 
BRANCH  33  34
ATOM     34  O   UNL     1       0.248  -2.820  -0.026  0.00  0.00    -0.506 OA
ATOM     35  H   UNL     1       0.620  -2.982   0.851  0.00  0.00    +0.292 HD
ENDBRANCH  33  34
ENDBRANCH  25  28
ENDBRANCH  21  22
ENDBRANCH  20  21
ENDBRANCH   1  20
TORSDOF 9
