REMARK  Name = ZINC01791568
REMARK  11 active torsions:
REMARK  status: ('A' for Active; 'I' for Inactive)
REMARK    1  A    between atoms: C_1  and  C_2
REMARK    2  A    between atoms: C_5  and  C_8
REMARK    3  A    between atoms: C_8  and  S_9
REMARK    4  A    between atoms: S_9  and  C_10
REMARK    5  A    between atoms: C_13  and  S_15
REMARK    6  A    between atoms: S_15  and  C_16
REMARK    7  A    between atoms: C_16  and  C_17
REMARK    8  A    between atoms: N_19  and  N_20
REMARK    9  A    between atoms: C_21  and  C_22
REMARK   10  A    between atoms: C_31  and  O_32
REMARK   11  A    between atoms: O_32  and  C_33
REMARK                            x       y       z     vdW  Elec       q    Type
REMARK                         _______ _______ _______ _____ _____    ______ ____
ROOT
ATOM      1  C   UNL     1      -2.563   9.406   0.072  0.00  0.00    +0.242 C 
ATOM      2  O   UNL     1      -1.508  10.005   0.065  0.00  0.00    -0.273 OA
ATOM      3  N   UNL     1      -2.572   8.058   0.066  0.00  0.00    -0.206 N 
ATOM      4  H   UNL     1      -3.415   7.579   0.072  0.00  0.00    +0.177 HD
ENDROOT
BRANCH   3   5
ATOM      5  N   UNL     1      -1.363   7.350   0.052  0.00  0.00    -0.188 NA
ATOM      6  C   UNL     1      -1.372   6.050   0.046  0.00  0.00    +0.142 C 
BRANCH   6   7
ATOM      7  C   UNL     1      -0.104   5.307   0.031  0.00  0.00    +0.044 A 
ATOM      8  C   UNL     1      -0.096   3.845   0.024  0.00  0.00    -0.006 A 
ATOM      9  C   UNL     1      -1.286   3.107   0.031  0.00  0.00    +0.009 A 
ATOM     10  C   UNL     1      -1.234   1.745   0.017  0.00  0.00    +0.001 A 
ATOM     11  C   UNL     1      -0.013   1.076   0.008  0.00  0.00    +0.001 A 
ATOM     12  C   UNL     1       1.163   1.762   0.000  0.00  0.00    +0.008 A 
ATOM     13  C   UNL     1       1.148   3.168   0.008  0.00  0.00    -0.017 A 
ATOM     14  C   UNL     1       2.342   3.910   0.000  0.00  0.00    +0.012 A 
ATOM     15  C   UNL     1       2.316   5.269   0.007  0.00  0.00    +0.047 A 
ATOM     16  C   UNL     1       1.117   5.981   0.022  0.00  0.00    +0.129 A 
BRANCH  16  17
ATOM     17  O   UNL     1       1.138   7.338   0.028  0.00  0.00    -0.494 OA
ATOM     18  C   UNL     1       2.421   7.967   0.018  0.00  0.00    +0.277 C 
ENDBRANCH  16  17
ENDBRANCH   6   7
ENDBRANCH   3   5
BRANCH   1  19
ATOM     19  C   UNL     1      -3.863  10.168   0.088  0.00  0.00    +0.173 C 
BRANCH  19  20
ATOM     20  S   UNL     1      -3.519  11.949   0.092  0.00  0.00    -0.088 S 
BRANCH  20  24
ATOM     21  C   UNL     1      -7.335  14.210   0.139  0.00  0.00    +0.160 A 
ATOM     22  N   UNL     1      -7.440  12.895   0.134  0.00  0.00    -0.134 NA
ATOM     23  N   UNL     1      -6.305  12.118   0.120  0.00  0.00    -0.134 NA
ATOM     24  C   UNL     1      -5.117  12.691   0.111  0.00  0.00    +0.160 A 
ATOM     25  S   UNL     1      -5.562  14.421   0.130  0.00  0.00    -0.033 S 
BRANCH  21  26
ATOM     26  S   UNL     1      -8.605  15.432   0.157  0.00  0.00    -0.092 S 
BRANCH  26  27
ATOM     27  C   UNL     1     -10.142  14.467   0.168  0.00  0.00    +0.111 C 
BRANCH  27  32
ATOM     28  C   UNL     1     -14.670  18.057   0.229  0.00  0.00    +0.044 C 
ATOM     29  C   UNL     1     -13.489  17.121   0.213  0.00  0.00    -0.050 A 
ATOM     30  C   UNL     1     -12.959  16.698  -0.992  0.00  0.00    +0.003 A 
ATOM     31  C   UNL     1     -11.876  15.839  -1.006  0.00  0.00    +0.005 A 
ATOM     32  C   UNL     1     -11.322  15.403   0.184  0.00  0.00    -0.037 A 
ATOM     33  C   UNL     1     -11.856  15.823   1.388  0.00  0.00    +0.005 A 
ATOM     34  C   UNL     1     -12.936  16.685   1.403  0.00  0.00    +0.003 A 
ENDBRANCH  27  32
ENDBRANCH  26  27
ENDBRANCH  21  26
ENDBRANCH  20  24
ENDBRANCH  19  20
ENDBRANCH   1  19
TORSDOF 9
