REMARK  Name = ZINC33464384
REMARK  5 active torsions:
REMARK  status: ('A' for Active; 'I' for Inactive)
REMARK    1  A    between atoms: C_1  and  C_2
REMARK    2  A    between atoms: C_4  and  N_11
REMARK    3  A    between atoms: C_5  and  N_10
REMARK    4  A    between atoms: N_8  and  C_9
REMARK    5  A    between atoms: C_14  and  C_17
REMARK                            x       y       z     vdW  Elec       q    Type
REMARK                         _______ _______ _______ _____ _____    ______ ____
ROOT
ATOM      1  C   UNL     1       1.700  -1.294   2.025  0.00  0.00    +0.063 C 
ATOM      2  C   UNL     1       1.426  -0.251   0.972  0.00  0.00    +0.020 A 
ATOM      3  C   UNL     1       0.246   0.405   0.978  0.00  0.00    +0.046 A 
ATOM      4  C   UNL     1      -0.018   1.382  -0.004  0.00  0.00    +0.058 A 
ATOM      5  C   UNL     1       0.950   1.650  -0.962  0.00  0.00    +0.111 A 
ATOM      6  C   UNL     1       2.160   0.940  -0.925  0.00  0.00    +0.274 A 
ATOM      7  O   UNL     1       3.024   1.162  -1.760  0.00  0.00    -0.266 OA
ATOM      8  N   UNL     1       2.371   0.015   0.030  0.00  0.00    -0.314 N 
ATOM      9  C   UNL     1       3.639  -0.717   0.056  0.00  0.00    +0.152 C 
ENDROOT
BRANCH   4  10
ATOM     10  N   UNL     1      -1.223   2.070  -0.009  0.00  0.00    -0.328 N 
ATOM     11  C   UNL     1      -2.349   1.156  -0.239  0.00  0.00    +0.105 C 
ATOM     12  C   UNL     1      -3.642   1.963  -0.383  0.00  0.00    +0.022 C 
ATOM     13  C   UNL     1      -3.874   2.777   0.893  0.00  0.00    -0.011 C 
ATOM     14  C   UNL     1      -2.665   3.685   1.137  0.00  0.00    +0.022 C 
ATOM     15  C   UNL     1      -1.401   2.828   1.236  0.00  0.00    +0.105 C 
ATOM     16  C   UNL     1      -5.132   3.632   0.733  0.00  0.00    +0.007 C 
ENDBRANCH   4  10
BRANCH   5  17
ATOM     17  N   UNL     1       0.722   2.618  -1.957  0.00  0.00    -0.352 N 
ATOM     18  H   UNL     1       1.494   2.824  -2.712  0.00  0.00    +0.143 HD
ATOM     19  H   UNL     1      -0.230   3.169  -1.979  0.00  0.00    +0.143 HD
ENDBRANCH   5  17
TORSDOF 2
