REMARK  Name = ZINC03386393
REMARK  8 active torsions:
REMARK  status: ('A' for Active; 'I' for Inactive)
REMARK    1  A    between atoms: C_1  and  C_2
REMARK    2  A    between atoms: C_12  and  C_14
REMARK    3  A    between atoms: C_14  and  C_16
REMARK    4  A    between atoms: C_14  and  N_48
REMARK    5  A    between atoms: C_17  and  C_18
REMARK    6  A    between atoms: C_17  and  N_48
REMARK    7  A    between atoms: C_21  and  S_24
REMARK    8  A    between atoms: S_24  and  N_27
REMARK                            x       y       z     vdW  Elec       q    Type
REMARK                         _______ _______ _______ _____ _____    ______ ____
ROOT
ATOM      1  N   UNL     1      -2.689   4.689   5.320  0.00  0.00    +0.389 N 
ATOM      2  H   UNL     1      -1.771   4.993   4.975  0.00  0.00    -0.084 HD
ATOM      3  H   UNL     1      -3.419   4.992   4.665  0.00  0.00    -0.084 HD
ENDROOT
BRANCH   1   4
ATOM      4  C   UNL     1      -2.937   5.295   6.642  0.00  0.00    +0.014 C 
ATOM      5  C   UNL     1      -1.621   5.394   7.414  0.00  0.00    -0.004 C 
BRANCH   4  16
ATOM      6  C   UNL     1      -6.002   8.464   6.326  0.00  0.00    +0.029 C 
ATOM      7  C   UNL     1      -4.880   8.555   7.362  0.00  0.00    +0.083 C 
ATOM      8  C   UNL     1      -5.465   8.803   8.762  0.00  0.00    +0.059 C 
ATOM      9  C   UNL     1      -5.033   7.603   9.574  0.00  0.00    -0.024 A 
ATOM     10  C   UNL     1      -5.261   7.274  10.896  0.00  0.00    +0.005 A 
ATOM     11  C   UNL     1      -4.765   6.092  11.413  0.00  0.00    +0.000 A 
ATOM     12  C   UNL     1      -4.026   5.245  10.607  0.00  0.00    +0.002 A 
ATOM     13  C   UNL     1      -3.791   5.572   9.289  0.00  0.00    +0.024 A 
ATOM     14  C   UNL     1      -4.297   6.760   8.757  0.00  0.00    +0.040 A 
ATOM     15  N   UNL     1      -4.176   7.274   7.462  0.00  0.00    -0.269 N 
ATOM     16  C   UNL     1      -3.513   6.675   6.452  0.00  0.00    +0.206 C 
ATOM     17  O   UNL     1      -3.381   7.247   5.391  0.00  0.00    -0.277 OA
ENDBRANCH   4  16
ENDBRANCH   1   4
BRANCH   1  18
ATOM     18  C   UNL     1      -2.707   3.217   5.421  0.00  0.00    -0.046 C 
BRANCH  18  19
ATOM     19  C   UNL     1      -2.451   2.626   4.059  0.00  0.00    -0.064 A 
ATOM     20  C   UNL     1      -1.157   2.355   3.655  0.00  0.00    +0.003 A 
ATOM     21  C   UNL     1      -0.921   1.813   2.406  0.00  0.00    +0.029 A 
ATOM     22  C   UNL     1      -1.980   1.540   1.560  0.00  0.00    +0.105 A 
ATOM     23  C   UNL     1      -3.274   1.815   1.962  0.00  0.00    +0.029 A 
ATOM     24  C   UNL     1      -3.510   2.354   3.213  0.00  0.00    +0.003 A 
BRANCH  22  25
ATOM     25  S   UNL     1      -1.681   0.849  -0.033  0.00  0.00    +0.056 S 
ATOM     26  O   UNL     1      -0.348   1.197  -0.383  0.00  0.00    -0.153 OA
ATOM     27  O   UNL     1      -2.796   1.195  -0.842  0.00  0.00    -0.153 OA
BRANCH  25  28
ATOM     28  N   UNL     1      -1.710  -0.798   0.135  0.00  0.00    -0.204 NA
ATOM     29  H   UNL     1      -0.927  -1.323  -0.092  0.00  0.00    +0.144 HD
ATOM     30  H   UNL     1      -2.511  -1.238   0.461  0.00  0.00    +0.144 HD
ENDBRANCH  25  28
ENDBRANCH  22  25
ENDBRANCH  18  19
ENDBRANCH   1  18
TORSDOF 6
