REMARK  Name = ZINC66448919
REMARK  6 active torsions:
REMARK  status: ('A' for Active; 'I' for Inactive)
REMARK    1  A    between atoms: C_4  and  C_7
REMARK    2  A    between atoms: C_8  and  C_9
REMARK    3  A    between atoms: C_14  and  C_17
REMARK    4  A    between atoms: N_19  and  C_20
REMARK    5  A    between atoms: N_25  and  C_27
REMARK    6  A    between atoms: C_27  and  C_28
REMARK                            x       y       z     vdW  Elec       q    Type
REMARK                         _______ _______ _______ _____ _____    ______ ____
ROOT
ATOM      1  C   UNL     1       4.994  -2.739  -0.062  0.00  0.00    +0.239 C 
ATOM      2  O   UNL     1       3.933  -2.152   0.046  0.00  0.00    -0.271 OA
ATOM      3  N   UNL     1       5.013  -4.082  -0.172  0.00  0.00    -0.298 N 
ATOM      4  C   UNL     1       3.760  -4.842  -0.280  0.00  0.00    +0.109 C 
ATOM      5  C   UNL     1       3.832  -5.735  -1.523  0.00  0.00    +0.032 C 
ATOM      6  C   UNL     1       5.089  -6.604  -1.450  0.00  0.00    +0.078 C 
ATOM      7  C   UNL     1       6.330  -5.707  -1.428  0.00  0.00    +0.032 C 
ATOM      8  C   UNL     1       6.287  -4.814  -0.190  0.00  0.00    +0.109 C 
ENDROOT
BRANCH   6   9
ATOM      9  C   UNL     1       5.145  -7.508  -2.654  0.00  0.00    +0.216 C 
ATOM     10  O   UNL     1       4.266  -7.462  -3.488  0.00  0.00    -0.276 OA
ATOM     11  N   UNL     1       6.172  -8.368  -2.805  0.00  0.00    -0.311 N 
ATOM     12  H   UNL     1       6.876  -8.404  -2.138  0.00  0.00    +0.149 HD
BRANCH  11  13
ATOM     13  C   UNL     1       6.227  -9.247  -3.975  0.00  0.00    +0.087 C 
ATOM     14  C   UNL     1       6.874  -8.501  -5.145  0.00  0.00    +0.025 C 
ATOM     15  C   UNL     1       6.982  -9.445  -6.346  0.00  0.00    +0.017 C 
ATOM     16  C   UNL     1       7.792 -10.680  -5.946  0.00  0.00    +0.085 C 
ATOM     17  N   UNL     1       7.131 -11.359  -4.824  0.00  0.00    -0.292 NA
ATOM     18  C   UNL     1       7.058 -10.488  -3.644  0.00  0.00    +0.107 C 
BRANCH  17  19
ATOM     19  C   UNL     1       7.805 -12.624  -4.503  0.00  0.00    +0.180 C 
BRANCH  19  20
ATOM     20  C   UNL     1       7.641 -13.586  -5.651  0.00  0.00    +0.225 C 
ATOM     21  O   UNL     1       7.022 -13.251  -6.640  0.00  0.00    -0.275 OA
ATOM     22  N   UNL     1       8.180 -14.819  -5.580  0.00  0.00    -0.328 N 
ATOM     23  H   UNL     1       8.674 -15.088  -4.790  0.00  0.00    +0.145 HD
ATOM     24  H   UNL     1       8.074 -15.439  -6.319  0.00  0.00    +0.145 HD
ENDBRANCH  19  20
ENDBRANCH  17  19
ENDBRANCH  11  13
ENDBRANCH   6   9
BRANCH   1  26
ATOM     25  C   UNL     1       6.227  -0.637  -0.071  0.00  0.00    +0.013 C 
ATOM     26  C   UNL     1       6.249  -1.985  -0.074  0.00  0.00    +0.068 C 
BRANCH  25  30
ATOM     27  C   UNL     1       9.864   1.545  -0.103  0.00  0.00    +0.000 A 
ATOM     28  C   UNL     1       8.656   2.220  -0.089  0.00  0.00    +0.001 A 
ATOM     29  C   UNL     1       7.470   1.518  -0.079  0.00  0.00    +0.008 A 
ATOM     30  C   UNL     1       7.489   0.120  -0.082  0.00  0.00    -0.025 A 
ATOM     31  C   UNL     1       8.714  -0.555  -0.096  0.00  0.00    +0.008 A 
ATOM     32  C   UNL     1       9.892   0.161  -0.106  0.00  0.00    +0.001 A 
ENDBRANCH  25  30
ENDBRANCH   1  26
TORSDOF 6
