REMARK  Name = ZINC42958868
REMARK  6 active torsions:
REMARK  status: ('A' for Active; 'I' for Inactive)
REMARK    1  A    between atoms: C_1  and  C_2
REMARK    2  A    between atoms: C_2  and  C_4
REMARK    3  A    between atoms: C_2  and  N_24
REMARK    4  A    between atoms: C_4  and  C_6
REMARK    5  A    between atoms: C_4  and  S_13
REMARK    6  A    between atoms: S_13  and  C_14
REMARK                            x       y       z     vdW  Elec       q    Type
REMARK                         _______ _______ _______ _____ _____    ______ ____
ROOT
ATOM      1  C   UNL     1       0.845  -0.503   1.178  0.00  0.00    +0.069 C 
ENDROOT
BRANCH   1   2
ATOM      2  C   UNL     1       0.944  -1.984   0.920  0.00  0.00    -0.036 A 
ATOM      3  C   UNL     1       1.459  -2.445  -0.277  0.00  0.00    +0.006 A 
ATOM      4  C   UNL     1       1.550  -3.804  -0.514  0.00  0.00    +0.015 A 
ATOM      5  C   UNL     1       1.125  -4.703   0.448  0.00  0.00    +0.018 A 
ATOM      6  C   UNL     1       0.609  -4.242   1.645  0.00  0.00    +0.015 A 
ATOM      7  C   UNL     1       0.523  -2.883   1.883  0.00  0.00    +0.006 A 
ATOM      8 BR   UNL     1       1.249  -6.562   0.124  0.00  0.00    -0.050 Br
ENDBRANCH   1   2
BRANCH   1  10
ATOM      9  C   UNL     1      -0.217   1.630   0.426  0.00  0.00    -0.013 C 
ATOM     10  C   UNL     1      -0.056   0.140   0.121  0.00  0.00    -0.060 C 
BRANCH  10  11
ATOM     11  N   UNL     1      -1.374  -0.509   0.141  0.00  0.00    +0.381 N 
ATOM     12  H   UNL     1      -1.968  -0.086  -0.556  0.00  0.00    -0.090 HD
ATOM     13  H   UNL     1      -1.268  -1.492  -0.060  0.00  0.00    -0.090 HD
ATOM     14  H   UNL     1      -1.791  -0.396   1.053  0.00  0.00    -0.090 HD
ENDBRANCH  10  11
ENDBRANCH   1  10
BRANCH   1  15
ATOM     15  S   UNL     1       2.499   0.237   1.092  0.00  0.00    -0.081 S 
BRANCH  15  16
ATOM     16  C   UNL     1       3.339  -0.435   2.488  0.00  0.00    +0.168 A 
ATOM     17  N   UNL     1       4.655  -0.226   2.788  0.00  0.00    -0.333 N 
ATOM     18  H   UNL     1       5.284   0.309   2.278  0.00  0.00    +0.168 HD
ATOM     19  C   UNL     1       4.926  -0.922   3.955  0.00  0.00    +0.067 A 
ATOM     20  C   UNL     1       6.062  -1.089   4.732  0.00  0.00    +0.028 A 
ATOM     21  C   UNL     1       6.006  -1.868   5.870  0.00  0.00    +0.002 A 
ATOM     22  C   UNL     1       4.821  -2.484   6.243  0.00  0.00    +0.002 A 
ATOM     23  C   UNL     1       3.684  -2.329   5.482  0.00  0.00    +0.030 A 
ATOM     24  C   UNL     1       3.723  -1.544   4.327  0.00  0.00    +0.090 A 
ATOM     25  N   UNL     1       2.792  -1.205   3.397  0.00  0.00    -0.222 NA
ENDBRANCH  15  16
ENDBRANCH   1  15
TORSDOF 5
