REMARK  Name = ZINC10912446
REMARK  8 active torsions:
REMARK  status: ('A' for Active; 'I' for Inactive)
REMARK    1  A    between atoms: C_7  and  C_13
REMARK    2  A    between atoms: C_13  and  C_14
REMARK    3  A    between atoms: C_14  and  O_16
REMARK    4  A    between atoms: O_16  and  C_17
REMARK    5  A    between atoms: C_17  and  C_18
REMARK    6  A    between atoms: N_20  and  C_21
REMARK    7  A    between atoms: C_26  and  S_27
REMARK    8  A    between atoms: S_27  and  C_28
REMARK                            x       y       z     vdW  Elec       q    Type
REMARK                         _______ _______ _______ _____ _____    ______ ____
ROOT
ATOM      1  C   UNL     1      -0.079   1.335  -0.709  0.00  0.00    +0.255 C 
ATOM      2  O   UNL     1      -0.104   0.201  -1.139  0.00  0.00    -0.272 OA
ATOM      3  N   UNL     1      -1.183   1.869  -0.149  0.00  0.00    -0.282 N 
ATOM      4  H   UNL     1      -1.143   2.747   0.261  0.00  0.00    +0.155 HD
ENDROOT
BRANCH   3   5
ATOM      5  C   UNL     1      -2.389   1.155  -0.161  0.00  0.00    +0.047 A 
ATOM      6  C   UNL     1      -2.376  -0.231  -0.161  0.00  0.00    +0.024 A 
ATOM      7  C   UNL     1      -3.567  -0.933  -0.173  0.00  0.00    +0.002 A 
ATOM      8  C   UNL     1      -4.774  -0.257  -0.184  0.00  0.00    +0.001 A 
ATOM      9  C   UNL     1      -4.796   1.125  -0.184  0.00  0.00    +0.017 A 
ATOM     10  C   UNL     1      -3.606   1.838  -0.167  0.00  0.00    +0.034 A 
BRANCH  10  11
ATOM     11  S   UNL     1      -3.631   3.600  -0.159  0.00  0.00    -0.088 S 
BRANCH  11  12
ATOM     12  C   UNL     1      -5.346   4.002  -0.150  0.00  0.00    +0.013 A 
ATOM     13  C   UNL     1      -6.002   4.280  -1.343  0.00  0.00    +0.016 A 
ATOM     14  C   UNL     1      -7.348   4.589  -1.333  0.00  0.00    +0.021 A 
ATOM     15  C   UNL     1      -8.041   4.633  -0.136  0.00  0.00    +0.041 A 
ATOM     16  C   UNL     1      -7.388   4.362   1.055  0.00  0.00    +0.021 A 
ATOM     17  C   UNL     1      -6.044   4.047   1.051  0.00  0.00    +0.016 A 
ATOM     18 CL   UNL     1      -9.731   5.029  -0.127  0.00  0.00    -0.084 Cl
ENDBRANCH  11  12
ENDBRANCH  10  11
ENDBRANCH   3   5
BRANCH   1  19
ATOM     19  C   UNL     1       1.185   2.150  -0.806  0.00  0.00    +0.328 C 
BRANCH  19  20
ATOM     20  O   UNL     1       2.221   1.361  -1.448  0.00  0.00    -0.455 OA
BRANCH  20  21
ATOM     21  C   UNL     1       3.419   1.945  -1.612  0.00  0.00    +0.313 C 
ATOM     22  O   UNL     1       3.595   3.078  -1.231  0.00  0.00    -0.250 OA
BRANCH  21  23
ATOM     23  C   UNL     1       4.543   1.187  -2.271  0.00  0.00    +0.178 C 
BRANCH  23  30
ATOM     24  C   UNL     1       8.260  -0.172  -4.008  0.00  0.00    +0.001 A 
ATOM     25  C   UNL     1       9.374   0.656  -4.051  0.00  0.00    +0.001 A 
ATOM     26  C   UNL     1       9.321   1.934  -3.540  0.00  0.00    +0.014 A 
ATOM     27  C   UNL     1       8.134   2.396  -2.974  0.00  0.00    +0.050 A 
ATOM     28  C   UNL     1       7.004   1.548  -2.926  0.00  0.00    +0.011 A 
ATOM     29  C   UNL     1       7.086   0.259  -3.457  0.00  0.00    +0.010 A 
ATOM     30  C   UNL     1       5.769   2.061  -2.332  0.00  0.00    +0.080 A 
ATOM     31  N   UNL     1       5.731   3.269  -1.853  0.00  0.00    -0.175 NA
ATOM     32  N   UNL     1       6.832   4.125  -1.880  0.00  0.00    -0.242 N 
ATOM     33  H   UNL     1       6.746   5.017  -1.508  0.00  0.00    +0.192 HD
ATOM     34  C   UNL     1       8.013   3.747  -2.412  0.00  0.00    +0.272 A 
ATOM     35  O   UNL     1       8.961   4.511  -2.425  0.00  0.00    -0.266 OA
ENDBRANCH  23  30
ENDBRANCH  21  23
ENDBRANCH  20  21
ENDBRANCH  19  20
ENDBRANCH   1  19
TORSDOF 8
