REMARK  Name = ZINC41807884
REMARK  8 active torsions:
REMARK  status: ('A' for Active; 'I' for Inactive)
REMARK    1  A    between atoms: C_1  and  C_2
REMARK    2  A    between atoms: C_2  and  C_3
REMARK    3  A    between atoms: C_2  and  C_12
REMARK    4  A    between atoms: C_2  and  N_15
REMARK    5  A    between atoms: N_15  and  C_16
REMARK    6  A    between atoms: C_16  and  C_17
REMARK    7  A    between atoms: C_17  and  C_18
REMARK    8  A    between atoms: C_18  and  C_19
REMARK                            x       y       z     vdW  Elec       q    Type
REMARK                         _______ _______ _______ _____ _____    ______ ____
ROOT
ATOM      1  C   UNL     1       0.354   1.485   0.080  0.00  0.00    +0.007 C 
ATOM      2  C   UNL     1       0.006  -0.002  -0.001  0.00  0.00    +0.060 C 
ENDROOT
BRANCH   2   3
ATOM      3  C   UNL     1       0.575  -0.717   1.198  0.00  0.00    -0.027 A 
ATOM      4  C   UNL     1      -0.271  -1.330   2.103  0.00  0.00    +0.044 A 
ATOM      5  C   UNL     1       0.251  -1.986   3.204  0.00  0.00    +0.142 A 
ATOM      6  C   UNL     1       1.623  -2.029   3.397  0.00  0.00    +0.077 A 
ATOM      7  C   UNL     1       2.468  -1.416   2.491  0.00  0.00    +0.043 A 
ATOM      8  C   UNL     1       1.944  -0.764   1.388  0.00  0.00    +0.045 A 
ATOM      9 CL   UNL     1       3.006  -0.000   0.247  0.00  0.00    -0.083 Cl
ATOM     10 CL   UNL     1       2.280  -2.852   4.778  0.00  0.00    -0.081 Cl
ATOM     11  F   UNL     1      -0.575  -2.585   4.089  0.00  0.00    -0.204 F 
ENDBRANCH   2   3
BRANCH   2  12
ATOM     12  C   UNL     1       0.591  -0.588  -1.260  0.00  0.00    +0.349 C 
ATOM     13  O   UNL     1       1.414   0.044  -1.901  0.00  0.00    -0.248 OA
ATOM     14  O   UNL     1       0.242  -1.693  -1.637  0.00  0.00    -0.248 OA
ENDBRANCH   2  12
BRANCH   2  15
ATOM     15  N   UNL     1      -1.454  -0.163  -0.019  0.00  0.00    +0.392 N 
ATOM     16  H   UNL     1      -1.685  -1.145  -0.021  0.00  0.00    -0.084 HD
ATOM     17  H   UNL     1      -1.851   0.273   0.800  0.00  0.00    -0.084 HD
BRANCH  15  18
ATOM     18  C   UNL     1      -2.002   0.471  -1.225  0.00  0.00    -0.080 C 
BRANCH  18  19
ATOM     19  C   UNL     1      -3.505   0.197  -1.308  0.00  0.00    -0.010 C 
BRANCH  19  20
ATOM     20  C   UNL     1      -4.075   0.857  -2.565  0.00  0.00    +0.094 C 
BRANCH  20  21
ATOM     21  C   UNL     1      -5.556   0.587  -2.646  0.00  0.00    +0.210 C 
ATOM     22  O   UNL     1      -6.101  -0.069  -1.784  0.00  0.00    -0.276 OA
ATOM     23  N   UNL     1      -6.274   1.075  -3.677  0.00  0.00    -0.329 N 
ATOM     24  H   UNL     1      -5.838   1.600  -4.367  0.00  0.00    +0.145 HD
ATOM     25  H   UNL     1      -7.227   0.901  -3.730  0.00  0.00    +0.145 HD
ENDBRANCH  20  21
ENDBRANCH  19  20
ENDBRANCH  18  19
ENDBRANCH  15  18
ENDBRANCH   2  15
TORSDOF 7
