REMARK  Name = ZINC36048141
REMARK  11 active torsions:
REMARK  status: ('A' for Active; 'I' for Inactive)
REMARK    1  A    between atoms: C_1  and  C_2
REMARK    2  A    between atoms: C_5  and  S_8
REMARK    3  A    between atoms: S_8  and  N_11
REMARK    4  A    between atoms: N_11  and  C_12
REMARK    5  A    between atoms: N_11  and  C_16
REMARK    6  A    between atoms: C_12  and  C_13
REMARK    7  A    between atoms: C_13  and  C_14
REMARK    8  A    between atoms: C_13  and  C_15
REMARK    9  A    between atoms: C_16  and  C_17
REMARK   10  A    between atoms: C_22  and  C_31
REMARK   11  A    between atoms: N_24  and  C_25
REMARK                            x       y       z     vdW  Elec       q    Type
REMARK                         _______ _______ _______ _____ _____    ______ ____
ROOT
ATOM      1  C   UNL     1       3.566  -4.157  -1.567  0.00  0.00    +0.235 C 
ATOM      2  O   UNL     1       3.607  -3.192  -0.834  0.00  0.00    -0.274 OA
ATOM      3  N   UNL     1       4.372  -4.219  -2.645  0.00  0.00    -0.254 N 
ATOM      4  C   UNL     1       5.249  -3.178  -2.917  0.00  0.00    +0.207 A 
ATOM      5  N   UNL     1       5.389  -2.090  -2.201  0.00  0.00    -0.214 NA
ATOM      6  C   UNL     1       6.330  -1.303  -2.765  0.00  0.00    +0.091 A 
ATOM      7  C   UNL     1       6.792  -1.931  -3.876  0.00  0.00    +0.122 A 
ATOM      8  N   UNL     1       6.112  -3.121  -3.971  0.00  0.00    -0.287 N 
ATOM      9  H   UNL     1       4.339  -4.992  -3.231  0.00  0.00    +0.158 HD
ENDROOT
BRANCH   8  10
ATOM     10  C   UNL     1       6.274  -4.093  -4.968  0.00  0.00    +0.049 A 
ATOM     11  C   UNL     1       6.454  -5.424  -4.619  0.00  0.00    +0.026 A 
ATOM     12  C   UNL     1       6.612  -6.380  -5.603  0.00  0.00    +0.002 A 
ATOM     13  C   UNL     1       6.591  -6.012  -6.936  0.00  0.00    +0.000 A 
ATOM     14  C   UNL     1       6.413  -4.687  -7.287  0.00  0.00    +0.002 A 
ATOM     15  C   UNL     1       6.248  -3.727  -6.307  0.00  0.00    +0.026 A 
ENDBRANCH   8  10
BRANCH   6  16
ATOM     16  C   UNL     1       6.780   0.016  -2.258  0.00  0.00    +0.002 A 
ATOM     17  C   UNL     1       7.761   0.731  -2.944  0.00  0.00    +0.010 A 
ATOM     18  C   UNL     1       8.177   1.958  -2.468  0.00  0.00    +0.001 A 
ATOM     19  C   UNL     1       7.621   2.479  -1.313  0.00  0.00    +0.000 A 
ATOM     20  C   UNL     1       6.648   1.774  -0.628  0.00  0.00    +0.001 A 
ATOM     21  C   UNL     1       6.220   0.549  -1.098  0.00  0.00    +0.010 A 
ENDBRANCH   6  16
BRANCH   1  22
ATOM     22  C   UNL     1       2.614  -5.287  -1.271  0.00  0.00    +0.205 C 
BRANCH  22  23
ATOM     23  N   UNL     1       1.856  -4.982  -0.056  0.00  0.00    -0.168 NA
BRANCH  23  24
ATOM     24  S   UNL     1       0.356  -4.289  -0.168  0.00  0.00    +0.061 S 
ATOM     25  O   UNL     1      -0.335  -4.620   1.029  0.00  0.00    -0.153 OA
ATOM     26  O   UNL     1      -0.148  -4.618  -1.455  0.00  0.00    -0.153 OA
BRANCH  24  31
ATOM     27  C   UNL     1       1.142   1.693  -0.104  0.00  0.00    +0.044 C 
ATOM     28  C   UNL     1       0.946   0.199  -0.120  0.00  0.00    -0.050 A 
ATOM     29  C   UNL     1       0.946  -0.485  -1.321  0.00  0.00    +0.005 A 
ATOM     30  C   UNL     1       0.766  -1.856  -1.335  0.00  0.00    +0.029 A 
ATOM     31  C   UNL     1       0.586  -2.542  -0.149  0.00  0.00    +0.106 A 
ATOM     32  C   UNL     1       0.587  -1.858   1.052  0.00  0.00    +0.029 A 
ATOM     33  C   UNL     1       0.771  -0.488   1.067  0.00  0.00    +0.005 A 
ENDBRANCH  24  31
ENDBRANCH  23  24
BRANCH  23  34
ATOM     34  C   UNL     1       2.424  -5.290   1.259  0.00  0.00    +0.113 C 
BRANCH  34  35
ATOM     35  C   UNL     1       2.086  -6.733   1.636  0.00  0.00    -0.001 C 
ATOM     36  C   UNL     1       2.783  -7.690   0.667  0.00  0.00    +0.008 C 
ATOM     37  C   UNL     1       2.564  -7.014   3.062  0.00  0.00    +0.008 C 
ENDBRANCH  34  35
ENDBRANCH  23  34
ENDBRANCH  22  23
ENDBRANCH   1  22
TORSDOF 8
