REMARK  Name = ZINC10212530
REMARK  10 active torsions:
REMARK  status: ('A' for Active; 'I' for Inactive)
REMARK    1  A    between atoms: C_1  and  C_2
REMARK    2  A    between atoms: C_2  and  C_4
REMARK    3  A    between atoms: C_2  and  S_18
REMARK    4  A    between atoms: N_6  and  C_7
REMARK    5  A    between atoms: C_9  and  N_15
REMARK    6  A    between atoms: C_12  and  O_13
REMARK    7  A    between atoms: O_13  and  C_14
REMARK    8  A    between atoms: S_18  and  C_19
REMARK    9  A    between atoms: C_22  and  C_31
REMARK   10  A    between atoms: N_23  and  C_24
REMARK                            x       y       z     vdW  Elec       q    Type
REMARK                         _______ _______ _______ _____ _____    ______ ____
ROOT
ATOM      1  S   UNL     1      -3.227   1.349   0.458  0.00  0.00    -0.073 S 
ENDROOT
BRANCH   1   2
ATOM      2  C   UNL     1      -4.646   0.327   0.673  0.00  0.00    +0.197 A 
ATOM      3  N   UNL     1      -4.752  -0.941   0.342  0.00  0.00    -0.122 NA
ATOM      4  N   UNL     1      -5.922  -1.379   0.640  0.00  0.00    -0.128 NA
ATOM      5  C   UNL     1      -6.641  -0.418   1.172  0.00  0.00    +0.169 A 
ATOM      6  N   UNL     1      -5.845   0.707   1.210  0.00  0.00    -0.270 N 
BRANCH   6   7
ATOM      7  C   UNL     1      -6.193   1.975   1.698  0.00  0.00    +0.051 A 
ATOM      8  C   UNL     1      -6.404   2.163   3.057  0.00  0.00    +0.029 A 
ATOM      9  C   UNL     1      -6.741   3.414   3.536  0.00  0.00    +0.040 A 
ATOM     10  C   UNL     1      -6.878   4.478   2.660  0.00  0.00    +0.124 A 
ATOM     11  C   UNL     1      -6.674   4.291   1.304  0.00  0.00    +0.040 A 
ATOM     12  C   UNL     1      -6.331   3.042   0.822  0.00  0.00    +0.029 A 
ATOM     13  F   UNL     1      -7.213   5.699   3.130  0.00  0.00    -0.205 F 
ENDBRANCH   6   7
BRANCH   5  14
ATOM     14  C   UNL     1      -8.038  -0.522   1.641  0.00  0.00    +0.020 A 
ATOM     15  C   UNL     1      -8.605  -1.774   1.885  0.00  0.00    +0.011 A 
ATOM     16  C   UNL     1      -9.908  -1.864   2.327  0.00  0.00    +0.001 A 
ATOM     17  C   UNL     1     -10.657  -0.717   2.519  0.00  0.00    +0.000 A 
ATOM     18  C   UNL     1     -10.104   0.528   2.275  0.00  0.00    +0.001 A 
ATOM     19  C   UNL     1      -8.800   0.632   1.837  0.00  0.00    +0.011 A 
ENDBRANCH   5  14
ENDBRANCH   1   2
BRANCH   1  21
ATOM     20  C   UNL     1      -2.626  -0.271  -1.658  0.00  0.00    +0.029 C 
ATOM     21  C   UNL     1      -2.090   0.155  -0.290  0.00  0.00    +0.137 C 
BRANCH  21  22
ATOM     22  C   UNL     1      -0.734   0.790  -0.457  0.00  0.00    +0.230 C 
ATOM     23  O   UNL     1      -0.625   1.998  -0.457  0.00  0.00    -0.274 OA
ATOM     24  N   UNL     1       0.359   0.015  -0.606  0.00  0.00    -0.282 N 
ATOM     25  H   UNL     1       0.265  -0.948  -0.681  0.00  0.00    +0.155 HD
BRANCH  24  26
ATOM     26  C   UNL     1       1.631   0.600  -0.659  0.00  0.00    +0.078 A 
ATOM     27  C   UNL     1       1.798   1.850  -1.237  0.00  0.00    +0.059 A 
ATOM     28  C   UNL     1       3.053   2.427  -1.284  0.00  0.00    +0.128 A 
ATOM     29  C   UNL     1       4.146   1.757  -0.764  0.00  0.00    +0.036 A 
ATOM     30  C   UNL     1       3.988   0.509  -0.191  0.00  0.00    +0.050 A 
ATOM     31  C   UNL     1       2.732  -0.074  -0.136  0.00  0.00    +0.141 A 
BRANCH  28  32
ATOM     32  N   UNL     1       3.229   3.763  -1.897  0.00  0.00    +0.056 N 
ATOM     33  O   UNL     1       4.335   4.271  -1.943  0.00  0.00    -0.126 OA
ATOM     34  O   UNL     1       2.268   4.354  -2.355  0.00  0.00    -0.126 OA
ENDBRANCH  28  32
BRANCH  31  35
ATOM     35  O   UNL     1       2.575  -1.302   0.427  0.00  0.00    -0.493 OA
ATOM     36  C   UNL     1       3.749  -1.934   0.942  0.00  0.00    +0.277 C 
ENDBRANCH  31  35
ENDBRANCH  24  26
ENDBRANCH  21  22
ENDBRANCH   1  21
TORSDOF 8
