REMARK  Name = ZINC57881423
REMARK  10 active torsions:
REMARK  status: ('A' for Active; 'I' for Inactive)
REMARK    1  A    between atoms: C_1  and  C_2
REMARK    2  A    between atoms: C_2  and  C_3
REMARK    3  A    between atoms: C_2  and  C_4
REMARK    4  A    between atoms: C_7  and  C_10
REMARK    5  A    between atoms: C_10  and  C_11
REMARK    6  A    between atoms: C_10  and  N_12
REMARK    7  A    between atoms: N_12  and  C_13
REMARK    8  A    between atoms: C_13  and  C_14
REMARK    9  A    between atoms: N_16  and  C_17
REMARK   10  A    between atoms: C_18  and  C_22
REMARK                            x       y       z     vdW  Elec       q    Type
REMARK                         _______ _______ _______ _____ _____    ______ ____
ROOT
ATOM      1  C   UNL     1      -7.440  -1.865  -1.284  0.00  0.00    +0.178 C 
ENDROOT
BRANCH   1   2
ATOM      2  C   UNL     1      -7.971  -1.808  -2.693  0.00  0.00    +0.231 C 
ATOM      3  O   UNL     1      -7.204  -1.832  -3.631  0.00  0.00    -0.274 OA
ATOM      4  N   UNL     1      -9.299  -1.729  -2.909  0.00  0.00    -0.278 N 
ATOM      5  H   UNL     1      -9.912  -1.709  -2.159  0.00  0.00    +0.155 HD
BRANCH   4   6
ATOM      6  C   UNL     1      -9.787  -1.676  -4.206  0.00  0.00    +0.084 A 
ATOM      7  C   UNL     1     -11.110  -1.588  -4.616  0.00  0.00    +0.065 A 
ATOM      8  C   UNL     1     -11.343  -1.548  -6.042  0.00  0.00    +0.022 A 
ATOM      9  C   UNL     1     -10.245  -1.601  -6.817  0.00  0.00    +0.048 A 
ATOM     10  S   UNL     1      -8.915  -1.696  -5.639  0.00  0.00    -0.081 S 
BRANCH   7  11
ATOM     11  C   UNL     1     -12.214  -1.538  -3.652  0.00  0.00    +0.244 C 
ATOM     12  O   UNL     1     -11.982  -1.574  -2.458  0.00  0.00    -0.270 OA
ATOM     13  N   UNL     1     -13.486  -1.453  -4.089  0.00  0.00    -0.325 N 
ATOM     14  H   UNL     1     -13.671  -1.424  -5.041  0.00  0.00    +0.145 HD
ATOM     15  H   UNL     1     -14.217  -1.420  -3.452  0.00  0.00    +0.145 HD
ENDBRANCH   7  11
ENDBRANCH   4   6
ENDBRANCH   1   2
BRANCH   1  16
ATOM     16  N   UNL     1      -5.973  -1.947  -1.316  0.00  0.00    -0.302 NA
ATOM     17  H   UNL     1      -5.580  -1.176  -1.834  0.00  0.00    +0.123 HD
BRANCH  16  18
ATOM     18  C   UNL     1      -5.419  -2.005   0.043  0.00  0.00    +0.081 C 
ATOM     19  C   UNL     1      -5.423  -3.454   0.535  0.00  0.00    +0.029 C 
BRANCH  18  23
ATOM     20  C   UNL     1      -1.412  -0.526   0.013  0.00  0.00    -0.045 A 
ATOM     21  C   UNL     1      -2.259  -0.204   1.056  0.00  0.00    +0.004 A 
ATOM     22  C   UNL     1      -3.556  -0.683   1.066  0.00  0.00    +0.005 A 
ATOM     23  C   UNL     1      -4.006  -1.482   0.032  0.00  0.00    -0.031 A 
ATOM     24  C   UNL     1      -3.159  -1.803  -1.012  0.00  0.00    +0.005 A 
ATOM     25  C   UNL     1      -1.863  -1.321  -1.024  0.00  0.00    +0.004 A 
BRANCH  20  27
ATOM     26  C   UNL     1      -0.019   1.526   0.010  0.00  0.00    +0.012 C 
ATOM     27  C   UNL     1       0.002  -0.004   0.002  0.00  0.00    +0.013 C 
ATOM     28  C   UNL     1       0.742  -0.511   1.242  0.00  0.00    +0.012 C 
ENDBRANCH  20  27
ENDBRANCH  18  23
ENDBRANCH  16  18
ENDBRANCH   1  16
TORSDOF 7
