REMARK  Name = ZINC31056536
REMARK  7 active torsions:
REMARK  status: ('A' for Active; 'I' for Inactive)
REMARK    1  A    between atoms: C_3  and  C_6
REMARK    2  A    between atoms: C_8  and  C_11
REMARK    3  A    between atoms: C_11  and  N_12
REMARK    4  A    between atoms: C_16  and  C_19
REMARK    5  A    between atoms: N_21  and  C_22
REMARK    6  A    between atoms: C_25  and  S_28
REMARK    7  A    between atoms: S_28  and  N_31
REMARK                            x       y       z     vdW  Elec       q    Type
REMARK                         _______ _______ _______ _____ _____    ______ ____
ROOT
ATOM      1  C   UNL     1      -4.718   8.935  -2.864  0.00  0.00    +0.218 C 
ATOM      2  O   UNL     1      -4.970   9.517  -1.830  0.00  0.00    -0.275 OA
ATOM      3  N   UNL     1      -5.067   9.480  -4.046  0.00  0.00    -0.285 N 
ATOM      4  H   UNL     1      -4.772   8.990  -4.986  0.00  0.00    +0.155 HD
ENDROOT
BRANCH   1   9
ATOM      5  N   UNL     1      -3.029   5.926  -1.338  0.00  0.00    +0.386 N 
ATOM      6  C   UNL     1      -1.733   6.010  -2.023  0.00  0.00    -0.078 C 
ATOM      7  C   UNL     1      -1.954   6.363  -3.495  0.00  0.00    -0.018 C 
ATOM      8  C   UNL     1      -2.690   7.702  -3.589  0.00  0.00    +0.009 C 
ATOM      9  C   UNL     1      -4.014   7.603  -2.827  0.00  0.00    +0.059 C 
ATOM     10  C   UNL     1      -3.733   7.214  -1.374  0.00  0.00    -0.065 C 
ATOM     11  H   UNL     1      -3.646   5.191  -1.877  0.00  0.00    -0.081 HD
BRANCH   5  12
ATOM     12  C   UNL     1      -2.865   5.453   0.044  0.00  0.00    +0.022 C 
BRANCH  12  15
ATOM     13  C   UNL     1      -1.150   2.294   0.018  0.00  0.00    +0.209 A 
ATOM     14  N   UNL     1      -1.114   3.647   0.034  0.00  0.00    -0.192 NA
ATOM     15  C   UNL     1      -2.366   4.031   0.033  0.00  0.00    +0.211 A 
ATOM     16  O   UNL     1      -3.119   2.927   0.025  0.00  0.00    -0.340 OA
ATOM     17  N   UNL     1      -2.412   1.941   0.017  0.00  0.00    -0.056 NA
BRANCH  13  20
ATOM     18  C   UNL     1       1.262  -0.622  -0.013  0.00  0.00    +0.008 A 
ATOM     19  C   UNL     1       0.042   0.016  -0.002  0.00  0.00    +0.019 A 
ATOM     20  C   UNL     1       0.015   1.385   0.009  0.00  0.00    +0.060 A 
ATOM     21  S   UNL     1       1.755   1.787   0.003  0.00  0.00    -0.093 S 
ATOM     22  C   UNL     1       2.398   0.122  -0.014  0.00  0.00    +0.046 A 
ENDBRANCH  13  20
ENDBRANCH  12  15
ENDBRANCH   5  12
ENDBRANCH   1   9
BRANCH   3  23
ATOM     23  C   UNL     1      -5.805  10.668  -4.078  0.00  0.00    +0.034 A 
ATOM     24  C   UNL     1      -6.750  10.874  -5.075  0.00  0.00    +0.025 A 
ATOM     25  C   UNL     1      -7.479  12.047  -5.101  0.00  0.00    +0.030 A 
ATOM     26  C   UNL     1      -7.263  13.019  -4.142  0.00  0.00    +0.106 A 
ATOM     27  C   UNL     1      -6.319  12.819  -3.150  0.00  0.00    +0.030 A 
ATOM     28  C   UNL     1      -5.590  11.647  -3.116  0.00  0.00    +0.025 A 
BRANCH  26  29
ATOM     29  S   UNL     1      -8.191  14.516  -4.183  0.00  0.00    +0.061 S 
ATOM     30  O   UNL     1      -9.392  14.230  -4.885  0.00  0.00    -0.153 OA
ATOM     31  O   UNL     1      -8.187  15.033  -2.859  0.00  0.00    -0.153 OA
BRANCH  29  32
ATOM     32  N   UNL     1      -7.343  15.592  -5.113  0.00  0.00    -0.177 NA
ATOM     33  C   UNL     1      -6.352  16.490  -4.504  0.00  0.00    +0.109 C 
ATOM     34  C   UNL     1      -5.018  16.323  -5.248  0.00  0.00    +0.017 C 
ATOM     35  C   UNL     1      -5.242  16.557  -6.744  0.00  0.00    +0.003 C 
ATOM     36  C   UNL     1      -6.228  15.517  -7.282  0.00  0.00    +0.017 C 
ATOM     37  C   UNL     1      -7.571  15.671  -6.562  0.00  0.00    +0.109 C 
ENDBRANCH  29  32
ENDBRANCH  26  29
ENDBRANCH   3  23
TORSDOF 7
