REMARK  Name = ZINC32594079
REMARK  6 active torsions:
REMARK  status: ('A' for Active; 'I' for Inactive)
REMARK    1  A    between atoms: C_1  and  C_2
REMARK    2  A    between atoms: C_2  and  C_3
REMARK    3  A    between atoms: C_6  and  O_9
REMARK    4  A    between atoms: O_9  and  C_10
REMARK    5  A    between atoms: C_10  and  C_11
REMARK    6  A    between atoms: C_15  and  C_19
REMARK                            x       y       z     vdW  Elec       q    Type
REMARK                         _______ _______ _______ _____ _____    ______ ____
ROOT
ATOM      1  C   UNL     1      -3.043   4.481   6.403  0.00  0.00    +0.256 C 
ATOM      2  O   UNL     1      -3.895   3.706   6.786  0.00  0.00    -0.272 OA
ATOM      3  N   UNL     1      -2.823   5.626   7.078  0.00  0.00    -0.263 N 
ATOM      4  C   UNL     1      -3.573   5.921   8.214  0.00  0.00    +0.197 A 
ATOM      5  C   UNL     1      -3.437   7.123   9.046  0.00  0.00    +0.156 A 
ATOM      6  N   UNL     1      -4.309   7.051  10.016  0.00  0.00    -0.047 NA
ATOM      7  O   UNL     1      -5.021   5.835   9.870  0.00  0.00    -0.240 OA
ATOM      8  N   UNL     1      -4.512   5.175   8.724  0.00  0.00    -0.033 NA
ATOM      9  H   UNL     1      -2.050   6.329   6.731  0.00  0.00    +0.156 HD
ENDROOT
BRANCH   5  10
ATOM     10  C   UNL     1      -2.477   8.231   8.820  0.00  0.00    +0.007 A 
ATOM     11  C   UNL     1      -1.207   7.967   8.309  0.00  0.00    +0.010 A 
ATOM     12  C   UNL     1      -0.325   9.005   8.107  0.00  0.00    +0.004 A 
ATOM     13  C   UNL     1      -0.687  10.313   8.407  0.00  0.00    -0.044 A 
ATOM     14  C   UNL     1      -1.942  10.581   8.909  0.00  0.00    -0.044 A 
ATOM     15  C   UNL     1      -2.838   9.542   9.113  0.00  0.00    +0.014 A 
ATOM     16  C   UNL     1      -2.401  11.976   9.245  0.00  0.00    +0.035 C 
ATOM     17  C   UNL     1      -1.206  12.916   9.382  0.00  0.00    +0.005 C 
ATOM     18  C   UNL     1      -0.329  12.767   8.133  0.00  0.00    +0.005 C 
ATOM     19  C   UNL     1       0.338  11.393   8.172  0.00  0.00    +0.035 C 
ENDBRANCH   5  10
BRANCH   1  20
ATOM     20  C   UNL     1      -2.232   4.161   5.174  0.00  0.00    +0.324 C 
BRANCH  20  21
ATOM     21  O   UNL     1      -2.649   2.902   4.642  0.00  0.00    -0.483 OA
BRANCH  21  25
ATOM     22  C   UNL     1      -0.718   1.572   1.248  0.00  0.00    -0.047 A 
ATOM     23  C   UNL     1      -0.359   2.779   1.818  0.00  0.00    +0.007 A 
ATOM     24  C   UNL     1      -1.008   3.230   2.951  0.00  0.00    +0.046 A 
ATOM     25  C   UNL     1      -2.013   2.464   3.524  0.00  0.00    +0.121 A 
ATOM     26  C   UNL     1      -2.368   1.250   2.954  0.00  0.00    +0.046 A 
ATOM     27  C   UNL     1      -1.720   0.807   1.817  0.00  0.00    +0.007 A 
BRANCH  22  29
ATOM     28  C   UNL     1      -0.753   1.593  -1.232  0.00  0.00    +0.009 C 
ATOM     29  C   UNL     1      -0.013   1.086   0.008  0.00  0.00    +0.032 C 
ENDBRANCH  22  29
ENDBRANCH  21  25
ENDBRANCH  20  21
ENDBRANCH   1  20
TORSDOF 5
