REMARK  Name = ZINC63744056
REMARK  7 active torsions:
REMARK  status: ('A' for Active; 'I' for Inactive)
REMARK    1  A    between atoms: C_1  and  C_2
REMARK    2  A    between atoms: C_4  and  C_34
REMARK    3  A    between atoms: N_10  and  C_11
REMARK    4  A    between atoms: N_13  and  C_14
REMARK    5  A    between atoms: N_22  and  C_23
REMARK    6  A    between atoms: C_23  and  C_24
REMARK    7  A    between atoms: C_24  and  C_25
REMARK                            x       y       z     vdW  Elec       q    Type
REMARK                         _______ _______ _______ _____ _____    ______ ____
ROOT
ATOM      1  C   UNL     1       3.204  -0.793  -0.257  0.00  0.00    +0.066 C 
ATOM      2  C   UNL     1       3.675   0.476   0.406  0.00  0.00    +0.044 A 
ATOM      3  C   UNL     1       4.386   1.423  -0.316  0.00  0.00    +0.046 A 
ATOM      4  C   UNL     1       4.800   2.576   0.331  0.00  0.00    +0.044 A 
ATOM      5  N   UNL     1       4.506   2.738   1.611  0.00  0.00    -0.217 NA
ATOM      6  C   UNL     1       3.826   1.814   2.272  0.00  0.00    +0.231 A 
ATOM      7  N   UNL     1       3.411   0.703   1.682  0.00  0.00    -0.217 NA
ATOM      8  N   UNL     1       3.536   2.017   3.615  0.00  0.00    -0.297 N 
ATOM      9  C   UNL     1       2.718   1.143   4.277  0.00  0.00    +0.198 C 
ATOM     10  N   UNL     1       3.096   0.635   5.438  0.00  0.00    -0.129 NA
ATOM     11  N   UNL     1       1.513   0.796   3.740  0.00  0.00    -0.357 N 
ATOM     12  C   UNL     1       5.575   3.633  -0.413  0.00  0.00    +0.066 C 
ATOM     13  H   UNL     1       3.914   2.778   4.083  0.00  0.00    +0.171 HD
ATOM     14  H   UNL     1       0.938   0.167   4.205  0.00  0.00    +0.162 HD
ENDROOT
BRANCH  10  15
ATOM     15  C   UNL     1       4.340   0.847   5.890  0.00  0.00    +0.330 C 
ATOM     16  O   UNL     1       5.093   1.583   5.278  0.00  0.00    -0.250 OA
ATOM     17  N   UNL     1       4.757   0.247   7.023  0.00  0.00    -0.268 N 
ATOM     18  H   UNL     1       4.167  -0.361   7.495  0.00  0.00    +0.156 HD
BRANCH  17  19
ATOM     19  C   UNL     1       6.042   0.500   7.516  0.00  0.00    +0.036 A 
ATOM     20  C   UNL     1       6.619   1.752   7.345  0.00  0.00    +0.025 A 
ATOM     21  C   UNL     1       7.886   2.000   7.833  0.00  0.00    +0.023 A 
ATOM     22  C   UNL     1       8.583   1.003   8.492  0.00  0.00    +0.059 A 
ATOM     23  C   UNL     1       8.012  -0.247   8.664  0.00  0.00    +0.061 A 
ATOM     24  C   UNL     1       6.740  -0.498   8.183  0.00  0.00    +0.044 A 
ATOM     25 CL   UNL     1       8.889  -1.496   9.490  0.00  0.00    -0.082 Cl
ATOM     26 CL   UNL     1      10.177   1.318   9.103  0.00  0.00    -0.082 Cl
ENDBRANCH  17  19
ENDBRANCH  10  15
BRANCH  11  27
ATOM     27  C   UNL     1       1.087   1.373   2.463  0.00  0.00    +0.120 C 
BRANCH  27  28
ATOM     28  C   UNL     1      -0.441   1.383   2.392  0.00  0.00    +0.054 C 
BRANCH  28  29
ATOM     29  C   UNL     1      -0.882   2.102   1.143  0.00  0.00    -0.040 C 
ATOM     30  C   UNL     1      -2.145   2.448   0.807  0.00  0.00    -0.001 A 
ATOM     31  C   UNL     1      -3.438   2.264   1.476  0.00  0.00    +0.010 A 
ATOM     32  C   UNL     1      -4.559   2.728   0.878  0.00  0.00    +0.001 A 
ATOM     33  C   UNL     1      -4.516   3.379  -0.362  0.00  0.00    +0.002 A 
ATOM     34  C   UNL     1      -3.366   3.586  -1.038  0.00  0.00    +0.026 A 
ATOM     35  C   UNL     1      -2.127   3.139  -0.502  0.00  0.00    +0.043 A 
ATOM     36  N   UNL     1      -0.900   3.218  -0.957  0.00  0.00    -0.380 N 
ATOM     37  C   UNL     1       0.001   2.590   0.016  0.00  0.00    +0.144 C 
ATOM     38  H   UNL     1      -0.632   3.626  -1.795  0.00  0.00    +0.160 HD
ENDBRANCH  28  29
ENDBRANCH  27  28
ENDBRANCH  11  27
TORSDOF 5
