REMARK  Name = ZINC05930744
REMARK  5 active torsions:
REMARK  status: ('A' for Active; 'I' for Inactive)
REMARK    1  A    between atoms: C_1  and  C_2
REMARK    2  A    between atoms: C_4  and  S_9
REMARK    3  A    between atoms: C_7  and  N_8
REMARK    4  A    between atoms: S_9  and  C_12
REMARK    5  A    between atoms: C_15  and  N_18
REMARK                            x       y       z     vdW  Elec       q    Type
REMARK                         _______ _______ _______ _____ _____    ______ ____
ROOT
ATOM      1  S   UNL     1       0.064  -4.533  -0.023  0.00  0.00    +0.025 S 
ATOM      2  O   UNL     1      -1.181  -4.952  -0.564  0.00  0.00    -0.164 OA
ATOM      3  O   UNL     1       1.309  -4.919  -0.588  0.00  0.00    -0.164 OA
ENDROOT
BRANCH   1   7
ATOM      4  C   UNL     1      -2.507   0.017   0.038  0.00  0.00    +0.046 C 
ATOM      5  C   UNL     1      -1.190  -0.716   0.015  0.00  0.00    -0.028 A 
ATOM      6  C   UNL     1      -1.168  -2.097   0.002  0.00  0.00    +0.032 A 
ATOM      7  C   UNL     1       0.040  -2.771  -0.013  0.00  0.00    +0.094 A 
ATOM      8  C   UNL     1       1.229  -2.065  -0.020  0.00  0.00    +0.029 A 
ATOM      9  C   UNL     1       1.214  -0.684  -0.013  0.00  0.00    +0.025 A 
ATOM     10  C   UNL     1       0.002  -0.004   0.002  0.00  0.00    +0.028 A 
BRANCH  10  11
ATOM     11  N   UNL     1      -0.017   1.393   0.010  0.00  0.00    -0.358 N 
ATOM     12  H   UNL     1       0.817   1.889   0.004  0.00  0.00    +0.142 HD
ATOM     13  H   UNL     1      -0.863   1.866   0.016  0.00  0.00    +0.142 HD
ENDBRANCH  10  11
ENDBRANCH   1   7
BRANCH   1  14
ATOM     14  C   UNL     1       0.087  -5.063   1.657  0.00  0.00    +0.094 A 
ATOM     15  C   UNL     1       1.294  -5.260   2.302  0.00  0.00    +0.029 A 
ATOM     16  C   UNL     1       1.317  -5.670   3.620  0.00  0.00    +0.024 A 
ATOM     17  C   UNL     1       0.124  -5.896   4.295  0.00  0.00    +0.025 A 
ATOM     18  C   UNL     1      -1.087  -5.703   3.643  0.00  0.00    +0.024 A 
ATOM     19  C   UNL     1      -1.102  -5.287   2.326  0.00  0.00    +0.029 A 
BRANCH  17  20
ATOM     20  N   UNL     1       0.142  -6.317   5.627  0.00  0.00    -0.358 N 
ATOM     21  H   UNL     1      -0.691  -6.475   6.098  0.00  0.00    +0.142 HD
ATOM     22  H   UNL     1       0.989  -6.452   6.082  0.00  0.00    +0.142 HD
ENDBRANCH  17  20
ENDBRANCH   1  14
TORSDOF 4
