REMARK  Name = ZINC54063276
REMARK  6 active torsions:
REMARK  status: ('A' for Active; 'I' for Inactive)
REMARK    1  A    between atoms: C_1  and  C_2
REMARK    2  A    between atoms: C_2  and  C_4
REMARK    3  A    between atoms: C_2  and  N_12
REMARK    4  A    between atoms: C_9  and  O_10
REMARK    5  A    between atoms: O_10  and  C_11
REMARK    6  A    between atoms: N_18  and  C_21
REMARK                            x       y       z     vdW  Elec       q    Type
REMARK                         _______ _______ _______ _____ _____    ______ ____
ROOT
ATOM      1  N   UNL     1       0.560  -0.479  -1.042  0.00  0.00    -0.293 N 
ATOM      2  C   UNL     1       1.883  -0.729  -1.122  0.00  0.00    +0.303 C 
ATOM      3  O   UNL     1       2.590  -0.578  -0.145  0.00  0.00    -0.253 OA
ATOM      4  N   UNL     1       2.421  -1.145  -2.285  0.00  0.00    -0.283 N 
ATOM      5  C   UNL     1       1.564  -1.434  -3.445  0.00  0.00    +0.128 C 
ATOM      6  C   UNL     1       2.051  -0.597  -4.634  0.00  0.00    +0.124 C 
ATOM      7  N   UNL     1       3.505  -0.770  -4.766  0.00  0.00    -0.327 N 
ATOM      8  C   UNL     1       4.361  -0.482  -3.607  0.00  0.00    +0.124 C 
ATOM      9  C   UNL     1       3.874  -1.313  -2.420  0.00  0.00    +0.128 C 
ATOM     10  H   UNL     1      -0.016  -0.671  -1.798  0.00  0.00    +0.151 HD
ENDROOT
BRANCH   7  11
ATOM     11  C   UNL     1       4.062  -1.202  -5.972  0.00  0.00    +0.030 A 
ATOM     12  C   UNL     1       3.261  -1.346  -7.098  0.00  0.00    +0.023 A 
ATOM     13  C   UNL     1       3.815  -1.772  -8.288  0.00  0.00    +0.002 A 
ATOM     14  C   UNL     1       5.167  -2.057  -8.361  0.00  0.00    +0.000 A 
ATOM     15  C   UNL     1       5.967  -1.915  -7.242  0.00  0.00    +0.002 A 
ATOM     16  C   UNL     1       5.420  -1.483  -6.050  0.00  0.00    +0.023 A 
ENDBRANCH   7  11
BRANCH   1  18
ATOM     17  C   UNL     1       0.024   1.609   0.112  0.00  0.00    +0.033 C 
ATOM     18  C   UNL     1      -0.006   0.081   0.187  0.00  0.00    +0.105 C 
BRANCH  18  19
ATOM     19  C   UNL     1      -1.431  -0.386   0.342  0.00  0.00    +0.014 A 
ATOM     20  C   UNL     1      -2.169  -0.736  -0.772  0.00  0.00    +0.009 A 
ATOM     21  C   UNL     1      -3.475  -1.165  -0.630  0.00  0.00    +0.001 A 
ATOM     22  C   UNL     1      -4.047  -1.244   0.626  0.00  0.00    +0.004 A 
ATOM     23  C   UNL     1      -3.313  -0.896   1.744  0.00  0.00    +0.046 A 
ATOM     24  C   UNL     1      -2.000  -0.471   1.605  0.00  0.00    +0.125 A 
BRANCH  24  25
ATOM     25  O   UNL     1      -1.274  -0.133   2.703  0.00  0.00    -0.495 OA
ATOM     26  C   UNL     1      -1.924  -0.245   3.970  0.00  0.00    +0.277 C 
ENDBRANCH  24  25
ENDBRANCH  18  19
ENDBRANCH   1  18
TORSDOF 4
