REMARK  Name = ZINC13466548
REMARK  7 active torsions:
REMARK  status: ('A' for Active; 'I' for Inactive)
REMARK    1  A    between atoms: C_1  and  C_2
REMARK    2  A    between atoms: C_2  and  C_4
REMARK    3  A    between atoms: C_2  and  N_14
REMARK    4  A    between atoms: C_7  and  S_10
REMARK    5  A    between atoms: S_10  and  N_13
REMARK    6  A    between atoms: C_15  and  C_17
REMARK    7  A    between atoms: C_24  and  C_26
REMARK                            x       y       z     vdW  Elec       q    Type
REMARK                         _______ _______ _______ _____ _____    ______ ____
ROOT
ATOM      1  C   UNL     1      -0.187   1.702   0.489  0.00  0.00    +0.033 C 
ATOM      2  C   UNL     1      -0.601   1.398   1.930  0.00  0.00    +0.100 C 
ENDROOT
BRANCH   2   3
ATOM      3  C   UNL     1      -0.448   2.640   2.769  0.00  0.00    -0.027 A 
ATOM      4  C   UNL     1      -1.418   3.625   2.729  0.00  0.00    +0.007 A 
ATOM      5  C   UNL     1      -1.280   4.763   3.502  0.00  0.00    +0.029 A 
ATOM      6  C   UNL     1      -0.168   4.920   4.308  0.00  0.00    +0.105 A 
ATOM      7  C   UNL     1       0.804   3.938   4.344  0.00  0.00    +0.029 A 
ATOM      8  C   UNL     1       0.664   2.798   3.575  0.00  0.00    +0.007 A 
BRANCH   6   9
ATOM      9  S   UNL     1       0.011   6.373   5.288  0.00  0.00    +0.056 S 
ATOM     10  O   UNL     1      -1.298   6.889   5.491  0.00  0.00    -0.153 OA
ATOM     11  O   UNL     1       0.870   6.031   6.367  0.00  0.00    -0.153 OA
BRANCH   9  12
ATOM     12  N   UNL     1       0.823   7.486   4.370  0.00  0.00    -0.204 NA
ATOM     13  H   UNL     1       1.099   7.262   3.468  0.00  0.00    +0.144 HD
ATOM     14  H   UNL     1       1.022   8.363   4.735  0.00  0.00    +0.144 HD
ENDBRANCH   9  12
ENDBRANCH   6   9
ENDBRANCH   2   3
BRANCH   2  15
ATOM     15  N   UNL     1      -1.999   0.960   1.955  0.00  0.00    -0.308 N 
ATOM     16  C   UNL     1      -2.305  -0.333   1.731  0.00  0.00    +0.218 C 
ATOM     17  O   UNL     1      -1.422  -1.135   1.509  0.00  0.00    -0.275 OA
ATOM     18  H   UNL     1      -2.705   1.602   2.132  0.00  0.00    +0.149 HD
BRANCH  16  19
ATOM     19  C   UNL     1      -3.743  -0.783   1.756  0.00  0.00    +0.096 C 
ATOM     20  C   UNL     1      -3.835  -2.311   2.067  0.00  0.00    +0.025 C 
ATOM     21  C   UNL     1      -3.572  -2.908   0.636  0.00  0.00    +0.016 C 
ATOM     22  C   UNL     1      -4.772  -2.124  -0.011  0.00  0.00    +0.027 C 
ATOM     23  C   UNL     1      -4.377  -0.656   0.349  0.00  0.00    +0.121 C 
ATOM     24  C   UNL     1      -5.896  -2.461   0.977  0.00  0.00    -0.027 C 
ATOM     25  C   UNL     1      -5.373  -2.566   2.182  0.00  0.00    -0.027 C 
BRANCH  23  26
ATOM     26  C   UNL     1      -3.375  -0.117  -0.638  0.00  0.00    +0.360 C 
ATOM     27  O   UNL     1      -2.675  -0.876  -1.265  0.00  0.00    -0.246 OA
ATOM     28  O   UNL     1      -3.258   1.208  -0.820  0.00  0.00    -0.246 OA
ENDBRANCH  23  26
ENDBRANCH  16  19
ENDBRANCH   2  15
TORSDOF 6
