REMARK  Name = ZINC14544869
REMARK  5 active torsions:
REMARK  status: ('A' for Active; 'I' for Inactive)
REMARK    1  A    between atoms: C_4  and  C_7
REMARK    2  A    between atoms: C_7  and  C_8
REMARK    3  A    between atoms: C_8  and  N_9
REMARK    4  A    between atoms: C_10  and  C_12
REMARK    5  A    between atoms: C_19  and  C_28
REMARK                            x       y       z     vdW  Elec       q    Type
REMARK                         _______ _______ _______ _____ _____    ______ ____
ROOT
ATOM      1  C   UNL     1       1.142   1.870   0.037  0.00  0.00    +0.058 A 
ATOM      2  C   UNL     1       1.068   3.263   0.044  0.00  0.00    +0.015 A 
ATOM      3  C   UNL     1       2.228   4.007   0.030  0.00  0.00    +0.001 A 
ATOM      4  C   UNL     1       3.458   3.378  -0.002  0.00  0.00    +0.006 A 
ATOM      5  C   UNL     1       3.554   1.994  -0.013  0.00  0.00    -0.019 A 
ATOM      6  C   UNL     1       2.397   1.232   0.005  0.00  0.00    +0.044 A 
ATOM      7  N   UNL     1       2.423  -0.154  -0.008  0.00  0.00    -0.336 N 
ATOM      8  C   UNL     1       3.661  -0.691   0.557  0.00  0.00    +0.107 C 
ATOM      9  C   UNL     1       4.857  -0.148  -0.229  0.00  0.00    +0.029 C 
ATOM     10  C   UNL     1       4.911   1.386  -0.060  0.00  0.00    +0.049 C 
ATOM     11  C   UNL     1       5.614   1.562   1.291  0.00  0.00    -0.023 C 
ATOM     12  C   UNL     1       6.289   0.486   1.607  0.00  0.00    -0.030 C 
ATOM     13  C   UNL     1       6.152  -0.565   0.523  0.00  0.00    +0.033 C 
ATOM     14  H   UNL     1       2.267  -0.509  -0.940  0.00  0.00    +0.147 HD
ENDROOT
BRANCH   8  15
ATOM     15  C   UNL     1       3.777  -0.273   2.001  0.00  0.00    -0.002 A 
ATOM     16  C   UNL     1       3.246   0.826   2.559  0.00  0.00    +0.089 A 
ATOM     17  N   UNL     1       3.561   0.872   3.890  0.00  0.00    -0.360 N 
ATOM     18  H   UNL     1       3.289   1.573   4.503  0.00  0.00    +0.165 HD
ATOM     19  C   UNL     1       4.322  -0.225   4.229  0.00  0.00    +0.047 A 
ATOM     20  C   UNL     1       4.486  -0.993   3.062  0.00  0.00    +0.005 A 
ATOM     21  C   UNL     1       5.228  -2.174   3.104  0.00  0.00    +0.010 A 
ATOM     22  C   UNL     1       5.783  -2.585   4.284  0.00  0.00    +0.001 A 
ATOM     23  C   UNL     1       5.619  -1.833   5.439  0.00  0.00    +0.002 A 
ATOM     24  C   UNL     1       4.895  -0.661   5.418  0.00  0.00    +0.026 A 
ENDBRANCH   8  15
BRANCH   1  26
ATOM     25  N   UNL     1      -1.294   1.677   0.082  0.00  0.00    -0.311 N 
ATOM     26  C   UNL     1      -0.093   1.066   0.057  0.00  0.00    +0.246 C 
ATOM     27  O   UNL     1      -0.029  -0.148   0.046  0.00  0.00    -0.270 OA
ATOM     28  H   UNL     1      -1.346   2.645   0.091  0.00  0.00    +0.149 HD
BRANCH  25  29
ATOM     29  C   UNL     1      -2.522   0.877   0.096  0.00  0.00    +0.109 C 
BRANCH  29  30
ATOM     30  C   UNL     1      -3.736   1.808   0.123  0.00  0.00    +0.054 C 
BRANCH  30  34
ATOM     31  C   UNL     1      -7.316  -0.521   0.164  0.00  0.00    +0.000 A 
ATOM     32  C   UNL     1      -6.717  -0.154   1.354  0.00  0.00    +0.000 A 
ATOM     33  C   UNL     1      -5.559   0.599   1.341  0.00  0.00    +0.004 A 
ATOM     34  C   UNL     1      -4.999   0.986   0.138  0.00  0.00    -0.046 A 
ATOM     35  C   UNL     1      -5.601   0.624  -1.053  0.00  0.00    +0.004 A 
ATOM     36  C   UNL     1      -6.757  -0.134  -1.040  0.00  0.00    +0.000 A 
ENDBRANCH  30  34
ENDBRANCH  29  30
ENDBRANCH  25  29
ENDBRANCH   1  26
TORSDOF 5
