REMARK  Name = ZINC01799334
REMARK  7 active torsions:
REMARK  status: ('A' for Active; 'I' for Inactive)
REMARK    1  A    between atoms: C_4  and  C_7
REMARK    2  A    between atoms: C_7  and  C_8
REMARK    3  A    between atoms: C_8  and  C_9
REMARK    4  A    between atoms: C_14  and  C_15
REMARK    5  A    between atoms: C_21  and  S_23
REMARK    6  A    between atoms: S_23  and  C_26
REMARK    7  A    between atoms: C_29  and  N_32
REMARK                            x       y       z     vdW  Elec       q    Type
REMARK                         _______ _______ _______ _____ _____    ______ ____
ROOT
ATOM      1  C   UNL     1       6.649   0.461   0.948  0.00  0.00    +0.250 C 
ATOM      2  O   UNL     1       5.602   1.071   1.046  0.00  0.00    -0.270 OA
ATOM      3  N   UNL     1       7.786   1.117   0.642  0.00  0.00    -0.261 N 
ATOM      4  C   UNL     1       7.761   2.491   0.440  0.00  0.00    +0.166 A 
ATOM      5  N   UNL     1       6.733   3.310   0.509  0.00  0.00    -0.231 NA
ATOM      6  C   UNL     1       6.875   4.604   0.288  0.00  0.00    +0.148 A 
ATOM      7  C   UNL     1       8.122   5.044  -0.011  0.00  0.00    +0.152 A 
ATOM      8  S   UNL     1       9.040   3.515   0.054  0.00  0.00    -0.033 S 
ATOM      9  H   UNL     1       8.621   0.631   0.564  0.00  0.00    +0.157 HD
ENDROOT
BRANCH   1  15
ATOM     10  C   UNL     1       5.486  -1.700   1.375  0.00  0.00    -0.035 A 
ATOM     11  C   UNL     1       5.517  -3.065   1.570  0.00  0.00    +0.004 A 
ATOM     12  C   UNL     1       6.724  -3.741   1.561  0.00  0.00    +0.000 A 
ATOM     13  C   UNL     1       7.907  -3.054   1.356  0.00  0.00    +0.001 A 
ATOM     14  C   UNL     1       7.891  -1.689   1.160  0.00  0.00    +0.013 A 
ATOM     15  C   UNL     1       6.675  -1.001   1.163  0.00  0.00    +0.040 A 
BRANCH  10  16
ATOM     16  C   UNL     1       4.170  -0.965   1.386  0.00  0.00    +0.040 C 
BRANCH  16  17
ATOM     17  C   UNL     1       3.738  -0.672  -0.052  0.00  0.00    +0.040 C 
BRANCH  17  21
ATOM     18  C   UNL     1       0.008   1.410  -0.025  0.00  0.00    +0.000 A 
ATOM     19  C   UNL     1       1.195   2.118   0.009  0.00  0.00    +0.000 A 
ATOM     20  C   UNL     1       2.402   1.444   0.001  0.00  0.00    +0.003 A 
ATOM     21  C   UNL     1       2.422   0.062  -0.042  0.00  0.00    -0.047 A 
ATOM     22  C   UNL     1       1.235  -0.645  -0.075  0.00  0.00    +0.003 A 
ATOM     23  C   UNL     1       0.028   0.029  -0.067  0.00  0.00    +0.000 A 
ENDBRANCH  17  21
ENDBRANCH  16  17
ENDBRANCH  10  16
ENDBRANCH   1  15
BRANCH   7  24
ATOM     24  S   UNL     1       8.682   6.678  -0.362  0.00  0.00    +0.033 S 
ATOM     25  O   UNL     1       9.870   6.544  -1.130  0.00  0.00    -0.164 OA
ATOM     26  O   UNL     1       7.552   7.404  -0.826  0.00  0.00    -0.164 OA
BRANCH  24  27
ATOM     27  C   UNL     1       9.154   7.407   1.172  0.00  0.00    +0.094 A 
ATOM     28  C   UNL     1       8.224   8.101   1.922  0.00  0.00    +0.029 A 
ATOM     29  C   UNL     1       8.595   8.673   3.125  0.00  0.00    +0.034 A 
ATOM     30  C   UNL     1       9.895   8.550   3.577  0.00  0.00    +0.126 A 
ATOM     31  C   UNL     1      10.825   7.854   2.827  0.00  0.00    +0.034 A 
ATOM     32  C   UNL     1      10.453   7.279   1.627  0.00  0.00    +0.029 A 
BRANCH  30  33
ATOM     33  N   UNL     1      10.292   9.163   4.865  0.00  0.00    +0.056 N 
ATOM     34  O   UNL     1       9.479   9.771   5.521  0.00  0.00    -0.126 OA
ATOM     35  O   UNL     1      11.429   9.055   5.261  0.00  0.00    -0.126 OA
ENDBRANCH  30  33
ENDBRANCH  24  27
ENDBRANCH   7  24
TORSDOF 7
