REMARK  Name = ZINC14270007
REMARK  9 active torsions:
REMARK  status: ('A' for Active; 'I' for Inactive)
REMARK    1  A    between atoms: C_1  and  C_2
REMARK    2  A    between atoms: C_2  and  C_3
REMARK    3  A    between atoms: C_2  and  C_4
REMARK    4  A    between atoms: C_7  and  N_10
REMARK    5  A    between atoms: N_10  and  C_11
REMARK    6  A    between atoms: C_11  and  N_13
REMARK    7  A    between atoms: C_14  and  C_16
REMARK    8  A    between atoms: C_25  and  O_26
REMARK    9  A    between atoms: O_26  and  C_27
REMARK                            x       y       z     vdW  Elec       q    Type
REMARK                         _______ _______ _______ _____ _____    ______ ____
ROOT
ATOM      1  N   UNL     1       1.103   2.396   0.416  0.00  0.00    -0.263 N 
ATOM      2  C   UNL     1       2.231   1.763   0.793  0.00  0.00    +0.253 C 
ATOM      3  O   UNL     1       2.190   0.593   1.123  0.00  0.00    -0.270 OA
ATOM      4  H   UNL     1       1.136   3.330   0.153  0.00  0.00    +0.157 HD
ENDROOT
BRANCH   2   5
ATOM      5  C   UNL     1       3.515   2.488   0.807  0.00  0.00    +0.080 A 
ATOM      6  C   UNL     1       3.557   3.822   0.431  0.00  0.00    +0.025 A 
ATOM      7  C   UNL     1       4.780   4.506   0.446  0.00  0.00    -0.016 A 
ATOM      8  C   UNL     1       4.859   5.860   0.071  0.00  0.00    +0.008 A 
ATOM      9  C   UNL     1       6.060   6.498   0.097  0.00  0.00    +0.001 A 
ATOM     10  C   UNL     1       7.219   5.829   0.489  0.00  0.00    +0.001 A 
ATOM     11  C   UNL     1       7.182   4.520   0.859  0.00  0.00    +0.010 A 
ATOM     12  C   UNL     1       5.960   3.826   0.846  0.00  0.00    -0.000 A 
ATOM     13  C   UNL     1       5.891   2.474   1.223  0.00  0.00    +0.068 A 
ATOM     14  C   UNL     1       4.692   1.822   1.209  0.00  0.00    +0.147 A 
ATOM     15 BR   UNL     1       7.458   1.560   1.757  0.00  0.00    -0.046 Br
BRANCH  14  16
ATOM     16  O   UNL     1       4.633   0.518   1.580  0.00  0.00    -0.493 OA
ATOM     17  C   UNL     1       4.816  -0.458   0.552  0.00  0.00    +0.277 C 
ENDBRANCH  14  16
ENDBRANCH   2   5
BRANCH   1  18
ATOM     18  C   UNL     1      -0.070   1.734   0.403  0.00  0.00    +0.141 C 
ATOM     19  S   UNL     1      -0.128   0.086   0.867  0.00  0.00    -0.018 S 
BRANCH  18  20
ATOM     20  N   UNL     1      -1.197   2.366   0.021  0.00  0.00    -0.297 N 
ATOM     21  H   UNL     1      -1.176   3.314  -0.183  0.00  0.00    +0.154 HD
BRANCH  20  25
ATOM     22  C   UNL     1      -4.771   0.248  -0.288  0.00  0.00    -0.045 A 
ATOM     23  C   UNL     1      -3.961   0.076   0.819  0.00  0.00    +0.006 A 
ATOM     24  C   UNL     1      -2.775   0.776   0.924  0.00  0.00    +0.023 A 
ATOM     25  C   UNL     1      -2.397   1.655  -0.083  0.00  0.00    +0.033 A 
ATOM     26  C   UNL     1      -3.216   1.829  -1.191  0.00  0.00    +0.023 A 
ATOM     27  C   UNL     1      -4.398   1.121  -1.293  0.00  0.00    +0.006 A 
BRANCH  22  29
ATOM     28  C   UNL     1      -7.233   0.465  -0.490  0.00  0.00    +0.012 C 
ATOM     29  C   UNL     1      -6.064  -0.518  -0.400  0.00  0.00    +0.013 C 
ATOM     30  C   UNL     1      -6.033  -1.390  -1.657  0.00  0.00    +0.012 C 
ENDBRANCH  22  29
ENDBRANCH  20  25
ENDBRANCH  18  20
ENDBRANCH   1  18
TORSDOF 6
