REMARK  Name = ZINC08964467
REMARK  11 active torsions:
REMARK  status: ('A' for Active; 'I' for Inactive)
REMARK    1  A    between atoms: C_1  and  C_2
REMARK    2  A    between atoms: C_2  and  C_4
REMARK    3  A    between atoms: C_9  and  C_39
REMARK    4  A    between atoms: C_20  and  C_38
REMARK    5  A    between atoms: C_23  and  O_26
REMARK    6  A    between atoms: O_26  and  C_27
REMARK    7  A    between atoms: C_27  and  C_29
REMARK    8  A    between atoms: C_29  and  C_30
REMARK    9  A    between atoms: C_30  and  N_84
REMARK   10  A    between atoms: C_34  and  C_36
REMARK   11  A    between atoms: C_34  and  C_37
REMARK                            x       y       z     vdW  Elec       q    Type
REMARK                         _______ _______ _______ _____ _____    ______ ____
ROOT
ATOM      1  C   UNL     1      -0.847   2.969   1.459  0.00  0.00    -0.003 C 
ATOM      2  C   UNL     1      -1.448   3.514   2.540  0.00  0.00    -0.019 C 
ATOM      3  C   UNL     1      -1.521   5.038   2.379  0.00  0.00    +0.032 C 
ATOM      4  C   UNL     1      -1.448   5.148   0.849  0.00  0.00    +0.006 C 
ATOM      5  C   UNL     1      -0.343   4.102   0.598  0.00  0.00    -0.001 C 
ATOM      6  C   UNL     1      -0.200   3.865  -0.881  0.00  0.00    +0.012 C 
ATOM      7  C   UNL     1       0.112   5.215  -1.564  0.00  0.00    +0.005 C 
ATOM      8  C   UNL     1      -0.995   6.222  -1.308  0.00  0.00    -0.001 C 
ATOM      9  C   UNL     1      -1.206   6.468   0.196  0.00  0.00    -0.003 C 
ATOM     10  C   UNL     1      -0.062   7.296   0.758  0.00  0.00    +0.004 C 
ATOM     11  C   UNL     1      -0.064   8.681   0.097  0.00  0.00    +0.004 C 
ATOM     12  C   UNL     1      -1.054   8.706  -1.064  0.00  0.00    -0.001 C 
ATOM     13  C   UNL     1      -0.791   7.552  -2.031  0.00  0.00    -0.026 C 
ATOM     14  C   UNL     1      -1.807   7.622  -3.181  0.00  0.00    +0.011 C 
ATOM     15  C   UNL     1      -1.734   8.964  -3.899  0.00  0.00    +0.045 C 
ATOM     16  C   UNL     1      -1.987  10.105  -2.914  0.00  0.00    +0.177 C 
ATOM     17  C   UNL     1      -0.955  10.050  -1.787  0.00  0.00    +0.048 C 
ATOM     18  C   UNL     1       0.620   7.647  -2.605  0.00  0.00    +0.012 C 
ATOM     19  C   UNL     1       1.008   4.495   1.191  0.00  0.00    +0.016 C 
ENDROOT
BRANCH   1  21
ATOM     20  C   UNL     1       0.021   1.109  -0.083  0.00  0.00    +0.091 C 
ATOM     21  C   UNL     1      -0.680   1.549   1.177  0.00  0.00    +0.156 C 
ATOM     22  O   UNL     1      -1.106   0.722   1.955  0.00  0.00    -0.293 OA
ENDBRANCH   1  21
BRANCH  16  23
ATOM     23  O   UNL     1      -1.877  11.377  -3.608  0.00  0.00    -0.461 OA
BRANCH  23  24
ATOM     24  C   UNL     1      -2.998  11.872  -4.155  0.00  0.00    +0.306 C 
ATOM     25  O   UNL     1      -4.037  11.264  -4.058  0.00  0.00    -0.251 OA
BRANCH  24  26
ATOM     26  C   UNL     1      -2.960  13.187  -4.891  0.00  0.00    +0.102 C 
BRANCH  26  27
ATOM     27  C   UNL     1      -4.359  13.519  -5.413  0.00  0.00    -0.068 C 
BRANCH  27  35
ATOM     28  C   UNL     1      -3.511  14.698  -7.349  0.00  0.00    -0.079 C 
ATOM     29  C   UNL     1      -3.613  16.002  -8.143  0.00  0.00    -0.018 C 
ATOM     30  C   UNL     1      -3.120  17.163  -7.275  0.00  0.00    +0.003 C 
ATOM     31  C   UNL     1      -3.950  17.218  -5.990  0.00  0.00    -0.050 C 
ATOM     32  C   UNL     1      -3.838  15.878  -5.258  0.00  0.00    -0.072 C 
ATOM     33  C   UNL     1      -5.415  17.488  -6.339  0.00  0.00    +0.009 C 
ATOM     34  C   UNL     1      -3.425  18.338  -5.089  0.00  0.00    +0.009 C 
ATOM     35  N   UNL     1      -4.351  14.806  -6.138  0.00  0.00    +0.380 N 
ATOM     36  H   UNL     1      -5.311  15.037  -6.418  0.00  0.00    -0.082 HD
ENDBRANCH  27  35
ENDBRANCH  26  27
ENDBRANCH  24  26
ENDBRANCH  23  24
ENDBRANCH  16  23
TORSDOF 6
