REMARK  Name = ZINC39205038
REMARK  11 active torsions:
REMARK  status: ('A' for Active; 'I' for Inactive)
REMARK    1  A    between atoms: C_1  and  C_2
REMARK    2  A    between atoms: C_2  and  N_3
REMARK    3  A    between atoms: N_3  and  C_4
REMARK    4  A    between atoms: N_3  and  C_6
REMARK    5  A    between atoms: C_4  and  C_5
REMARK    6  A    between atoms: C_9  and  C_12
REMARK    7  A    between atoms: C_13  and  C_14
REMARK    8  A    between atoms: C_13  and  N_28
REMARK    9  A    between atoms: N_16  and  N_17
REMARK   10  A    between atoms: C_18  and  C_19
REMARK   11  A    between atoms: C_29  and  C_31
REMARK                            x       y       z     vdW  Elec       q    Type
REMARK                         _______ _______ _______ _____ _____    ______ ____
ROOT
ATOM      1  C   UNL     1      -3.854  -1.493   4.796  0.00  0.00    +0.036 C 
ATOM      2  C   UNL     1      -5.153  -1.879   4.852  0.00  0.00    +0.098 C 
ENDROOT
BRANCH   1   6
ATOM      3  C   UNL     1      -2.123  -0.411   1.079  0.00  0.00    +0.030 A 
ATOM      4  C   UNL     1      -1.328  -0.958   2.082  0.00  0.00    +0.024 A 
ATOM      5  C   UNL     1      -1.885  -1.310   3.289  0.00  0.00    +0.010 A 
ATOM      6  C   UNL     1      -3.255  -1.118   3.509  0.00  0.00    -0.023 A 
ATOM      7  C   UNL     1      -4.051  -0.568   2.497  0.00  0.00    +0.010 A 
ATOM      8  C   UNL     1      -3.484  -0.213   1.294  0.00  0.00    +0.024 A 
BRANCH   3   9
ATOM      9  N   UNL     1      -1.555  -0.056  -0.142  0.00  0.00    -0.330 N 
BRANCH   9  11
ATOM     10  C   UNL     1       0.648   0.986   0.061  0.00  0.00    +0.024 C 
ATOM     11  C   UNL     1      -0.123  -0.263  -0.371  0.00  0.00    +0.102 C 
ENDBRANCH   9  11
BRANCH   9  12
ATOM     12  C   UNL     1      -2.389   0.525  -1.197  0.00  0.00    +0.102 C 
ATOM     13  C   UNL     1      -2.952  -0.593  -2.076  0.00  0.00    +0.024 C 
ENDBRANCH   9  12
ENDBRANCH   3   9
ENDBRANCH   1   6
BRANCH   2  14
ATOM     14  C   UNL     1      -5.904  -2.108   3.614  0.00  0.00    +0.277 C 
ATOM     15  O   UNL     1      -6.814  -1.359   3.306  0.00  0.00    -0.267 OA
ATOM     16  N   UNL     1      -5.588  -3.147   2.816  0.00  0.00    -0.202 N 
ATOM     17  H   UNL     1      -4.913  -3.785   3.095  0.00  0.00    +0.178 HD
BRANCH  16  18
ATOM     18  N   UNL     1      -6.234  -3.306   1.583  0.00  0.00    -0.188 NA
ATOM     19  C   UNL     1      -5.926  -4.316   0.807  0.00  0.00    +0.136 C 
BRANCH  19  20
ATOM     20  C   UNL     1      -6.572  -4.475  -0.425  0.00  0.00    +0.000 C 
ATOM     21  C   UNL     1      -6.368  -5.489  -1.359  0.00  0.00    +0.004 A 
ATOM     22  C   UNL     1      -5.510  -6.610  -1.378  0.00  0.00    +0.010 A 
ATOM     23  C   UNL     1      -5.523  -7.450  -2.444  0.00  0.00    +0.001 A 
ATOM     24  C   UNL     1      -6.370  -7.236  -3.535  0.00  0.00    +0.002 A 
ATOM     25  C   UNL     1      -7.219  -6.181  -3.585  0.00  0.00    +0.026 A 
ATOM     26  C   UNL     1      -7.262  -5.258  -2.507  0.00  0.00    +0.043 A 
ATOM     27  N   UNL     1      -7.985  -4.174  -2.317  0.00  0.00    -0.380 N 
ATOM     28  C   UNL     1      -7.641  -3.585  -1.019  0.00  0.00    +0.150 C 
ATOM     29  H   UNL     1      -8.643  -3.822  -2.936  0.00  0.00    +0.160 HD
ENDBRANCH  19  20
ENDBRANCH  16  18
ENDBRANCH   2  14
BRANCH   2  30
ATOM     30  N   UNL     1      -5.777  -2.058   6.091  0.00  0.00    -0.277 N 
ATOM     31  C   UNL     1      -7.080  -2.396   6.148  0.00  0.00    +0.248 C 
ATOM     32  O   UNL     1      -7.694  -2.623   5.123  0.00  0.00    -0.270 OA
ATOM     33  H   UNL     1      -5.271  -1.940   6.910  0.00  0.00    +0.155 HD
BRANCH  31  34
ATOM     34  C   UNL     1      -7.763  -2.491   7.455  0.00  0.00    +0.037 A 
ATOM     35  C   UNL     1      -7.063  -2.227   8.633  0.00  0.00    +0.013 A 
ATOM     36  C   UNL     1      -7.706  -2.317   9.850  0.00  0.00    +0.001 A 
ATOM     37  C   UNL     1      -9.043  -2.669   9.904  0.00  0.00    +0.000 A 
ATOM     38  C   UNL     1      -9.743  -2.933   8.741  0.00  0.00    +0.001 A 
ATOM     39  C   UNL     1      -9.113  -2.841   7.517  0.00  0.00    +0.013 A 
ENDBRANCH  31  34
ENDBRANCH   2  30
TORSDOF 9
