REMARK  Name = ZINC38053954
REMARK  4 active torsions:
REMARK  status: ('A' for Active; 'I' for Inactive)
REMARK    1  A    between atoms: C_3  and  N_12
REMARK    2  A    between atoms: C_4  and  N_11
REMARK    3  A    between atoms: C_6  and  S_7
REMARK    4  A    between atoms: S_7  and  N_10
REMARK                            x       y       z     vdW  Elec       q    Type
REMARK                         _______ _______ _______ _____ _____    ______ ____
ROOT
ATOM      1  C   UNL     1      -0.007   1.380  -0.146  0.00  0.00    +0.031 A 
ATOM      2  C   UNL     1       1.185   2.079  -0.180  0.00  0.00    +0.031 A 
ATOM      3  C   UNL     1       2.388   1.405  -0.038  0.00  0.00    +0.086 A 
ATOM      4  C   UNL     1       2.391   0.021   0.137  0.00  0.00    +0.052 A 
ATOM      5  C   UNL     1       1.190  -0.672   0.169  0.00  0.00    +0.053 A 
ATOM      6  C   UNL     1      -0.005   0.009   0.027  0.00  0.00    +0.107 A 
ENDROOT
BRANCH   3   7
ATOM      7  N   UNL     1       3.599   2.112  -0.072  0.00  0.00    -0.237 N 
ATOM      8  C   UNL     1       3.881   3.248   0.616  0.00  0.00    +0.129 A 
ATOM      9  C   UNL     1       5.150   3.609   0.308  0.00  0.00    +0.056 A 
ATOM     10  C   UNL     1       5.660   2.668  -0.593  0.00  0.00    +0.150 A 
ATOM     11  N   UNL     1       4.735   1.769  -0.817  0.00  0.00    -0.174 NA
ATOM     12 BR   UNL     1       6.070   5.119   0.978  0.00  0.00    -0.047 Br
ENDBRANCH   3   7
BRANCH   6  13
ATOM     13  S   UNL     1      -1.529  -0.874   0.068  0.00  0.00    +0.056 S 
ATOM     14  O   UNL     1      -1.284  -2.075   0.787  0.00  0.00    -0.153 OA
ATOM     15  O   UNL     1      -2.528   0.058   0.460  0.00  0.00    -0.153 OA
BRANCH  13  16
ATOM     16  N   UNL     1      -1.880  -1.318  -1.488  0.00  0.00    -0.204 NA
ATOM     17  H   UNL     1      -2.385  -2.128  -1.660  0.00  0.00    +0.144 HD
ATOM     18  H   UNL     1      -1.582  -0.767  -2.229  0.00  0.00    +0.144 HD
ENDBRANCH  13  16
ENDBRANCH   6  13
BRANCH   4  19
ATOM     19  N   UNL     1       3.600  -0.665   0.279  0.00  0.00    -0.356 N 
ATOM     20  H   UNL     1       4.432  -0.172   0.349  0.00  0.00    +0.142 HD
ATOM     21  H   UNL     1       3.607  -1.635   0.308  0.00  0.00    +0.142 HD
ENDBRANCH   4  19
TORSDOF 4
