REMARK  Name = ZINC40687581
REMARK  6 active torsions:
REMARK  status: ('A' for Active; 'I' for Inactive)
REMARK    1  A    between atoms: C_4  and  N_7
REMARK    2  A    between atoms: N_7  and  C_8
REMARK    3  A    between atoms: N_7  and  N_14
REMARK    4  A    between atoms: C_16  and  N_28
REMARK    5  A    between atoms: C_17  and  N_21
REMARK    6  A    between atoms: N_21  and  C_22
REMARK                            x       y       z     vdW  Elec       q    Type
REMARK                         _______ _______ _______ _____ _____    ______ ____
ROOT
ATOM      1  N   UNL     1       5.323  -0.589  -0.578  0.00  0.00    -0.242 N 
ATOM      2  C   UNL     1       6.146  -0.009   0.380  0.00  0.00    +0.161 A 
ATOM      3  C   UNL     1       7.158   0.876   0.003  0.00  0.00    +0.105 A 
ATOM      4  C   UNL     1       7.956   1.431   1.005  0.00  0.00    +0.126 A 
ATOM      5  N   UNL     1       7.723   1.097   2.272  0.00  0.00    -0.333 N 
ATOM      6  C   UNL     1       6.758   0.256   2.585  0.00  0.00    +0.200 A 
ATOM      7  N   UNL     1       5.979  -0.285   1.670  0.00  0.00    -0.219 NA
ATOM      8  H   UNL     1       5.452  -0.383  -1.517  0.00  0.00    +0.172 HD
ATOM      9  H   UNL     1       8.272   1.477   2.976  0.00  0.00    +0.168 HD
ENDROOT
BRANCH   3  10
ATOM     10  N   UNL     1       7.368   1.200  -1.347  0.00  0.00    -0.353 N 
ATOM     11  H   UNL     1       6.806   0.806  -2.033  0.00  0.00    +0.143 HD
ATOM     12  H   UNL     1       8.075   1.816  -1.594  0.00  0.00    +0.143 HD
ENDBRANCH   3  10
BRANCH   4  13
ATOM     13  N   UNL     1       8.978   2.318   0.684  0.00  0.00    -0.299 N 
ATOM     14  H   UNL     1       9.082   2.629  -0.229  0.00  0.00    +0.154 HD
BRANCH  13  15
ATOM     15  C   UNL     1       9.852   2.760   1.674  0.00  0.00    +0.035 A 
ATOM     16  C   UNL     1      10.312   1.890   2.664  0.00  0.00    +0.043 A 
ATOM     17  C   UNL     1      11.177   2.367   3.626  0.00  0.00    +0.112 A 
ATOM     18  N   UNL     1      11.570   3.627   3.618  0.00  0.00    -0.263 NA
ATOM     19  C   UNL     1      11.158   4.481   2.699  0.00  0.00    +0.112 A 
ATOM     20  C   UNL     1      10.296   4.082   1.699  0.00  0.00    +0.043 A 
ENDBRANCH  13  15
ENDBRANCH   4  13
BRANCH   1  21
ATOM     21  N   UNL     1       4.308  -1.472  -0.188  0.00  0.00    -0.221 N 
BRANCH  21  25
ATOM     22  C   UNL     1       0.832   0.001   1.571  0.00  0.00    +0.000 A 
ATOM     23  C   UNL     1       1.058  -1.362   1.527  0.00  0.00    +0.002 A 
ATOM     24  C   UNL     1       2.210  -1.854   0.944  0.00  0.00    +0.025 A 
ATOM     25  C   UNL     1       3.141  -0.978   0.402  0.00  0.00    +0.053 A 
ATOM     26  C   UNL     1       2.910   0.392   0.447  0.00  0.00    +0.025 A 
ATOM     27  C   UNL     1       1.757   0.877   1.032  0.00  0.00    +0.002 A 
ENDBRANCH  21  25
BRANCH  21  28
ATOM     28  C   UNL     1       4.461  -2.846  -0.388  0.00  0.00    +0.053 A 
ATOM     29  C   UNL     1       3.462  -3.573  -1.024  0.00  0.00    +0.025 A 
ATOM     30  C   UNL     1       3.617  -4.931  -1.220  0.00  0.00    +0.002 A 
ATOM     31  C   UNL     1       4.765  -5.568  -0.784  0.00  0.00    +0.000 A 
ATOM     32  C   UNL     1       5.761  -4.847  -0.150  0.00  0.00    +0.002 A 
ATOM     33  C   UNL     1       5.615  -3.488   0.044  0.00  0.00    +0.025 A 
ENDBRANCH  21  28
ENDBRANCH   1  21
TORSDOF 6
