REMARK  Name = ZINC39486876
REMARK  9 active torsions:
REMARK  status: ('A' for Active; 'I' for Inactive)
REMARK    1  A    between atoms: C_1  and  C_2
REMARK    2  A    between atoms: C_2  and  C_31
REMARK    3  A    between atoms: N_4  and  O_30
REMARK    4  A    between atoms: N_7  and  C_8
REMARK    5  A    between atoms: C_8  and  C_9
REMARK    6  A    between atoms: C_9  and  C_24
REMARK    7  A    between atoms: N_12  and  S_15
REMARK    8  A    between atoms: S_15  and  C_18
REMARK    9  A    between atoms: C_31  and  C_32
REMARK                            x       y       z     vdW  Elec       q    Type
REMARK                         _______ _______ _______ _____ _____    ______ ____
ROOT
ATOM      1  C   UNL     1       2.150   0.812   2.475  0.00  0.00    -0.008 C 
ATOM      2  C   UNL     1       1.271   1.929   1.907  0.00  0.00    +0.026 C 
ATOM      3  C   UNL     1      -0.147   1.394   1.684  0.00  0.00    +0.110 C 
ATOM      4  N   UNL     1      -0.640   0.821   2.944  0.00  0.00    -0.177 NA
ATOM      5  C   UNL     1       0.173  -0.197   3.623  0.00  0.00    +0.110 C 
ATOM      6  C   UNL     1       1.588   0.355   3.824  0.00  0.00    +0.026 C 
ENDROOT
BRANCH   1   7
ATOM      7  C   UNL     1       3.575   1.332   2.666  0.00  0.00    -0.003 C 
ATOM      8  C   UNL     1       4.386   0.315   3.471  0.00  0.00    +0.004 C 
ATOM      9  C   UNL     1       5.812   0.835   3.662  0.00  0.00    +0.000 C 
ATOM     10  C   UNL     1       5.772   2.166   4.416  0.00  0.00    +0.000 C 
ATOM     11  C   UNL     1       4.962   3.184   3.612  0.00  0.00    +0.000 C 
ATOM     12  C   UNL     1       3.536   2.663   3.420  0.00  0.00    +0.004 C 
ENDBRANCH   1   7
BRANCH   4  13
ATOM     13  S   UNL     1      -2.084   1.314   3.588  0.00  0.00    +0.061 S 
ATOM     14  O   UNL     1      -2.020   1.046   4.982  0.00  0.00    -0.153 OA
ATOM     15  O   UNL     1      -2.335   2.614   3.072  0.00  0.00    -0.153 OA
BRANCH  13  16
ATOM     16  C   UNL     1      -3.334   0.261   2.929  0.00  0.00    +0.105 A 
ATOM     17  C   UNL     1      -3.972   0.599   1.751  0.00  0.00    +0.028 A 
ATOM     18  C   UNL     1      -4.953  -0.227   1.234  0.00  0.00    +0.002 A 
ATOM     19  C   UNL     1      -5.295  -1.391   1.897  0.00  0.00    +0.000 A 
ATOM     20  C   UNL     1      -4.656  -1.730   3.075  0.00  0.00    +0.002 A 
ATOM     21  C   UNL     1      -3.673  -0.905   3.589  0.00  0.00    +0.028 A 
ENDBRANCH  13  16
ENDBRANCH   4  13
BRANCH   1  22
ATOM     22  C   UNL     1       2.164  -0.370   1.503  0.00  0.00    +0.117 C 
BRANCH  22  29
ATOM     23  C   UNL     1       5.121   0.232   0.555  0.00  0.00    +0.034 C 
ATOM     24  C   UNL     1       3.999  -0.282  -0.349  0.00  0.00    +0.058 C 
ATOM     25  C   UNL     1       4.030   0.438  -1.712  0.00  0.00    +0.167 C 
ATOM     26  N   UNL     1       2.729   1.120  -1.779  0.00  0.00    -0.165 N 
ATOM     27  C   UNL     1       2.038   0.861  -0.661  0.00  0.00    +0.328 C 
ATOM     28  O   UNL     1       0.924   1.303  -0.453  0.00  0.00    -0.250 OA
ATOM     29  N   UNL     1       2.684   0.071   0.206  0.00  0.00    -0.276 N 
BRANCH  26  30
ATOM     30  O   UNL     1       2.279   1.924  -2.854  0.00  0.00    -0.291 OA
ATOM     31  H   UNL     1       1.395   2.294  -2.725  0.00  0.00    +0.242 HD
ENDBRANCH  26  30
BRANCH  24  32
ATOM     32  C   UNL     1       4.114  -1.796  -0.536  0.00  0.00    +0.062 C 
BRANCH  32  33
ATOM     33  C   UNL     1       5.449  -2.127  -1.151  0.00  0.00    -0.045 A 
ATOM     34  C   UNL     1       5.583  -2.175  -2.526  0.00  0.00    +0.004 A 
ATOM     35  C   UNL     1       6.808  -2.478  -3.091  0.00  0.00    +0.000 A 
ATOM     36  C   UNL     1       7.899  -2.734  -2.280  0.00  0.00    +0.000 A 
ATOM     37  C   UNL     1       7.764  -2.685  -0.905  0.00  0.00    +0.000 A 
ATOM     38  C   UNL     1       6.540  -2.377  -0.341  0.00  0.00    +0.004 A 
ENDBRANCH  32  33
ENDBRANCH  24  32
ENDBRANCH  22  29
ENDBRANCH   1  22
TORSDOF 8
