REMARK  Name = ZINC06533219
REMARK  6 active torsions:
REMARK  status: ('A' for Active; 'I' for Inactive)
REMARK    1  A    between atoms: C_1  and  C_2
REMARK    2  A    between atoms: C_2  and  C_4
REMARK    3  A    between atoms: C_2  and  S_15
REMARK    4  A    between atoms: C_4  and  C_6
REMARK    5  A    between atoms: S_15  and  C_16
REMARK    6  A    between atoms: C_20  and  N_22
REMARK                            x       y       z     vdW  Elec       q    Type
REMARK                         _______ _______ _______ _____ _____    ______ ____
ROOT
ATOM      1  C   UNL     1       2.979   4.479   1.434  0.00  0.00    +0.028 C 
ATOM      2  C   UNL     1       2.463   4.334   0.001  0.00  0.00    +0.122 C 
ENDROOT
BRANCH   2   3
ATOM      3  C   UNL     1       1.166   3.566   0.009  0.00  0.00    +0.176 C 
ATOM      4  O   UNL     1       0.110   4.160   0.022  0.00  0.00    -0.291 OA
BRANCH   3   5
ATOM      5  C   UNL     1       1.183   2.094   0.002  0.00  0.00    +0.019 A 
ATOM      6  C   UNL     1       2.399   1.404  -0.014  0.00  0.00    +0.012 A 
ATOM      7  C   UNL     1       2.403   0.026  -0.021  0.00  0.00    +0.004 A 
ATOM      8  C   UNL     1       1.210  -0.680  -0.013  0.00  0.00    -0.044 A 
ATOM      9  C   UNL     1       0.002  -0.004   0.002  0.00  0.00    -0.044 A 
ATOM     10  C   UNL     1      -0.017   1.377   0.010  0.00  0.00    +0.015 A 
ATOM     11  C   UNL     1      -1.140  -0.998   0.008  0.00  0.00    +0.036 C 
ATOM     12  C   UNL     1      -0.516  -2.334  -0.447  0.00  0.00    +0.009 C 
ATOM     13  C   UNL     1       0.958  -2.174  -0.018  0.00  0.00    +0.036 C 
ENDBRANCH   3   5
ENDBRANCH   2   3
BRANCH   2  14
ATOM     14  S   UNL     1       2.187   5.975  -0.710  0.00  0.00    -0.075 S 
BRANCH  14  15
ATOM     15  C   UNL     1       3.842   6.579  -0.738  0.00  0.00    +0.192 A 
ATOM     16  N   UNL     1       4.819   5.806  -0.284  0.00  0.00    -0.207 NA
ATOM     17  C   UNL     1       6.081   6.226  -0.295  0.00  0.00    +0.122 A 
ATOM     18  C   UNL     1       6.367   7.499  -0.780  0.00  0.00    +0.086 A 
ATOM     19  C   UNL     1       5.315   8.284  -1.242  0.00  0.00    +0.122 A 
ATOM     20  N   UNL     1       4.078   7.796  -1.206  0.00  0.00    -0.207 NA
ATOM     21  N   UNL     1       7.097   5.409   0.176  0.00  0.00    -0.343 N 
ATOM     22  H   UNL     1       8.015   5.724   0.169  0.00  0.00    +0.144 HD
ATOM     23  H   UNL     1       6.891   4.523   0.512  0.00  0.00    +0.144 HD
BRANCH  19  24
ATOM     24  N   UNL     1       5.553   9.558  -1.734  0.00  0.00    -0.343 N 
ATOM     25  H   UNL     1       4.815  10.100  -2.055  0.00  0.00    +0.144 HD
ATOM     26  H   UNL     1       6.457   9.908  -1.758  0.00  0.00    +0.144 HD
ENDBRANCH  19  24
ENDBRANCH  14  15
ENDBRANCH   2  14
TORSDOF 5
