REMARK  Name = ZINC02707358
REMARK  7 active torsions:
REMARK  status: ('A' for Active; 'I' for Inactive)
REMARK    1  A    between atoms: C_1  and  C_2
REMARK    2  A    between atoms: C_6  and  C_8
REMARK    3  A    between atoms: C_25  and  C_27
REMARK    4  A    between atoms: C_31  and  O_35
REMARK    5  A    between atoms: C_32  and  O_33
REMARK    6  A    between atoms: O_33  and  C_34
REMARK    7  A    between atoms: O_35  and  C_36
REMARK                            x       y       z     vdW  Elec       q    Type
REMARK                         _______ _______ _______ _____ _____    ______ ____
ROOT
ATOM      1  C   UNL     1      -1.121  -1.969   0.720  0.00  0.00    +0.234 C 
ATOM      2  C   UNL     1      -0.204  -3.124   0.388  0.00  0.00    +0.025 C 
ATOM      3  C   UNL     1       1.078  -2.877   0.111  0.00  0.00    +0.050 C 
ATOM      4  C   UNL     1       1.543  -1.469   0.118  0.00  0.00    +0.038 A 
ATOM      5  C   UNL     1       2.893  -1.149   0.178  0.00  0.00    +0.013 A 
ATOM      6  C   UNL     1       3.279   0.177   0.178  0.00  0.00    +0.001 A 
ATOM      7  C   UNL     1       2.329   1.182   0.120  0.00  0.00    +0.004 A 
ATOM      8  C   UNL     1       0.982   0.872   0.061  0.00  0.00    +0.046 A 
ATOM      9  C   UNL     1       0.582  -0.451   0.060  0.00  0.00    +0.131 A 
ATOM     10  O   UNL     1      -0.730  -0.797   0.007  0.00  0.00    -0.479 OA
ATOM     11  N   UNL     1       1.985  -3.897  -0.197  0.00  0.00    -0.283 N 
ATOM     12  C   UNL     1       1.460  -5.146  -0.493  0.00  0.00    +0.219 A 
ATOM     13  N   UNL     1       2.018  -6.194  -1.034  0.00  0.00    -0.201 NA
ATOM     14  C   UNL     1       1.117  -7.176  -1.139  0.00  0.00    +0.247 A 
ATOM     15  N   UNL     1      -0.030  -6.761  -0.661  0.00  0.00    -0.156 NA
ATOM     16  N   UNL     1       0.164  -5.448  -0.230  0.00  0.00    -0.221 N 
ATOM     17  C   UNL     1      -0.775  -4.520   0.388  0.00  0.00    +0.176 C 
ATOM     18  H   UNL     1       2.941  -3.737  -0.205  0.00  0.00    +0.155 HD
ENDROOT
BRANCH   1  24
ATOM     19  C   UNL     1      -3.205  -2.207   5.264  0.00  0.00    +0.044 C 
ATOM     20  C   UNL     1      -2.056  -1.809   4.375  0.00  0.00    -0.050 A 
ATOM     21  C   UNL     1      -0.944  -1.191   4.917  0.00  0.00    +0.003 A 
ATOM     22  C   UNL     1       0.111  -0.826   4.101  0.00  0.00    +0.001 A 
ATOM     23  C   UNL     1       0.055  -1.082   2.744  0.00  0.00    +0.007 A 
ATOM     24  C   UNL     1      -1.059  -1.695   2.201  0.00  0.00    -0.003 A 
ATOM     25  C   UNL     1      -2.113  -2.061   3.017  0.00  0.00    +0.011 A 
ENDBRANCH   1  24
BRANCH  17  26
ATOM     26  C   UNL     1      -1.041  -4.951   1.808  0.00  0.00    +0.027 A 
ATOM     27  C   UNL     1      -0.002  -5.013   2.718  0.00  0.00    +0.010 A 
ATOM     28  C   UNL     1      -0.242  -5.408   4.020  0.00  0.00    +0.004 A 
ATOM     29  C   UNL     1      -1.523  -5.742   4.419  0.00  0.00    +0.049 A 
ATOM     30  C   UNL     1      -2.569  -5.681   3.513  0.00  0.00    +0.162 A 
ATOM     31  C   UNL     1      -2.328  -5.279   2.202  0.00  0.00    +0.167 A 
BRANCH  31  32
ATOM     32  O   UNL     1      -3.352  -5.213   1.310  0.00  0.00    -0.491 OA
ATOM     33  C   UNL     1      -3.632  -6.394   0.556  0.00  0.00    +0.277 C 
ENDBRANCH  31  32
BRANCH  30  34
ATOM     34  O   UNL     1      -3.830  -6.008   3.904  0.00  0.00    -0.491 OA
ATOM     35  C   UNL     1      -4.004  -6.407   5.265  0.00  0.00    +0.277 C 
ENDBRANCH  30  34
ENDBRANCH  17  26
TORSDOF 4
