REMARK  Name = ZINC37498790
REMARK  6 active torsions:
REMARK  status: ('A' for Active; 'I' for Inactive)
REMARK    1  A    between atoms: C_1  and  C_2
REMARK    2  A    between atoms: C_2  and  C_4
REMARK    3  A    between atoms: C_2  and  N_14
REMARK    4  A    between atoms: C_7  and  S_10
REMARK    5  A    between atoms: S_10  and  N_13
REMARK    6  A    between atoms: C_15  and  C_17
REMARK                            x       y       z     vdW  Elec       q    Type
REMARK                         _______ _______ _______ _____ _____    ______ ____
ROOT
ATOM      1  C   UNL     1      -0.019   1.526   0.010  0.00  0.00    +0.033 C 
ATOM      2  C   UNL     1       0.002  -0.004   0.002  0.00  0.00    +0.100 C 
ENDROOT
BRANCH   2   3
ATOM      3  C   UNL     1      -1.412  -0.526   0.013  0.00  0.00    -0.027 A 
ATOM      4  C   UNL     1      -2.123  -0.571   1.197  0.00  0.00    +0.007 A 
ATOM      5  C   UNL     1      -3.420  -1.049   1.207  0.00  0.00    +0.029 A 
ATOM      6  C   UNL     1      -4.006  -1.482   0.032  0.00  0.00    +0.105 A 
ATOM      7  C   UNL     1      -3.295  -1.436  -1.153  0.00  0.00    +0.029 A 
ATOM      8  C   UNL     1      -2.000  -0.954  -1.163  0.00  0.00    +0.007 A 
BRANCH   6   9
ATOM      9  S   UNL     1      -5.658  -2.093   0.045  0.00  0.00    +0.056 S 
ATOM     10  O   UNL     1      -5.785  -2.944  -1.086  0.00  0.00    -0.153 OA
ATOM     11  O   UNL     1      -5.915  -2.542   1.369  0.00  0.00    -0.153 OA
BRANCH   9  12
ATOM     12  N   UNL     1      -6.660  -0.801  -0.219  0.00  0.00    -0.204 NA
ATOM     13  H   UNL     1      -6.286   0.085  -0.345  0.00  0.00    +0.144 HD
ATOM     14  H   UNL     1      -7.621  -0.931  -0.249  0.00  0.00    +0.144 HD
ENDBRANCH   9  12
ENDBRANCH   6   9
ENDBRANCH   2   3
BRANCH   2  15
ATOM     15  N   UNL     1       0.711  -0.489   1.189  0.00  0.00    -0.305 N 
ATOM     16  C   UNL     1       2.054  -0.600   1.174  0.00  0.00    +0.245 C 
ATOM     17  O   UNL     1       2.678  -0.296   0.174  0.00  0.00    -0.270 OA
ATOM     18  H   UNL     1       0.213  -0.731   1.986  0.00  0.00    +0.150 HD
BRANCH  16  19
ATOM     19  C   UNL     1       2.766  -1.087   2.366  0.00  0.00    +0.045 A 
ATOM     20  C   UNL     1       4.203  -1.214   2.389  0.00  0.00    +0.036 A 
ATOM     21  C   UNL     1       4.732  -1.672   3.542  0.00  0.00    +0.056 A 
ATOM     22  S   UNL     1       3.302  -1.925   4.570  0.00  0.00    -0.089 S 
ATOM     23  C   UNL     1       2.092  -1.439   3.514  0.00  0.00    +0.059 A 
ATOM     24 BR   UNL     1       6.551  -1.974   3.963  0.00  0.00    -0.043 Br
ENDBRANCH  16  19
ENDBRANCH   2  15
TORSDOF 5
