REMARK  Name = ZINC18196398
REMARK  3 active torsions:
REMARK  status: ('A' for Active; 'I' for Inactive)
REMARK    1  A    between atoms: C_3  and  C_6
REMARK    2  A    between atoms: C_11  and  C_21
REMARK    3  A    between atoms: C_18  and  O_19
REMARK                            x       y       z     vdW  Elec       q    Type
REMARK                         _______ _______ _______ _____ _____    ______ ____
ROOT
ATOM      1  C   UNL     1      -4.458   0.665  -3.783  0.00  0.00    +0.039 C 
ATOM      2  C   UNL     1      -3.539  -0.471  -3.332  0.00  0.00    +0.060 C 
ATOM      3  C   UNL     1      -3.122  -0.248  -1.895  0.00  0.00    +0.017 C 
ATOM      4  C   UNL     1      -2.980   1.002  -1.403  0.00  0.00    +0.027 C 
ATOM      5  C   UNL     1      -2.536   1.268   0.019  0.00  0.00    +0.128 C 
ATOM      6  C   UNL     1      -2.634   0.004   0.825  0.00  0.00    +0.070 A 
ATOM      7  C   UNL     1      -2.799  -1.225   0.244  0.00  0.00    +0.126 A 
ATOM      8  N   UNL     1      -2.845  -2.142   1.228  0.00  0.00    -0.260 N 
ATOM      9  H   UNL     1      -2.956  -3.129   1.111  0.00  0.00    +0.190 HD
ATOM     10  N   UNL     1      -2.708  -1.465   2.451  0.00  0.00    -0.134 NA
ATOM     11  C   UNL     1      -2.582  -0.179   2.203  0.00  0.00    +0.237 A 
ATOM     12  N   UNL     1      -2.895  -1.368  -1.135  0.00  0.00    -0.303 N 
ATOM     13  C   UNL     1      -3.246   2.127  -2.204  0.00  0.00    +0.162 C 
ATOM     14  O   UNL     1      -3.104   3.238  -1.732  0.00  0.00    -0.292 OA
ATOM     15  C   UNL     1      -3.700   1.988  -3.630  0.00  0.00    +0.088 C 
ATOM     16  H   UNL     1      -2.802  -2.239  -1.551  0.00  0.00    +0.153 HD
ENDROOT
BRANCH   5  17
ATOM     17  C   UNL     1      -1.109   1.752   0.016  0.00  0.00    +0.119 A 
ATOM     18  N   UNL     1      -0.011   0.966   0.007  0.00  0.00    -0.348 N 
ATOM     19  H   UNL     1       0.003  -0.034   0.006  0.00  0.00    +0.167 HD
ATOM     20  C   UNL     1       1.079   1.793   0.001  0.00  0.00    +0.104 A 
ATOM     21  C   UNL     1       0.611   3.055   0.013  0.00  0.00    +0.130 A 
ATOM     22  N   UNL     1      -0.729   3.001   0.025  0.00  0.00    -0.240 NA
ENDBRANCH   5  17
BRANCH   1  25
ATOM     23  C   UNL     1      -6.192   0.150  -7.136  0.00  0.00    +0.008 A 
ATOM     24  C   UNL     1      -6.076   0.321  -5.769  0.00  0.00    +0.011 A 
ATOM     25  C   UNL     1      -4.843   0.464  -5.226  0.00  0.00    -0.006 A 
ATOM     26  S   UNL     1      -3.791   0.345  -6.664  0.00  0.00    -0.101 S 
ATOM     27  C   UNL     1      -5.067   0.120  -7.892  0.00  0.00    +0.045 A 
ENDBRANCH   1  25
BRANCH  11  28
ATOM     28  O   UNL     1      -2.428   0.801   3.133  0.00  0.00    -0.491 OA
ATOM     29  H   UNL     1      -2.425   0.395   4.047  0.00  0.00    +0.294 HD
ENDBRANCH  11  28
TORSDOF 3
