REMARK  Name = ZINC67554653
REMARK  9 active torsions:
REMARK  status: ('A' for Active; 'I' for Inactive)
REMARK    1  A    between atoms: C_1  and  C_2
REMARK    2  A    between atoms: C_2  and  C_3
REMARK    3  A    between atoms: C_2  and  C_4
REMARK    4  A    between atoms: N_6  and  C_7
REMARK    5  A    between atoms: C_10  and  C_13
REMARK    6  A    between atoms: C_13  and  N_14
REMARK    7  A    between atoms: N_17  and  C_18
REMARK    8  A    between atoms: N_23  and  S_25
REMARK    9  A    between atoms: S_25  and  C_28
REMARK                            x       y       z     vdW  Elec       q    Type
REMARK                         _______ _______ _______ _____ _____    ______ ____
ROOT
ATOM      1  N   UNL     1       4.328  -0.814   7.258  0.00  0.00    -0.295 N 
ATOM      2  C   UNL     1       5.173  -0.992   8.292  0.00  0.00    +0.300 C 
ATOM      3  O   UNL     1       5.141  -2.025   8.933  0.00  0.00    -0.253 OA
ATOM      4  N   UNL     1       6.054  -0.025   8.616  0.00  0.00    -0.295 N 
ATOM      5  H   UNL     1       4.354   0.010   6.746  0.00  0.00    +0.151 HD
ATOM      6  H   UNL     1       6.080   0.798   8.104  0.00  0.00    +0.151 HD
ENDROOT
BRANCH   4   7
ATOM      7  C   UNL     1       6.973  -0.219   9.740  0.00  0.00    +0.090 C 
ATOM      8  C   UNL     1       6.279   0.184  11.043  0.00  0.00    +0.025 C 
ATOM      9  C   UNL     1       7.227  -0.048  12.222  0.00  0.00    +0.019 C 
ATOM     10  C   UNL     1       8.474   0.824  12.049  0.00  0.00    +0.109 C 
ATOM     11  N   UNL     1       9.067   0.546  10.733  0.00  0.00    -0.180 NA
ATOM     12  C   UNL     1       8.218   0.651   9.539  0.00  0.00    +0.131 C 
BRANCH  11  13
ATOM     13  S   UNL     1      10.662   0.122  10.600  0.00  0.00    +0.029 S 
ATOM     14  O   UNL     1      11.036   0.526   9.290  0.00  0.00    -0.158 OA
ATOM     15  O   UNL     1      11.287   0.695  11.741  0.00  0.00    -0.158 OA
ATOM     16  C   UNL     1      10.676  -1.688  10.723  0.00  0.00    +0.215 C 
ENDBRANCH  11  13
ENDBRANCH   4   7
BRANCH   1  17
ATOM     17  C   UNL     1       3.369  -1.865   6.905  0.00  0.00    +0.141 C 
BRANCH  17  21
ATOM     18  C   UNL     1       1.040  -0.604   3.551  0.00  0.00    +0.033 A 
ATOM     19  C   UNL     1       2.228  -1.296   3.353  0.00  0.00    +0.023 A 
ATOM     20  C   UNL     1       2.978  -1.702   4.439  0.00  0.00    +0.007 A 
ATOM     21  C   UNL     1       2.548  -1.420   5.723  0.00  0.00    -0.030 A 
ATOM     22  C   UNL     1       1.366  -0.731   5.923  0.00  0.00    +0.007 A 
ATOM     23  C   UNL     1       0.615  -0.317   4.841  0.00  0.00    +0.023 A 
BRANCH  18  26
ATOM     24  C   UNL     1      -0.391   0.979   2.498  0.00  0.00    +0.220 C 
ATOM     25  O   UNL     1      -0.400   1.633   3.520  0.00  0.00    -0.275 OA
ATOM     26  N   UNL     1       0.278  -0.191   2.453  0.00  0.00    -0.285 N 
ATOM     27  H   UNL     1       0.231  -0.746   1.659  0.00  0.00    +0.155 HD
BRANCH  24  29
ATOM     28  C   UNL     1      -2.194   0.453   0.879  0.00  0.00    +0.017 C 
ATOM     29  C   UNL     1      -1.127   1.474   1.280  0.00  0.00    +0.069 C 
ATOM     30  C   UNL     1      -1.796   2.812   1.597  0.00  0.00    +0.017 C 
ENDBRANCH  24  29
ENDBRANCH  18  26
ENDBRANCH  17  21
ENDBRANCH   1  17
TORSDOF 6
