REMARK  Name = ZINC40799906
REMARK  5 active torsions:
REMARK  status: ('A' for Active; 'I' for Inactive)
REMARK    1  A    between atoms: C_3  and  C_8
REMARK    2  A    between atoms: C_8  and  N_9
REMARK    3  A    between atoms: C_16  and  C_17
REMARK    4  A    between atoms: N_19  and  C_20
REMARK    5  A    between atoms: C_21  and  C_29
REMARK                            x       y       z     vdW  Elec       q    Type
REMARK                         _______ _______ _______ _____ _____    ______ ____
ROOT
ATOM      1  C   UNL     1       5.616   0.249   1.409  0.00  0.00    +0.265 C 
ATOM      2  O   UNL     1       6.347  -0.456   2.082  0.00  0.00    -0.268 OA
ATOM      3  N   UNL     1       5.400  -0.050   0.113  0.00  0.00    -0.274 N 
ATOM      4  H   UNL     1       4.798   0.497  -0.417  0.00  0.00    +0.156 HD
ENDROOT
BRANCH   3   5
ATOM      5  C   UNL     1       6.037  -1.136  -0.464  0.00  0.00    +0.085 A 
ATOM      6  C   UNL     1       5.940  -1.586  -1.772  0.00  0.00    +0.068 A 
ATOM      7  C   UNL     1       6.717  -2.759  -2.130  0.00  0.00    -0.023 A 
ATOM      8  C   UNL     1       7.449  -3.268  -1.115  0.00  0.00    -0.004 A 
ATOM      9  S   UNL     1       7.109  -2.207   0.259  0.00  0.00    -0.077 S 
ATOM     10  C   UNL     1       8.346  -4.465  -1.165  0.00  0.00    +0.043 C 
ATOM     11  C   UNL     1       8.024  -5.257  -2.442  0.00  0.00    +0.005 C 
ATOM     12  C   UNL     1       7.973  -4.287  -3.626  0.00  0.00    +0.005 C 
ATOM     13  C   UNL     1       6.737  -3.392  -3.513  0.00  0.00    +0.037 C 
BRANCH   6  14
ATOM     14  C   UNL     1       5.088  -0.906  -2.752  0.00  0.00    +0.244 C 
ATOM     15  O   UNL     1       5.542  -0.004  -3.432  0.00  0.00    -0.270 OA
ATOM     16  N   UNL     1       3.801  -1.278  -2.900  0.00  0.00    -0.325 N 
ATOM     17  H   UNL     1       3.439  -1.997  -2.358  0.00  0.00    +0.145 HD
ATOM     18  H   UNL     1       3.237  -0.829  -3.549  0.00  0.00    +0.145 HD
ENDBRANCH   6  14
ENDBRANCH   3   5
BRANCH   1  26
ATOM     19  N   UNL     1       4.001   2.201   1.415  0.00  0.00    -0.329 N 
ATOM     20  C   UNL     1       3.648   3.196   2.290  0.00  0.00    +0.088 A 
ATOM     21  C   UNL     1       2.821   4.323   2.503  0.00  0.00    +0.067 A 
ATOM     22  C   UNL     1       3.100   4.794   3.731  0.00  0.00    +0.198 A 
ATOM     23  O   UNL     1       4.049   4.031   4.298  0.00  0.00    -0.461 OA
ATOM     24  C   UNL     1       4.407   3.045   3.446  0.00  0.00    +0.153 A 
ATOM     25  C   UNL     1       5.236   1.933   3.260  0.00  0.00    +0.079 A 
ATOM     26  C   UNL     1       4.973   1.420   2.008  0.00  0.00    +0.109 A 
BRANCH  19  27
ATOM     27  C   UNL     1       3.438   1.998   0.078  0.00  0.00    +0.157 C 
BRANCH  27  30
ATOM     28  C   UNL     1       6.103   3.101  -2.359  0.00  0.00    +0.003 A 
ATOM     29  C   UNL     1       5.396   2.346  -1.441  0.00  0.00    +0.005 A 
ATOM     30  C   UNL     1       4.207   2.822  -0.922  0.00  0.00    -0.025 A 
ATOM     31  C   UNL     1       3.723   4.054  -1.321  0.00  0.00    +0.043 A 
ATOM     32  C   UNL     1       4.429   4.811  -2.239  0.00  0.00    +0.124 A 
ATOM     33  C   UNL     1       5.621   4.333  -2.758  0.00  0.00    +0.038 A 
ATOM     34  F   UNL     1       3.957   6.015  -2.630  0.00  0.00    -0.205 F 
ENDBRANCH  27  30
ENDBRANCH  19  27
ENDBRANCH   1  26
TORSDOF 5
