REMARK  Name = ZINC08837627
REMARK  6 active torsions:
REMARK  status: ('A' for Active; 'I' for Inactive)
REMARK    1  A    between atoms: C_1  and  C_2
REMARK    2  A    between atoms: C_7  and  N_8
REMARK    3  A    between atoms: C_9  and  C_11
REMARK    4  A    between atoms: C_12  and  N_29
REMARK    5  A    between atoms: C_14  and  C_24
REMARK    6  A    between atoms: C_23  and  N_52
REMARK                            x       y       z     vdW  Elec       q    Type
REMARK                         _______ _______ _______ _____ _____    ______ ____
ROOT
ATOM      1  C   UNL     1       2.526   0.929  -0.677  0.00  0.00    +0.097 A 
ATOM      2  C   UNL     1       3.718   1.585  -0.446  0.00  0.00    +0.054 A 
ATOM      3  C   UNL     1       4.858   0.805  -0.003  0.00  0.00    +0.037 A 
ATOM      4  C   UNL     1       6.183   1.247   0.298  0.00  0.00    +0.003 A 
ATOM      5  C   UNL     1       7.134   0.311   0.711  0.00  0.00    -0.034 A 
ATOM      6  C   UNL     1       6.787  -1.018   0.828  0.00  0.00    +0.043 A 
ATOM      7  N   UNL     1       5.554  -1.414   0.544  0.00  0.00    -0.244 NA
ATOM      8  C   UNL     1       4.620  -0.579   0.148  0.00  0.00    +0.112 A 
ATOM      9  S   UNL     1       2.910  -0.768  -0.294  0.00  0.00    -0.062 S 
ATOM     10  C   UNL     1       7.780  -2.057   1.282  0.00  0.00    +0.037 C 
ATOM     11  C   UNL     1       9.203  -1.512   1.152  0.00  0.00    -0.073 C 
ATOM     12  C   UNL     1       8.528   0.797   1.011  0.00  0.00    -0.041 C 
ATOM     13  C   UNL     1      10.650   0.226   2.022  0.00  0.00    -0.096 C 
ATOM     14  N   UNL     1       9.246  -0.197   1.825  0.00  0.00    +0.381 N 
ATOM     15  H   UNL     1       8.789  -0.274   2.741  0.00  0.00    -0.082 HD
ENDROOT
BRANCH   4  16
ATOM     16  C   UNL     1       6.541   2.671   0.175  0.00  0.00    +0.020 A 
ATOM     17  C   UNL     1       7.342   3.284  -0.755  0.00  0.00    +0.016 A 
ATOM     18  C   UNL     1       7.530   4.644  -0.671  0.00  0.00    +0.008 A 
ATOM     19  C   UNL     1       6.928   5.336   0.332  0.00  0.00    +0.046 A 
ATOM     20  S   UNL     1       6.051   4.047   1.202  0.00  0.00    -0.097 S 
ENDBRANCH   4  16
BRANCH   1  22
ATOM     21  N   UNL     1       0.225   0.671  -1.284  0.00  0.00    -0.281 N 
ATOM     22  C   UNL     1       1.293   1.475  -1.110  0.00  0.00    +0.257 C 
ATOM     23  O   UNL     1       1.198   2.670  -1.325  0.00  0.00    -0.269 OA
ATOM     24  H   UNL     1       0.318  -0.288  -1.179  0.00  0.00    +0.155 HD
BRANCH  21  31
ATOM     25  C   UNL     1      -2.118  -0.568  -0.251  0.00  0.00    +0.045 C 
ATOM     26  C   UNL     1      -2.185   0.648  -1.138  0.00  0.00    -0.029 A 
ATOM     27  C   UNL     1      -3.409   1.194  -1.473  0.00  0.00    +0.005 A 
ATOM     28  C   UNL     1      -3.471   2.310  -2.286  0.00  0.00    +0.000 A 
ATOM     29  C   UNL     1      -2.308   2.883  -2.768  0.00  0.00    +0.002 A 
ATOM     30  C   UNL     1      -1.081   2.345  -2.434  0.00  0.00    +0.023 A 
ATOM     31  C   UNL     1      -1.016   1.221  -1.621  0.00  0.00    +0.037 A 
ENDBRANCH  21  31
ENDBRANCH   1  22
BRANCH   2  32
ATOM     32  N   UNL     1       3.823   2.957  -0.632  0.00  0.00    -0.356 N 
ATOM     33  H   UNL     1       3.029   3.485  -0.807  0.00  0.00    +0.142 HD
ATOM     34  H   UNL     1       4.691   3.388  -0.586  0.00  0.00    +0.142 HD
ENDBRANCH   2  32
TORSDOF 4
