REMARK  Name = ZINC43216450
REMARK  12 active torsions:
REMARK  status: ('A' for Active; 'I' for Inactive)
REMARK    1  A    between atoms: C_1  and  C_2
REMARK    2  A    between atoms: C_2  and  C_3
REMARK    3  A    between atoms: C_2  and  C_4
REMARK    4  A    between atoms: C_4  and  C_5
REMARK    5  A    between atoms: C_5  and  C_7
REMARK    6  A    between atoms: C_5  and  N_19
REMARK    7  A    between atoms: N_9  and  C_10
REMARK    8  A    between atoms: C_13  and  N_16
REMARK    9  A    between atoms: C_20  and  C_22
REMARK   10  A    between atoms: C_25  and  C_27
REMARK   11  A    between atoms: C_27  and  C_28
REMARK   12  A    between atoms: C_28  and  N_29
REMARK                            x       y       z     vdW  Elec       q    Type
REMARK                         _______ _______ _______ _____ _____    ______ ____
ROOT
ATOM      1  C   UNL     1      -2.298  -0.011  -1.358  0.00  0.00    +0.160 C 
ENDROOT
BRANCH   1   2
ATOM      2  C   UNL     1      -3.718  -0.491  -1.200  0.00  0.00    +0.238 C 
ATOM      3  O   UNL     1      -4.633   0.305  -1.217  0.00  0.00    -0.273 OA
ATOM      4  N   UNL     1      -3.971  -1.805  -1.039  0.00  0.00    -0.284 N 
ATOM      5  H   UNL     1      -3.237  -2.433  -0.950  0.00  0.00    +0.155 HD
BRANCH   4   6
ATOM      6  C   UNL     1      -5.293  -2.263  -1.000  0.00  0.00    +0.034 A 
ATOM      7  C   UNL     1      -5.617  -3.500  -1.542  0.00  0.00    +0.025 A 
ATOM      8  C   UNL     1      -6.922  -3.949  -1.502  0.00  0.00    +0.034 A 
ATOM      9  C   UNL     1      -7.906  -3.169  -0.923  0.00  0.00    +0.126 A 
ATOM     10  C   UNL     1      -7.587  -1.937  -0.383  0.00  0.00    +0.034 A 
ATOM     11  C   UNL     1      -6.282  -1.484  -0.414  0.00  0.00    +0.025 A 
BRANCH   9  12
ATOM     12  N   UNL     1      -9.304  -3.654  -0.882  0.00  0.00    +0.056 N 
ATOM     13  O   UNL     1      -9.584  -4.731  -1.354  0.00  0.00    -0.126 OA
ATOM     14  O   UNL     1     -10.165  -2.973  -0.376  0.00  0.00    -0.126 OA
ENDBRANCH   9  12
ENDBRANCH   4   6
ENDBRANCH   1   2
BRANCH   1  15
ATOM     15  N   UNL     1      -2.298   1.320  -1.971  0.00  0.00    -0.299 N 
ATOM     16  C   UNL     1      -1.249   1.718  -2.717  0.00  0.00    +0.266 C 
ATOM     17  O   UNL     1      -0.345   0.942  -2.958  0.00  0.00    -0.268 OA
ATOM     18  H   UNL     1      -3.053   1.915  -1.839  0.00  0.00    +0.150 HD
BRANCH  16  19
ATOM     19  C   UNL     1      -1.198   3.095  -3.241  0.00  0.00    +0.163 A 
ATOM     20  C   UNL     1      -0.210   3.632  -4.009  0.00  0.00    +0.230 A 
ATOM     21  O   UNL     1      -0.559   4.903  -4.263  0.00  0.00    -0.447 OA
ATOM     22  C   UNL     1      -1.734   5.143  -3.664  0.00  0.00    +0.194 A 
ATOM     23  N   UNL     1      -2.131   4.067  -3.053  0.00  0.00    -0.209 NA
BRANCH  22  24
ATOM     24  C   UNL     1      -2.480   6.452  -3.700  0.00  0.00    +0.076 C 
BRANCH  24  25
ATOM     25  C   UNL     1      -2.039   7.322  -2.521  0.00  0.00    -0.077 C 
BRANCH  25  26
ATOM     26  N   UNL     1      -2.766   8.598  -2.555  0.00  0.00    +0.378 N 
ATOM     27  H   UNL     1      -2.565   9.076  -3.421  0.00  0.00    -0.090 HD
ATOM     28  H   UNL     1      -3.758   8.422  -2.491  0.00  0.00    -0.090 HD
ATOM     29  H   UNL     1      -2.475   9.172  -1.778  0.00  0.00    -0.090 HD
ENDBRANCH  25  26
ENDBRANCH  24  25
ENDBRANCH  22  24
ENDBRANCH  16  19
ENDBRANCH   1  15
BRANCH   1  30
ATOM     30  C   UNL     1      -1.628   0.060   0.015  0.00  0.00    +0.034 C 
BRANCH  30  32
ATOM     31  C   UNL     1      -0.548  -2.178  -0.246  0.00  0.00    +0.007 C 
ATOM     32  C   UNL     1      -1.516  -1.349   0.601  0.00  0.00    -0.015 C 
ATOM     33  C   UNL     1      -0.993  -1.264   2.037  0.00  0.00    +0.007 C 
ENDBRANCH  30  32
ENDBRANCH   1  30
TORSDOF 10
