REMARK  Name = ZINC03037273
REMARK  10 active torsions:
REMARK  status: ('A' for Active; 'I' for Inactive)
REMARK    1  A    between atoms: C_1  and  C_2
REMARK    2  A    between atoms: C_4  and  C_35
REMARK    3  A    between atoms: C_6  and  N_8
REMARK    4  A    between atoms: N_8  and  C_9
REMARK    5  A    between atoms: C_9  and  N_11
REMARK    6  A    between atoms: N_11  and  N_12
REMARK    7  A    between atoms: C_16  and  S_26
REMARK    8  A    between atoms: N_20  and  C_23
REMARK    9  A    between atoms: C_23  and  C_24
REMARK   10  A    between atoms: S_26  and  N_29
REMARK                            x       y       z     vdW  Elec       q    Type
REMARK                         _______ _______ _______ _____ _____    ______ ____
ROOT
ATOM      1  N   UNL     1       0.281  -4.220   4.702  0.00  0.00    -0.175 NA
ATOM      2  C   UNL     1       0.394  -4.887   5.826  0.00  0.00    +0.153 C 
ATOM      3  C   UNL     1       0.435  -6.357   6.002  0.00  0.00    +0.030 A 
ATOM      4  C   UNL     1       0.374  -7.425   5.114  0.00  0.00    +0.040 A 
ATOM      5  C   UNL     1       0.439  -8.718   5.593  0.00  0.00    +0.106 A 
ATOM      6  C   UNL     1       0.565  -8.950   6.952  0.00  0.00    +0.030 A 
ATOM      7  C   UNL     1       0.626  -7.896   7.842  0.00  0.00    +0.026 A 
ATOM      8  C   UNL     1       0.562  -6.587   7.378  0.00  0.00    +0.046 A 
ATOM      9  N   UNL     1       0.600  -5.367   8.046  0.00  0.00    -0.262 N 
ATOM     10  C   UNL     1       0.512  -4.335   7.189  0.00  0.00    +0.272 C 
ATOM     11  O   UNL     1       0.525  -3.155   7.486  0.00  0.00    -0.268 OA
ENDROOT
BRANCH   5  12
ATOM     12  S   UNL     1       0.362 -10.076   4.473  0.00  0.00    +0.061 S 
ATOM     13  O   UNL     1      -0.105 -11.192   5.218  0.00  0.00    -0.153 OA
ATOM     14  O   UNL     1      -0.304  -9.605   3.309  0.00  0.00    -0.153 OA
BRANCH  12  15
ATOM     15  N   UNL     1       1.916 -10.427   4.020  0.00  0.00    -0.172 NA
ATOM     16  C   UNL     1       2.528  -9.779   2.849  0.00  0.00    +0.137 C 
ATOM     17  C   UNL     1       3.888  -9.209   3.268  0.00  0.00    +0.177 C 
ATOM     18  O   UNL     1       4.655 -10.238   3.898  0.00  0.00    -0.377 OA
ATOM     19  C   UNL     1       4.076 -10.746   5.102  0.00  0.00    +0.177 C 
ATOM     20  C   UNL     1       2.727 -11.391   4.780  0.00  0.00    +0.137 C 
ENDBRANCH  12  15
ENDBRANCH   5  12
BRANCH   1  21
ATOM     21  N   UNL     1       0.264  -2.819   4.716  0.00  0.00    -0.217 N 
ATOM     22  H   UNL     1       0.335  -2.342   5.558  0.00  0.00    +0.176 HD
BRANCH  21  23
ATOM     23  C   UNL     1       0.148  -2.135   3.562  0.00  0.00    +0.154 C 
ATOM     24  S   UNL     1       0.127  -0.423   3.580  0.00  0.00    -0.017 S 
BRANCH  23  25
ATOM     25  N   UNL     1       0.050  -2.797   2.392  0.00  0.00    -0.296 N 
ATOM     26  H   UNL     1      -0.019  -3.765   2.387  0.00  0.00    +0.154 HD
BRANCH  25  32
ATOM     27  C   UNL     1       1.854   0.833  -0.390  0.00  0.00    +0.044 C 
ATOM     28  C   UNL     1       0.910  -0.326  -0.190  0.00  0.00    -0.048 A 
ATOM     29  C   UNL     1       0.040  -0.690  -1.201  0.00  0.00    +0.006 A 
ATOM     30  C   UNL     1      -0.828  -1.752  -1.022  0.00  0.00    -0.048 A 
ATOM     31  C   UNL     1      -0.827  -2.452   0.168  0.00  0.00    +0.026 A 
ATOM     32  C   UNL     1       0.047  -2.090   1.186  0.00  0.00    +0.033 A 
ATOM     33  C   UNL     1       0.921  -1.026   1.000  0.00  0.00    +0.026 A 
ATOM     34  C   UNL     1      -1.775  -2.144  -2.126  0.00  0.00    +0.044 C 
ENDBRANCH  25  32
ENDBRANCH  23  25
ENDBRANCH  21  23
ENDBRANCH   1  21
BRANCH   9  35
ATOM     35  C   UNL     1       0.727  -5.226   9.498  0.00  0.00    +0.140 C 
BRANCH  35  36
ATOM     36  C   UNL     1       2.186  -5.152   9.870  0.00  0.00    -0.015 C 
ATOM     37  C   UNL     1       2.632  -4.140  10.572  0.00  0.00    +0.005 C 
ENDBRANCH  35  36
ENDBRANCH   9  35
TORSDOF 8
