REMARK  Name = ZINC34807735
REMARK  16 active torsions:
REMARK  status: ('A' for Active; 'I' for Inactive)
REMARK    1  A    between atoms: C_1  and  C_2
REMARK    2  A    between atoms: C_5  and  N_8
REMARK    3  A    between atoms: C_9  and  N_17
REMARK    4  A    between atoms: C_11  and  C_13
REMARK    5  A    between atoms: C_13  and  C_14
REMARK    6  A    between atoms: C_13  and  C_15
REMARK    7  A    between atoms: C_13  and  C_16
REMARK    8  A    between atoms: C_18  and  C_20
REMARK    9  A    between atoms: C_20  and  N_21
REMARK   10  A    between atoms: N_21  and  C_22
REMARK   11  A    between atoms: C_22  and  C_23
REMARK   12  A    between atoms: C_23  and  C_24
REMARK   13  A    between atoms: C_24  and  O_25
REMARK   14  A    between atoms: O_25  and  C_26
REMARK   15  A    between atoms: C_27  and  C_29
REMARK   16  A    between atoms: C_29  and  C_31
REMARK                            x       y       z     vdW  Elec       q    Type
REMARK                         _______ _______ _______ _____ _____    ______ ____
ROOT
ATOM      1  N   UNL     1       1.458  -4.544   1.966  0.00  0.00    -0.269 N 
ATOM      2  C   UNL     1       2.041  -5.449   2.776  0.00  0.00    +0.236 C 
ATOM      3  O   UNL     1       1.908  -6.635   2.557  0.00  0.00    -0.274 OA
ATOM      4  H   UNL     1       1.565  -3.596   2.142  0.00  0.00    +0.156 HD
ENDROOT
BRANCH   1   6
ATOM      5  N   UNL     1       0.059  -4.172  -0.021  0.00  0.00    -0.218 N 
ATOM      6  C   UNL     1       0.701  -4.970   0.875  0.00  0.00    +0.129 A 
ATOM      7  C   UNL     1       0.469  -6.261   0.511  0.00  0.00    +0.069 A 
ATOM      8  C   UNL     1      -0.333  -6.247  -0.633  0.00  0.00    +0.071 A 
ATOM      9  N   UNL     1      -0.583  -5.001  -0.949  0.00  0.00    -0.169 NA
BRANCH   5  14
ATOM     10  C   UNL     1      -0.018   1.503   0.010  0.00  0.00    +0.044 C 
ATOM     11  C   UNL     1       0.002  -0.004   0.002  0.00  0.00    -0.050 A 
ATOM     12  C   UNL     1       0.006  -0.688  -1.200  0.00  0.00    +0.005 A 
ATOM     13  C   UNL     1       0.025  -2.068  -1.211  0.00  0.00    +0.028 A 
ATOM     14  C   UNL     1       0.041  -2.771  -0.013  0.00  0.00    +0.067 A 
ATOM     15  C   UNL     1       0.037  -2.082   1.192  0.00  0.00    +0.028 A 
ATOM     16  C   UNL     1       0.023  -0.700   1.196  0.00  0.00    +0.005 A 
ENDBRANCH   5  14
BRANCH   8  17
ATOM     17  C   UNL     1      -0.831  -7.460  -1.375  0.00  0.00    +0.006 C 
ATOM     18  C   UNL     1      -1.966  -8.112  -0.583  0.00  0.00    +0.017 C 
ATOM     19  C   UNL     1      -1.348  -7.039  -2.753  0.00  0.00    +0.017 C 
ATOM     20  C   UNL     1       0.314  -8.460  -1.544  0.00  0.00    +0.017 C 
ENDBRANCH   8  17
ENDBRANCH   1   6
BRANCH   2  21
ATOM     21  C   UNL     1       2.860  -4.989   3.955  0.00  0.00    +0.203 C 
BRANCH  21  22
ATOM     22  N   UNL     1       3.382  -6.155   4.672  0.00  0.00    -0.291 N 
ATOM     23  C   UNL     1       2.667  -6.707   5.672  0.00  0.00    +0.238 C 
ATOM     24  O   UNL     1       1.590  -6.239   5.978  0.00  0.00    -0.274 OA
BRANCH  23  25
ATOM     25  C   UNL     1       3.204  -7.907   6.410  0.00  0.00    +0.196 C 
ATOM     26 CL   UNL     1       2.320  -9.385   5.878  0.00  0.00    -0.107 Cl
BRANCH  25  27
ATOM     27  C   UNL     1       3.012  -7.712   7.892  0.00  0.00    -0.021 A 
ATOM     28  C   UNL     1       1.737  -7.654   8.422  0.00  0.00    +0.005 A 
ATOM     29  C   UNL     1       1.561  -7.475   9.781  0.00  0.00    +0.000 A 
ATOM     30  C   UNL     1       2.660  -7.356  10.611  0.00  0.00    +0.000 A 
ATOM     31  C   UNL     1       3.936  -7.415  10.081  0.00  0.00    +0.000 A 
ATOM     32  C   UNL     1       4.112  -7.598   8.722  0.00  0.00    +0.005 A 
ENDBRANCH  25  27
ENDBRANCH  23  25
BRANCH  22  33
ATOM     33  C   UNL     1       4.682  -6.720   4.303  0.00  0.00    +0.110 C 
BRANCH  33  34
ATOM     34  C   UNL     1       5.784  -6.043   5.121  0.00  0.00    +0.047 C 
BRANCH  34  35
ATOM     35  C   UNL     1       7.141  -6.633   4.736  0.00  0.00    +0.161 C 
BRANCH  35  36
ATOM     36  O   UNL     1       8.170  -6.002   5.500  0.00  0.00    -0.383 OA
ATOM     37  C   UNL     1       9.485  -6.483   5.215  0.00  0.00    +0.193 C 
ENDBRANCH  35  36
ENDBRANCH  34  35
ENDBRANCH  33  34
ENDBRANCH  22  33
ENDBRANCH  21  22
ENDBRANCH   2  21
TORSDOF 11
