REMARK  Name = ZINC58975658
REMARK  9 active torsions:
REMARK  status: ('A' for Active; 'I' for Inactive)
REMARK    1  A    between atoms: C_3  and  C_6
REMARK    2  A    between atoms: C_8  and  C_29
REMARK    3  A    between atoms: C_10  and  S_12
REMARK    4  A    between atoms: S_12  and  C_13
REMARK    5  A    between atoms: C_13  and  C_14
REMARK    6  A    between atoms: C_14  and  C_15
REMARK    7  A    between atoms: C_15  and  C_16
REMARK    8  A    between atoms: N_18  and  C_19
REMARK    9  A    between atoms: C_22  and  N_26
REMARK                            x       y       z     vdW  Elec       q    Type
REMARK                         _______ _______ _______ _____ _____    ______ ____
ROOT
ATOM      1  C   UNL     1       7.334   5.461   0.005  0.00  0.00    +0.078 C 
ENDROOT
BRANCH   1   2
ATOM      2  S   UNL     1       5.526   5.319   0.030  0.00  0.00    -0.086 S 
BRANCH   2   7
ATOM      3  C   UNL     1       3.734   1.827   0.049  0.00  0.00    +0.082 A 
ATOM      4  C   UNL     1       4.810   0.929   0.031  0.00  0.00    +0.061 A 
ATOM      5  C   UNL     1       6.093   1.440   0.013  0.00  0.00    +0.148 A 
ATOM      6  N   UNL     1       6.269   2.753   0.013  0.00  0.00    -0.218 NA
ATOM      7  C   UNL     1       5.234   3.581   0.030  0.00  0.00    +0.189 A 
ATOM      8  N   UNL     1       3.987   3.137   0.042  0.00  0.00    -0.221 NA
BRANCH   3  11
ATOM      9  C   UNL     1      -0.018   1.359   0.097  0.00  0.00    +0.008 A 
ATOM     10  C   UNL     1       1.174   2.045   0.081  0.00  0.00    +0.017 A 
ATOM     11  C   UNL     1       2.345   1.332   0.067  0.00  0.00    +0.038 A 
ATOM     12  S   UNL     1       1.750  -0.351   0.078  0.00  0.00    -0.095 S 
ATOM     13  C   UNL     1      -0.000  -0.000   0.099  0.00  0.00    +0.046 A 
ENDBRANCH   3  11
BRANCH   5  14
ATOM     14  C   UNL     1       7.281   0.513  -0.005  0.00  0.00    +0.434 C 
ATOM     15  F   UNL     1       7.630   0.228  -1.330  0.00  0.00    -0.164 F 
ATOM     16  F   UNL     1       8.361   1.125   0.640  0.00  0.00    -0.164 F 
ATOM     17  F   UNL     1       6.956  -0.676   0.657  0.00  0.00    -0.164 F 
ENDBRANCH   5  14
ENDBRANCH   2   7
ENDBRANCH   1   2
BRANCH   1  18
ATOM     18  C   UNL     1       7.730   6.939   0.002  0.00  0.00    +0.020 C 
BRANCH  18  19
ATOM     19  C   UNL     1       9.255   7.058  -0.019  0.00  0.00    +0.097 C 
BRANCH  19  20
ATOM     20  C   UNL     1       9.645   8.514  -0.021  0.00  0.00    +0.217 C 
ATOM     21  O   UNL     1       8.787   9.371  -0.007  0.00  0.00    -0.275 OA
ATOM     22  N   UNL     1      10.947   8.863  -0.039  0.00  0.00    -0.284 N 
ATOM     23  H   UNL     1      11.633   8.179   0.015  0.00  0.00    +0.155 HD
BRANCH  22  24
ATOM     24  C   UNL     1      11.308  10.212  -0.136  0.00  0.00    +0.052 A 
ATOM     25  C   UNL     1      10.530  11.186   0.473  0.00  0.00    +0.027 A 
ATOM     26  C   UNL     1      10.889  12.516   0.377  0.00  0.00    +0.034 A 
ATOM     27  C   UNL     1      12.024  12.878  -0.327  0.00  0.00    +0.128 A 
ATOM     28  C   UNL     1      12.802  11.911  -0.935  0.00  0.00    +0.054 A 
ATOM     29  C   UNL     1      12.451  10.578  -0.838  0.00  0.00    +0.064 A 
ATOM     30 CL   UNL     1      13.432   9.363  -1.595  0.00  0.00    -0.082 Cl
BRANCH  27  31
ATOM     31  N   UNL     1      12.406  14.305  -0.428  0.00  0.00    +0.056 N 
ATOM     32  O   UNL     1      11.726  15.152   0.103  0.00  0.00    -0.126 OA
ATOM     33  O   UNL     1      13.397  14.623  -1.043  0.00  0.00    -0.126 OA
ENDBRANCH  27  31
ENDBRANCH  22  24
ENDBRANCH  19  20
ENDBRANCH  18  19
ENDBRANCH   1  18
TORSDOF 9
