REMARK  Name = ZINC23220167
REMARK  14 active torsions:
REMARK  status: ('A' for Active; 'I' for Inactive)
REMARK    1  A    between atoms: C_1  and  C_2
REMARK    2  A    between atoms: C_2  and  C_3
REMARK    3  A    between atoms: C_6  and  O_9
REMARK    4  A    between atoms: O_9  and  C_10
REMARK    5  A    between atoms: C_10  and  C_11
REMARK    6  A    between atoms: C_14  and  S_20
REMARK    7  A    between atoms: N_15  and  C_16
REMARK    8  A    between atoms: C_16  and  C_17
REMARK    9  A    between atoms: C_17  and  C_18
REMARK   10  A    between atoms: C_17  and  C_19
REMARK   11  A    between atoms: S_20  and  C_21
REMARK   12  A    between atoms: C_21  and  C_22
REMARK   13  A    between atoms: N_24  and  C_25
REMARK   14  A    between atoms: C_25  and  C_26
REMARK                            x       y       z     vdW  Elec       q    Type
REMARK                         _______ _______ _______ _____ _____    ______ ____
ROOT
ATOM      1  C   UNL     1      -6.119   9.906   2.788  0.00  0.00    +0.172 A 
ATOM      2  N   UNL     1      -5.013   9.349   3.194  0.00  0.00    -0.130 NA
ATOM      3  N   UNL     1      -4.869   8.198   2.639  0.00  0.00    -0.122 NA
ATOM      4  C   UNL     1      -5.885   7.957   1.843  0.00  0.00    +0.192 A 
ATOM      5  N   UNL     1      -6.711   9.042   1.909  0.00  0.00    -0.303 N 
ENDROOT
BRANCH   1   6
ATOM      6  C   UNL     1      -6.644  11.255   3.206  0.00  0.00    +0.305 C 
BRANCH   6   7
ATOM      7  O   UNL     1      -6.146  12.257   2.318  0.00  0.00    -0.484 OA
BRANCH   7  11
ATOM      8  C   UNL     1      -7.306  16.149   3.043  0.00  0.00    -0.047 A 
ATOM      9  C   UNL     1      -6.471  15.864   1.978  0.00  0.00    +0.007 A 
ATOM     10  C   UNL     1      -6.081  14.562   1.733  0.00  0.00    +0.046 A 
ATOM     11  C   UNL     1      -6.528  13.539   2.557  0.00  0.00    +0.121 A 
ATOM     12  C   UNL     1      -7.370  13.826   3.621  0.00  0.00    +0.046 A 
ATOM     13  C   UNL     1      -7.752  15.131   3.865  0.00  0.00    +0.007 A 
BRANCH   8  15
ATOM     14  C   UNL     1      -9.022  17.868   2.545  0.00  0.00    +0.009 C 
ATOM     15  C   UNL     1      -7.729  17.570   3.307  0.00  0.00    +0.032 C 
ENDBRANCH   8  15
ENDBRANCH   7  11
ENDBRANCH   6   7
ENDBRANCH   1   6
BRANCH   5  16
ATOM     16  C   UNL     1      -7.972   9.239   1.189  0.00  0.00    +0.128 C 
BRANCH  16  17
ATOM     17  C   UNL     1      -9.129   8.695   2.029  0.00  0.00    +0.003 C 
ATOM     18  C   UNL     1      -9.261   9.521   3.310  0.00  0.00    +0.009 C 
ATOM     19  C   UNL     1     -10.428   8.787   1.227  0.00  0.00    +0.009 C 
ENDBRANCH  16  17
ENDBRANCH   5  16
BRANCH   4  20
ATOM     20  S   UNL     1      -6.131   6.511   0.867  0.00  0.00    -0.077 S 
BRANCH  20  21
ATOM     21  C   UNL     1      -4.645   5.577   1.309  0.00  0.00    +0.173 C 
BRANCH  21  22
ATOM     22  C   UNL     1      -4.640   4.262   0.572  0.00  0.00    +0.223 C 
ATOM     23  O   UNL     1      -5.551   3.984  -0.178  0.00  0.00    -0.275 OA
ATOM     24  N   UNL     1      -3.622   3.396   0.747  0.00  0.00    -0.311 N 
ATOM     25  H   UNL     1      -2.796   3.648   1.427  0.00  0.00    +0.149 HD
BRANCH  24  26
ATOM     26  C   UNL     1      -3.617   2.118   0.030  0.00  0.00    +0.152 C 
BRANCH  26  27
ATOM     27  C   UNL     1      -2.361   1.329   0.404  0.00  0.00    +0.228 C 
ATOM     28  C   UNL     1      -2.350  -0.011  -0.344  0.00  0.00    +0.275 C 
ATOM     29  O   UNL     1      -1.158  -0.717   0.017  0.00  0.00    -0.485 OA
ATOM     30  C   UNL     1       0.002  -0.004   0.002  0.00  0.00    +0.162 A 
ATOM     31  C   UNL     1       1.214  -0.677  -0.017  0.00  0.00    +0.049 A 
ATOM     32  C   UNL     1       2.400   0.032  -0.027  0.00  0.00    +0.004 A 
ATOM     33  C   UNL     1       2.382   1.415  -0.017  0.00  0.00    +0.004 A 
ATOM     34  C   UNL     1       1.177   2.091   0.002  0.00  0.00    +0.049 A 
ATOM     35  C   UNL     1      -0.017   1.385   0.010  0.00  0.00    +0.163 A 
ATOM     36  O   UNL     1      -1.195   2.066   0.019  0.00  0.00    -0.480 OA
ENDBRANCH  26  27
ENDBRANCH  24  26
ENDBRANCH  21  22
ENDBRANCH  20  21
ENDBRANCH   4  20
TORSDOF 11
