REMARK  Name = ZINC49127926
REMARK  5 active torsions:
REMARK  status: ('A' for Active; 'I' for Inactive)
REMARK    1  A    between atoms: C_1  and  C_2
REMARK    2  A    between atoms: C_2  and  C_4
REMARK    3  A    between atoms: C_2  and  N_10
REMARK    4  A    between atoms: N_10  and  C_11
REMARK    5  A    between atoms: C_16  and  N_17
REMARK                            x       y       z     vdW  Elec       q    Type
REMARK                         _______ _______ _______ _____ _____    ______ ____
ROOT
ATOM      1  C   UNL     1      -0.021  -0.614  -2.405  0.00  0.00    +0.049 A 
ATOM      2  C   UNL     1      -1.370  -0.296  -2.455  0.00  0.00    +0.030 A 
ATOM      3  C   UNL     1      -2.070  -0.432  -3.639  0.00  0.00    -0.024 A 
ATOM      4  C   UNL     1      -1.425  -0.885  -4.782  0.00  0.00    +0.038 A 
ATOM      5  C   UNL     1      -0.074  -1.203  -4.738  0.00  0.00    +0.048 A 
ATOM      6  C   UNL     1       0.631  -1.063  -3.553  0.00  0.00    +0.047 A 
ATOM      7  N   UNL     1      -2.139  -1.020  -5.980  0.00  0.00    -0.285 N 
ATOM      8  C   UNL     1      -3.313  -0.385  -6.149  0.00  0.00    +0.218 C 
ATOM      9  O   UNL     1      -3.926  -0.525  -7.186  0.00  0.00    -0.275 OA
ATOM     10  C   UNL     1      -3.875   0.495  -5.065  0.00  0.00    +0.101 C 
ATOM     11  C   UNL     1      -3.536  -0.088  -3.693  0.00  0.00    +0.046 C 
ATOM     12  H   UNL     1      -1.785  -1.576  -6.692  0.00  0.00    +0.155 HD
ENDROOT
BRANCH   6  13
ATOM     13  N   UNL     1       1.994  -1.378  -3.507  0.00  0.00    -0.356 N 
ATOM     14  H   UNL     1       2.486  -1.284  -2.676  0.00  0.00    +0.142 HD
ATOM     15  H   UNL     1       2.447  -1.691  -4.306  0.00  0.00    +0.142 HD
ENDBRANCH   6  13
BRANCH   1  16
ATOM     16  N   UNL     1       0.688  -0.476  -1.203  0.00  0.00    -0.335 N 
ATOM     17  H   UNL     1       1.632  -0.695  -1.170  0.00  0.00    +0.147 HD
BRANCH  16  19
ATOM     18  C   UNL     1      -0.019   1.526   0.010  0.00  0.00    +0.033 C 
ATOM     19  C   UNL     1       0.002  -0.004   0.002  0.00  0.00    +0.104 C 
BRANCH  19  20
ATOM     20  C   UNL     1       0.731  -0.503   1.223  0.00  0.00    +0.011 A 
ATOM     21  C   UNL     1       0.222  -0.979   2.385  0.00  0.00    +0.014 A 
ATOM     22  C   UNL     1       1.091  -1.386   3.381  0.00  0.00    +0.028 A 
ATOM     23  C   UNL     1       2.427  -1.297   3.164  0.00  0.00    +0.078 A 
ATOM     24  S   UNL     1       2.489  -0.629   1.510  0.00  0.00    -0.080 S 
ATOM     25 CL   UNL     1       3.737  -1.728   4.219  0.00  0.00    -0.076 Cl
ENDBRANCH  19  20
ENDBRANCH  16  19
ENDBRANCH   1  16
TORSDOF 4
