REMARK  Name = ZINC51122997
REMARK  3 active torsions:
REMARK  status: ('A' for Active; 'I' for Inactive)
REMARK    1  A    between atoms: C_3  and  C_9
REMARK    2  A    between atoms: N_7  and  N_8
REMARK    3  A    between atoms: N_11  and  C_12
REMARK                            x       y       z     vdW  Elec       q    Type
REMARK                         _______ _______ _______ _____ _____    ______ ____
ROOT
ATOM      1  C   UNL     1       3.994   1.295  -1.091  0.00  0.00    +0.267 C 
ATOM      2  O   UNL     1       4.256   1.902  -2.111  0.00  0.00    -0.268 OA
ATOM      3  N   UNL     1       4.831   1.354  -0.037  0.00  0.00    -0.278 N 
ATOM      4  H   UNL     1       4.587   0.930   0.801  0.00  0.00    +0.155 HD
ENDROOT
BRANCH   3   5
ATOM      5  C   UNL     1       6.053   2.027  -0.150  0.00  0.00    +0.062 A 
ATOM      6  C   UNL     1       7.184   1.347  -0.584  0.00  0.00    +0.041 A 
ATOM      7  C   UNL     1       8.389   2.015  -0.695  0.00  0.00    +0.032 A 
ATOM      8  C   UNL     1       8.469   3.359  -0.376  0.00  0.00    +0.020 A 
ATOM      9  C   UNL     1       7.344   4.039   0.056  0.00  0.00    +0.032 A 
ATOM     10  C   UNL     1       6.135   3.378   0.164  0.00  0.00    +0.041 A 
ATOM     11 BR   UNL     1       4.596   4.310   0.746  0.00  0.00    -0.048 Br
ATOM     12 BR   UNL     1      10.120   4.268  -0.529  0.00  0.00    -0.050 Br
ATOM     13 BR   UNL     1       7.076  -0.490  -1.019  0.00  0.00    -0.048 Br
ENDBRANCH   3   5
BRANCH   1  16
ATOM     14  C   UNL     1       0.733  -0.324  -2.011  0.00  0.00    +0.006 A 
ATOM     15  C   UNL     1       1.893   0.433  -2.100  0.00  0.00    +0.033 A 
ATOM     16  C   UNL     1       2.753   0.490  -1.007  0.00  0.00    +0.128 A 
ATOM     17  N   UNL     1       2.472  -0.172   0.111  0.00  0.00    -0.226 NA
ATOM     18  C   UNL     1       1.377  -0.900   0.225  0.00  0.00    +0.133 A 
ATOM     19  C   UNL     1       0.473  -0.999  -0.833  0.00  0.00    +0.045 A 
ATOM     20  N   UNL     1       1.122  -1.576   1.413  0.00  0.00    -0.268 N 
ATOM     21  H   UNL     1       0.319  -2.112   1.502  0.00  0.00    +0.167 HD
BRANCH  20  22
ATOM     22  N   UNL     1       2.002  -1.484   2.453  0.00  0.00    -0.255 NA
ATOM     23  H   UNL     1       1.685  -2.025   3.244  0.00  0.00    +0.140 HD
ATOM     24  H   UNL     1       2.928  -1.767   2.169  0.00  0.00    +0.140 HD
ENDBRANCH  20  22
ENDBRANCH   1  16
TORSDOF 3
