REMARK  Name = ZINC13130028
REMARK  4 active torsions:
REMARK  status: ('A' for Active; 'I' for Inactive)
REMARK    1  A    between atoms: C_3  and  S_17
REMARK    2  A    between atoms: C_6  and  N_7
REMARK    3  A    between atoms: N_8  and  C_9
REMARK    4  A    between atoms: S_17  and  N_20
REMARK                            x       y       z     vdW  Elec       q    Type
REMARK                         _______ _______ _______ _____ _____    ______ ____
ROOT
ATOM      1  C   UNL     1      -0.017   1.393   0.010  0.00  0.00    +0.031 A 
ATOM      2  C   UNL     1       1.170   2.095   0.002  0.00  0.00    +0.030 A 
ATOM      3  C   UNL     1       2.378   1.420  -0.013  0.00  0.00    +0.105 A 
ATOM      4  C   UNL     1       2.404   0.036  -0.021  0.00  0.00    +0.030 A 
ATOM      5  C   UNL     1       1.225  -0.679  -0.014  0.00  0.00    +0.031 A 
ATOM      6  C   UNL     1       0.002  -0.004   0.002  0.00  0.00    +0.086 A 
ENDROOT
BRANCH   3   7
ATOM      7  S   UNL     1       3.889   2.326  -0.023  0.00  0.00    +0.056 S 
ATOM      8  O   UNL     1       4.872   1.469  -0.587  0.00  0.00    -0.153 OA
ATOM      9  O   UNL     1       3.592   3.606  -0.564  0.00  0.00    -0.153 OA
BRANCH   7  10
ATOM     10  N   UNL     1       4.324   2.569   1.557  0.00  0.00    -0.204 NA
ATOM     11  H   UNL     1       5.261   2.639   1.796  0.00  0.00    +0.144 HD
ATOM     12  H   UNL     1       3.642   2.642   2.242  0.00  0.00    +0.144 HD
ENDBRANCH   7  10
ENDBRANCH   3   7
BRANCH   6  13
ATOM     13  N   UNL     1      -1.171  -0.707   0.010  0.00  0.00    -0.149 NA
ATOM     14  N   UNL     1      -1.150  -1.997   0.003  0.00  0.00    -0.148 NA
BRANCH  14  15
ATOM     15  C   UNL     1      -2.320  -2.698   0.011  0.00  0.00    +0.106 A 
ATOM     16  C   UNL     1      -2.303  -4.115   0.009  0.00  0.00    +0.087 A 
ATOM     17  C   UNL     1      -3.486  -4.790   0.017  0.00  0.00    +0.245 A 
ATOM     18  C   UNL     1      -4.699  -4.066   0.027  0.00  0.00    +0.296 A 
ATOM     19  N   UNL     1      -4.690  -2.721   0.028  0.00  0.00    -0.324 N 
ATOM     20  C   UNL     1      -3.529  -2.033   0.026  0.00  0.00    +0.115 A 
ATOM     21  O   UNL     1      -5.761  -4.665   0.034  0.00  0.00    -0.264 OA
ATOM     22  O   UNL     1      -3.499  -6.151   0.015  0.00  0.00    -0.282 OA
ATOM     23  H   UNL     1      -5.531  -2.238   0.034  0.00  0.00    +0.169 HD
ENDBRANCH  14  15
ENDBRANCH   6  13
TORSDOF 4
