REMARK  Name = ZINC02806090
REMARK  16 active torsions:
REMARK  status: ('A' for Active; 'I' for Inactive)
REMARK    1  A    between atoms: C_1  and  C_2
REMARK    2  A    between atoms: C_2  and  S_3
REMARK    3  A    between atoms: S_3  and  C_4
REMARK    4  A    between atoms: C_4  and  C_5
REMARK    5  A    between atoms: C_5  and  O_6
REMARK    6  A    between atoms: O_6  and  C_7
REMARK    7  A    between atoms: C_7  and  C_9
REMARK    8  A    between atoms: C_10  and  C_38
REMARK    9  A    between atoms: C_14  and  C_16
REMARK   10  A    between atoms: C_19  and  O_22
REMARK   11  A    between atoms: O_22  and  C_23
REMARK   12  A    between atoms: C_23  and  C_25
REMARK   13  A    between atoms: C_28  and  C_34
REMARK   14  A    between atoms: C_30  and  C_33
REMARK   15  A    between atoms: C_34  and  O_36
REMARK   16  A    between atoms: O_36  and  C_37
REMARK                            x       y       z     vdW  Elec       q    Type
REMARK                         _______ _______ _______ _____ _____    ______ ____
ROOT
ATOM      1  C   UNL     1       2.327  -6.133  -2.789  0.00  0.00    +0.065 C 
ATOM      2  C   UNL     1       2.712  -6.231  -4.073  0.00  0.00    +0.016 C 
ATOM      3  N   UNL     1       2.506  -7.388  -4.771  0.00  0.00    -0.321 N 
ATOM      4  C   UNL     1       2.287  -8.569  -4.114  0.00  0.00    +0.016 C 
ATOM      5  C   UNL     1       1.879  -8.572  -2.827  0.00  0.00    +0.025 C 
ATOM      6  C   UNL     1       1.661  -7.278  -2.085  0.00  0.00    +0.092 C 
ATOM      7  C   UNL     1       1.647  -9.777  -2.142  0.00  0.00    +0.176 C 
ATOM      8  O   UNL     1       1.297  -9.745  -0.979  0.00  0.00    -0.291 OA
ATOM      9  C   UNL     1       1.825 -11.107  -2.822  0.00  0.00    +0.171 C 
ATOM     10  C   UNL     1       1.567 -10.937  -4.323  0.00  0.00    +0.013 C 
ATOM     11  C   UNL     1       2.514  -9.861  -4.859  0.00  0.00    +0.055 C 
ATOM     12  C   UNL     1       1.828 -12.262  -5.043  0.00  0.00    +0.009 C 
ATOM     13  C   UNL     1       3.376  -5.058  -4.747  0.00  0.00    +0.061 C 
ATOM     14  H   UNL     1       2.515  -7.373  -5.741  0.00  0.00    +0.152 HD
ENDROOT
BRANCH   6  15
ATOM     15  C   UNL     1       0.181  -7.009  -1.994  0.00  0.00    -0.035 A 
ATOM     16  C   UNL     1      -0.564  -6.846  -3.147  0.00  0.00    +0.008 A 
ATOM     17  C   UNL     1      -1.920  -6.599  -3.066  0.00  0.00    +0.046 A 
ATOM     18  C   UNL     1      -2.536  -6.515  -1.826  0.00  0.00    +0.132 A 
ATOM     19  C   UNL     1      -1.787  -6.679  -0.670  0.00  0.00    +0.046 A 
ATOM     20  C   UNL     1      -0.431  -6.931  -0.756  0.00  0.00    +0.008 A 
BRANCH  18  21
ATOM     21  O   UNL     1      -3.870  -6.272  -1.743  0.00  0.00    -0.426 OA
BRANCH  21  22
ATOM     22  C   UNL     1      -4.683  -7.302  -1.459  0.00  0.00    +0.309 C 
ATOM     23  O   UNL     1      -4.234  -8.421  -1.378  0.00  0.00    -0.251 OA
ATOM     24  C   UNL     1      -6.155  -7.064  -1.241  0.00  0.00    +0.136 C 
ENDBRANCH  21  22
ENDBRANCH  18  21
ENDBRANCH   6  15
BRANCH   1  25
ATOM     25  C   UNL     1       2.559  -4.928  -2.086  0.00  0.00    +0.338 C 
ATOM     26  O   UNL     1       3.216  -4.040  -2.599  0.00  0.00    -0.245 OA
BRANCH  25  27
ATOM     27  O   UNL     1       2.054  -4.762  -0.846  0.00  0.00    -0.460 OA
BRANCH  27  28
ATOM     28  C   UNL     1       2.328  -3.520  -0.194  0.00  0.00    +0.243 C 
BRANCH  28  29
ATOM     29  C   UNL     1       1.677  -3.516   1.191  0.00  0.00    +0.110 C 
BRANCH  29  30
ATOM     30  S   UNL     1       2.025  -1.940   2.018  0.00  0.00    -0.158 S 
BRANCH  30  32
ATOM     31  C   UNL     1       1.413  -0.816   4.436  0.00  0.00    +0.015 C 
ATOM     32  C   UNL     1       1.197  -2.095   3.625  0.00  0.00    +0.066 C 
ENDBRANCH  30  32
ENDBRANCH  29  30
ENDBRANCH  28  29
ENDBRANCH  27  28
ENDBRANCH  25  27
ENDBRANCH   1  25
BRANCH   9  33
ATOM     33  C   UNL     1       0.847 -12.101  -2.250  0.00  0.00    +0.318 C 
ATOM     34  O   UNL     1       0.032 -12.629  -2.969  0.00  0.00    -0.250 OA
BRANCH  33  35
ATOM     35  O   UNL     1       0.882 -12.400  -0.942  0.00  0.00    -0.467 OA
ATOM     36  C   UNL     1      -0.073 -13.351  -0.468  0.00  0.00    +0.280 C 
ENDBRANCH  33  35
ENDBRANCH   9  33
TORSDOF 11
