REMARK  Name = ZINC51093818
REMARK  6 active torsions:
REMARK  status: ('A' for Active; 'I' for Inactive)
REMARK    1  A    between atoms: C_1  and  C_2
REMARK    2  A    between atoms: C_5  and  C_7
REMARK    3  A    between atoms: C_7  and  N_8
REMARK    4  A    between atoms: C_9  and  C_11
REMARK    5  A    between atoms: C_16  and  N_17
REMARK    6  A    between atoms: N_17  and  N_18
REMARK                            x       y       z     vdW  Elec       q    Type
REMARK                         _______ _______ _______ _____ _____    ______ ____
ROOT
ATOM      1  C   UNL     1       1.858  -6.193  -3.061  0.00  0.00    +0.079 A 
ATOM      2  C   UNL     1       1.437  -5.389  -4.127  0.00  0.00    +0.033 A 
ATOM      3  C   UNL     1       1.608  -5.863  -5.416  0.00  0.00    +0.037 A 
ATOM      4  C   UNL     1       2.184  -7.106  -5.614  0.00  0.00    +0.128 A 
ATOM      5  N   UNL     1       2.574  -7.848  -4.597  0.00  0.00    -0.237 NA
ATOM      6  C   UNL     1       2.439  -7.441  -3.344  0.00  0.00    +0.144 A 
ATOM      7 BR   UNL     1       1.058  -4.820  -6.894  0.00  0.00    -0.049 Br
ENDROOT
BRANCH   1   9
ATOM      8  N   UNL     1       1.258  -4.490  -1.413  0.00  0.00    -0.307 N 
ATOM      9  C   UNL     1       1.700  -5.737  -1.668  0.00  0.00    +0.248 C 
ATOM     10  O   UNL     1       1.969  -6.487  -0.749  0.00  0.00    -0.270 OA
ATOM     11  H   UNL     1       1.043  -3.892  -2.147  0.00  0.00    +0.149 HD
BRANCH   8  12
ATOM     12  C   UNL     1       1.101  -4.037  -0.029  0.00  0.00    +0.147 C 
BRANCH  12  17
ATOM     13  C   UNL     1       0.162   1.550   0.003  0.00  0.00    +0.051 C 
ATOM     14  C   UNL     1       0.149   0.043  -0.004  0.00  0.00    -0.013 A 
ATOM     15  C   UNL     1      -0.911  -0.802  -0.003  0.00  0.00    +0.011 A 
ATOM     16  C   UNL     1      -0.682  -2.165  -0.011  0.00  0.00    +0.013 A 
ATOM     17  C   UNL     1       0.596  -2.617  -0.020  0.00  0.00    +0.007 A 
ATOM     18  S   UNL     1       1.527  -1.093  -0.023  0.00  0.00    -0.097 S 
ENDBRANCH  12  17
ENDBRANCH   8  12
ENDBRANCH   1   9
BRANCH   6  19
ATOM     19  N   UNL     1       2.868  -8.251  -2.308  0.00  0.00    -0.267 N 
ATOM     20  H   UNL     1       2.695  -7.994  -1.389  0.00  0.00    +0.167 HD
BRANCH  19  21
ATOM     21  N   UNL     1       3.534  -9.412  -2.579  0.00  0.00    -0.255 NA
ATOM     22  H   UNL     1       4.350  -9.236  -3.146  0.00  0.00    +0.140 HD
ATOM     23  H   UNL     1       3.782  -9.894  -1.728  0.00  0.00    +0.140 HD
ENDBRANCH  19  21
ENDBRANCH   6  19
TORSDOF 5
