REMARK  Name = ZINC13499605
REMARK  13 active torsions:
REMARK  status: ('A' for Active; 'I' for Inactive)
REMARK    1  A    between atoms: C_1  and  C_2
REMARK    2  A    between atoms: C_2  and  C_3
REMARK    3  A    between atoms: C_3  and  C_4
REMARK    4  A    between atoms: C_4  and  C_6
REMARK    5  A    between atoms: C_4  and  N_17
REMARK    6  A    between atoms: N_10  and  C_11
REMARK    7  A    between atoms: C_11  and  C_12
REMARK    8  A    between atoms: N_17  and  C_18
REMARK    9  A    between atoms: N_17  and  C_25
REMARK   10  A    between atoms: C_18  and  C_19
REMARK   11  A    between atoms: C_25  and  C_26
REMARK   12  A    between atoms: C_29  and  C_39
REMARK   13  A    between atoms: C_31  and  C_38
REMARK                            x       y       z     vdW  Elec       q    Type
REMARK                         _______ _______ _______ _____ _____    ______ ____
ROOT
ATOM      1  N   UNL     1      -0.639  -2.658  -1.262  0.00  0.00    -0.284 NA
ENDROOT
BRANCH   1   2
ATOM      2  C   UNL     1       0.738  -2.315  -1.641  0.00  0.00    +0.127 C 
BRANCH   2   3
ATOM      3  C   UNL     1       1.703  -3.051  -0.747  0.00  0.00    +0.169 A 
ATOM      4  N   UNL     1       1.800  -4.350  -0.601  0.00  0.00    -0.112 NA
ATOM      5  N   UNL     1       2.740  -4.586   0.247  0.00  0.00    -0.023 NA
ATOM      6  N   UNL     1       3.245  -3.472   0.647  0.00  0.00    -0.043 NA
ATOM      7  N   UNL     1       2.636  -2.502   0.052  0.00  0.00    -0.220 N 
BRANCH   7   8
ATOM      8  C   UNL     1       2.908  -1.072   0.218  0.00  0.00    +0.221 C 
BRANCH   8   9
ATOM      9  C   UNL     1       2.243  -0.578   1.478  0.00  0.00    +0.126 A 
ATOM     10  C   UNL     1       2.832  -0.454   2.681  0.00  0.00    +0.046 A 
ATOM     11  C   UNL     1       1.849   0.041   3.569  0.00  0.00    +0.041 A 
ATOM     12  C   UNL     1       0.719   0.189   2.855  0.00  0.00    +0.195 A 
ATOM     13  O   UNL     1       0.965  -0.182   1.588  0.00  0.00    -0.466 OA
ENDBRANCH   8   9
ENDBRANCH   7   8
ENDBRANCH   2   3
BRANCH   2  14
ATOM     14  C   UNL     1       0.982  -2.719  -3.096  0.00  0.00    +0.026 C 
BRANCH  14  16
ATOM     15  C   UNL     1       0.418  -2.200  -5.474  0.00  0.00    +0.004 C 
ATOM     16  C   UNL     1       0.086  -1.885  -4.014  0.00  0.00    -0.001 C 
ENDBRANCH  14  16
ENDBRANCH   2  14
ENDBRANCH   1   2
BRANCH   1  17
ATOM     17  C   UNL     1      -0.777  -4.102  -1.029  0.00  0.00    +0.120 C 
BRANCH  17  18
ATOM     18  C   UNL     1      -2.236  -4.478  -1.062  0.00  0.00    -0.033 A 
ATOM     19  C   UNL     1      -2.969  -4.509   0.110  0.00  0.00    +0.005 A 
ATOM     20  C   UNL     1      -4.307  -4.855   0.080  0.00  0.00    +0.000 A 
ATOM     21  C   UNL     1      -4.913  -5.168  -1.122  0.00  0.00    +0.000 A 
ATOM     22  C   UNL     1      -4.181  -5.136  -2.294  0.00  0.00    +0.000 A 
ATOM     23  C   UNL     1      -2.844  -4.787  -2.265  0.00  0.00    +0.005 A 
ENDBRANCH  17  18
ENDBRANCH   1  17
BRANCH   1  24
ATOM     24  C   UNL     1      -1.067  -1.891  -0.084  0.00  0.00    +0.126 C 
BRANCH  24  25
ATOM     25  C   UNL     1      -1.662  -0.579  -0.528  0.00  0.00    +0.032 A 
ATOM     26  C   UNL     1      -3.005  -0.463  -0.677  0.00  0.00    +0.020 A 
ATOM     27  C   UNL     1      -3.551   0.825  -1.109  0.00  0.00    +0.002 A 
ATOM     28  C   UNL     1      -4.927   1.006  -1.280  0.00  0.00    -0.041 A 
ATOM     29  C   UNL     1      -5.405   2.221  -1.683  0.00  0.00    +0.007 A 
ATOM     30  C   UNL     1      -4.537   3.277  -1.926  0.00  0.00    -0.048 A 
ATOM     31  C   UNL     1      -3.178   3.121  -1.764  0.00  0.00    +0.029 A 
ATOM     32  C   UNL     1      -2.668   1.893  -1.353  0.00  0.00    +0.050 A 
ATOM     33  N   UNL     1      -1.312   1.710  -1.183  0.00  0.00    -0.322 N 
ATOM     34  H   UNL     1      -0.705   2.447  -1.351  0.00  0.00    +0.169 HD
ATOM     35  C   UNL     1      -0.820   0.525  -0.781  0.00  0.00    +0.254 A 
ATOM     36  O   UNL     1       0.384   0.400  -0.635  0.00  0.00    -0.268 OA
ATOM     37  C   UNL     1      -5.088   4.607  -2.371  0.00  0.00    +0.044 C 
ATOM     38  C   UNL     1      -5.879  -0.133  -1.021  0.00  0.00    +0.044 C 
ENDBRANCH  24  25
ENDBRANCH   1  24
TORSDOF 10
