REMARK  Name = ZINC41842194
REMARK  6 active torsions:
REMARK  status: ('A' for Active; 'I' for Inactive)
REMARK    1  A    between atoms: C_1  and  C_2
REMARK    2  A    between atoms: C_2  and  C_4
REMARK    3  A    between atoms: C_2  and  N_7
REMARK    4  A    between atoms: C_8  and  C_10
REMARK    5  A    between atoms: C_11  and  S_15
REMARK    6  A    between atoms: S_15  and  N_18
REMARK                            x       y       z     vdW  Elec       q    Type
REMARK                         _______ _______ _______ _____ _____    ______ ____
ROOT
ATOM      1  C   UNL     1       1.250  -0.590  -5.388  0.00  0.00    +0.100 A 
ATOM      2  C   UNL     1       0.184  -0.981  -4.591  0.00  0.00    +0.125 A 
ATOM      3  C   UNL     1       0.517  -1.544  -3.383  0.00  0.00    +0.037 A 
ATOM      4  C   UNL     1       1.827  -1.677  -3.056  0.00  0.00    +0.048 A 
ATOM      5  S   UNL     1       2.647  -1.050  -4.382  0.00  0.00    -0.090 S 
ENDROOT
BRANCH   1   7
ATOM      6  N   UNL     1       2.386   0.236  -7.380  0.00  0.00    -0.300 N 
ATOM      7  C   UNL     1       1.232   0.033  -6.715  0.00  0.00    +0.253 C 
ATOM      8  O   UNL     1       0.174   0.366  -7.216  0.00  0.00    -0.270 OA
ATOM      9  H   UNL     1       3.229  -0.030  -6.980  0.00  0.00    +0.150 HD
BRANCH   6  11
ATOM     10  C   UNL     1       2.115  -0.213  -9.769  0.00  0.00    +0.038 C 
ATOM     11  C   UNL     1       2.368   0.858  -8.706  0.00  0.00    +0.156 C 
BRANCH  11  12
ATOM     12  C   UNL     1       3.696   1.522  -8.967  0.00  0.00    +0.231 C 
ATOM     13  O   UNL     1       4.571   1.479  -8.129  0.00  0.00    -0.274 OA
ATOM     14  N   UNL     1       3.911   2.163 -10.133  0.00  0.00    -0.328 N 
ATOM     15  H   UNL     1       3.211   2.197 -10.804  0.00  0.00    +0.145 HD
ATOM     16  H   UNL     1       4.765   2.590 -10.302  0.00  0.00    +0.145 HD
ENDBRANCH  11  12
ENDBRANCH   6  11
ENDBRANCH   1   7
BRANCH   2  17
ATOM     17  S   UNL     1      -1.490  -0.769  -5.096  0.00  0.00    +0.062 S 
ATOM     18  O   UNL     1      -1.822   0.589  -4.842  0.00  0.00    -0.153 OA
ATOM     19  O   UNL     1      -1.602  -1.351  -6.388  0.00  0.00    -0.153 OA
BRANCH  17  20
ATOM     20  N   UNL     1      -2.427  -1.683  -4.082  0.00  0.00    -0.172 NA
ATOM     21  C   UNL     1      -2.835  -3.051  -4.442  0.00  0.00    +0.114 C 
ATOM     22  C   UNL     1      -2.198  -4.010  -3.438  0.00  0.00    +0.052 C 
ATOM     23  C   UNL     1      -2.403  -3.524  -2.027  0.00  0.00    -0.042 A 
ATOM     24  C   UNL     1      -2.277  -4.452  -1.000  0.00  0.00    +0.004 A 
ATOM     25  C   UNL     1      -2.443  -4.071   0.314  0.00  0.00    +0.000 A 
ATOM     26  C   UNL     1      -2.736  -2.754   0.617  0.00  0.00    +0.000 A 
ATOM     27  C   UNL     1      -2.865  -1.831  -0.400  0.00  0.00    +0.005 A 
ATOM     28  C   UNL     1      -2.704  -2.215  -1.725  0.00  0.00    -0.028 A 
ATOM     29  C   UNL     1      -2.879  -1.164  -2.787  0.00  0.00    +0.144 C 
ENDBRANCH  17  20
ENDBRANCH   2  17
TORSDOF 5
