REMARK  Name = ZINC02685756
REMARK  10 active torsions:
REMARK  status: ('A' for Active; 'I' for Inactive)
REMARK    1  A    between atoms: N_14  and  O_15
REMARK    2  A    between atoms: O_15  and  C_16
REMARK    3  A    between atoms: C_16  and  C_17
REMARK    4  A    between atoms: C_17  and  C_19
REMARK    5  A    between atoms: C_17  and  O_37
REMARK    6  A    between atoms: C_19  and  N_20
REMARK    7  A    between atoms: N_20  and  C_21
REMARK    8  A    between atoms: N_20  and  S_27
REMARK    9  A    between atoms: C_21  and  C_22
REMARK   10  A    between atoms: S_27  and  C_30
REMARK                            x       y       z     vdW  Elec       q    Type
REMARK                         _______ _______ _______ _____ _____    ______ ____
ROOT
ATOM      1  C   UNL     1      -1.524   4.199   0.434  0.00  0.00    +0.170 C 
ENDROOT
BRANCH   1   2
ATOM      2  O   UNL     1      -1.125   3.934  -0.912  0.00  0.00    -0.387 OA
ATOM      3  H   UNL     1      -0.190   4.112  -1.087  0.00  0.00    +0.210 HD
ENDBRANCH   1   2
BRANCH   1   4
ATOM      4  C   UNL     1      -1.387   5.696   0.722  0.00  0.00    +0.295 C 
BRANCH   4   5
ATOM      5  O   UNL     1      -2.306   6.424  -0.096  0.00  0.00    -0.391 OA
BRANCH   5  19
ATOM      6  C   UNL     1      -6.003   7.957  -3.554  0.00  0.00    +0.001 A 
ATOM      7  C   UNL     1      -5.379   6.821  -3.066  0.00  0.00    +0.001 A 
ATOM      8  C   UNL     1      -4.400   6.925  -2.097  0.00  0.00    +0.011 A 
ATOM      9  C   UNL     1      -4.039   8.176  -1.608  0.00  0.00    +0.012 A 
ATOM     10  C   UNL     1      -4.673   9.329  -2.098  0.00  0.00    -0.008 A 
ATOM     11  C   UNL     1      -5.661   9.205  -3.072  0.00  0.00    +0.009 A 
ATOM     12  C   UNL     1      -4.099  10.513  -1.418  0.00  0.00    -0.008 A 
ATOM     13  C   UNL     1      -4.367  11.874  -1.538  0.00  0.00    +0.009 A 
ATOM     14  C   UNL     1      -3.672  12.786  -0.768  0.00  0.00    +0.001 A 
ATOM     15  C   UNL     1      -2.707  12.357   0.127  0.00  0.00    +0.001 A 
ATOM     16  C   UNL     1      -2.428  11.010   0.259  0.00  0.00    +0.011 A 
ATOM     17  C   UNL     1      -3.119  10.080  -0.510  0.00  0.00    +0.012 A 
ATOM     18  C   UNL     1      -3.047   8.602  -0.592  0.00  0.00    +0.118 C 
ATOM     19  N   UNL     1      -2.259   7.826   0.094  0.00  0.00    -0.084 NA
ENDBRANCH   5  19
ENDBRANCH   4   5
ENDBRANCH   1   4
BRANCH   1  20
ATOM     20  C   UNL     1      -0.632   3.411   1.396  0.00  0.00    +0.144 C 
BRANCH  20  21
ATOM     21  N   UNL     1      -0.872   1.977   1.221  0.00  0.00    -0.167 NA
BRANCH  21  22
ATOM     22  S   UNL     1      -1.970   1.198   2.185  0.00  0.00    +0.061 S 
ATOM     23  O   UNL     1      -2.878   2.188   2.649  0.00  0.00    -0.153 OA
ATOM     24  O   UNL     1      -2.397   0.048   1.468  0.00  0.00    -0.153 OA
BRANCH  22  25
ATOM     25  C   UNL     1      -1.098   0.613   3.600  0.00  0.00    +0.106 A 
ATOM     26  C   UNL     1      -0.529  -0.647   3.589  0.00  0.00    +0.030 A 
ATOM     27  C   UNL     1       0.160  -1.104   4.697  0.00  0.00    +0.022 A 
ATOM     28  C   UNL     1       0.271  -0.305   5.821  0.00  0.00    +0.041 A 
ATOM     29  C   UNL     1      -0.303   0.954   5.833  0.00  0.00    +0.022 A 
ATOM     30  C   UNL     1      -0.987   1.412   4.723  0.00  0.00    +0.030 A 
ATOM     31 CL   UNL     1       1.131  -0.881   7.214  0.00  0.00    -0.084 Cl
ENDBRANCH  22  25
ENDBRANCH  21  22
BRANCH  21  32
ATOM     32  C   UNL     1      -0.142   1.232   0.193  0.00  0.00    +0.183 C 
BRANCH  32  33
ATOM     33  C   UNL     1       1.237   0.897   0.699  0.00  0.00    +0.120 A 
ATOM     34  C   UNL     1       1.605  -0.263   1.273  0.00  0.00    +0.046 A 
ATOM     35  C   UNL     1       2.977  -0.145   1.593  0.00  0.00    +0.041 A 
ATOM     36  C   UNL     1       3.366   1.080   1.195  0.00  0.00    +0.195 A 
ATOM     37  O   UNL     1       2.310   1.704   0.650  0.00  0.00    -0.466 OA
ENDBRANCH  32  33
ENDBRANCH  21  32
ENDBRANCH  20  21
ENDBRANCH   1  20
TORSDOF 10
