REMARK  Name = ZINC40783470
REMARK  6 active torsions:
REMARK  status: ('A' for Active; 'I' for Inactive)
REMARK    1  A    between atoms: C_1  and  C_2
REMARK    2  A    between atoms: C_7  and  C_8
REMARK    3  A    between atoms: N_10  and  N_11
REMARK    4  A    between atoms: C_13  and  N_29
REMARK    5  A    between atoms: C_14  and  N_18
REMARK    6  A    between atoms: C_22  and  C_28
REMARK                            x       y       z     vdW  Elec       q    Type
REMARK                         _______ _______ _______ _____ _____    ______ ____
ROOT
ATOM      1  N   UNL     1       0.574   0.035   4.838  0.00  0.00    -0.247 N 
ATOM      2  C   UNL     1       0.804  -0.663   6.017  0.00  0.00    +0.161 A 
ATOM      3  C   UNL     1       0.908   0.015   7.234  0.00  0.00    +0.107 A 
ATOM      4  C   UNL     1       1.139  -0.735   8.388  0.00  0.00    +0.150 A 
ATOM      5  N   UNL     1       1.251  -2.058   8.286  0.00  0.00    -0.219 NA
ATOM      6  C   UNL     1       1.146  -2.658   7.119  0.00  0.00    +0.225 A 
ATOM      7  N   UNL     1       0.922  -1.988   6.006  0.00  0.00    -0.217 NA
ATOM      8  H   UNL     1       0.489   1.002   4.856  0.00  0.00    +0.172 HD
ENDROOT
BRANCH   4   9
ATOM      9  N   UNL     1       1.252  -0.110   9.626  0.00  0.00    -0.277 N 
ATOM     10  C   UNL     1       1.481  -0.863  10.762  0.00  0.00    +0.165 A 
ATOM     11  N   UNL     1       1.610  -0.460  12.006  0.00  0.00    -0.224 NA
ATOM     12  C   UNL     1       1.833  -1.316  13.027  0.00  0.00    +0.083 A 
ATOM     13  C   UNL     1       1.990  -1.015  14.399  0.00  0.00    -0.024 A 
ATOM     14  C   UNL     1       2.212  -2.012  15.313  0.00  0.00    +0.005 A 
ATOM     15  C   UNL     1       2.292  -3.343  14.930  0.00  0.00    +0.001 A 
ATOM     16  C   UNL     1       2.143  -3.673  13.595  0.00  0.00    +0.017 A 
ATOM     17  C   UNL     1       1.919  -2.681  12.673  0.00  0.00    +0.041 A 
ATOM     18  S   UNL     1       1.669  -2.634  10.915  0.00  0.00    -0.052 S 
ATOM     19  C   UNL     1       1.913   0.417  14.862  0.00  0.00    +0.046 C 
ATOM     20  H   UNL     1       1.170   0.855   9.692  0.00  0.00    +0.156 HD
ENDBRANCH   4   9
BRANCH   1  23
ATOM     21  C   UNL     1       0.243   0.022   2.481  0.00  0.00    +0.260 C 
ATOM     22  O   UNL     1       0.136   1.232   2.502  0.00  0.00    -0.269 OA
ATOM     23  N   UNL     1       0.466  -0.656   3.624  0.00  0.00    -0.231 N 
ATOM     24  H   UNL     1       0.551  -1.622   3.607  0.00  0.00    +0.173 HD
BRANCH  21  31
ATOM     25  C   UNL     1      -0.513   1.452   0.082  0.00  0.00    +0.044 C 
ATOM     26  C   UNL     1      -0.235  -0.028   0.036  0.00  0.00    -0.038 A 
ATOM     27  C   UNL     1      -0.335  -0.714  -1.157  0.00  0.00    +0.004 A 
ATOM     28  C   UNL     1      -0.080  -2.073  -1.200  0.00  0.00    +0.000 A 
ATOM     29  C   UNL     1       0.275  -2.754  -0.049  0.00  0.00    +0.001 A 
ATOM     30  C   UNL     1       0.377  -2.081   1.150  0.00  0.00    +0.013 A 
ATOM     31  C   UNL     1       0.128  -0.708   1.200  0.00  0.00    +0.041 A 
ENDBRANCH  21  31
ENDBRANCH   1  23
BRANCH   3  32
ATOM     32  N   UNL     1       0.785   1.412   7.295  0.00  0.00    -0.353 N 
ATOM     33  H   UNL     1       0.624   1.920   6.484  0.00  0.00    +0.143 HD
ATOM     34  H   UNL     1       0.860   1.869   8.147  0.00  0.00    +0.143 HD
ENDBRANCH   3  32
TORSDOF 4
