REMARK  Name = ZINC39623832
REMARK  6 active torsions:
REMARK  status: ('A' for Active; 'I' for Inactive)
REMARK    1  A    between atoms: C_1  and  C_2
REMARK    2  A    between atoms: C_2  and  C_3
REMARK    3  A    between atoms: C_3  and  C_4
REMARK    4  A    between atoms: C_4  and  N_5
REMARK    5  A    between atoms: C_6  and  C_8
REMARK    6  A    between atoms: C_19  and  C_21
REMARK                            x       y       z     vdW  Elec       q    Type
REMARK                         _______ _______ _______ _____ _____    ______ ____
ROOT
ATOM      1  C   UNL     1       2.269  -4.308  -3.932  0.00  0.00    +0.100 C 
ATOM      2  C   UNL     1       1.434  -3.979  -5.190  0.00  0.00    +0.121 C 
ATOM      3  N   UNL     1       1.623  -5.148  -6.081  0.00  0.00    -0.296 N 
ATOM      4  C   UNL     1       1.604  -6.315  -5.167  0.00  0.00    +0.115 C 
ATOM      5  C   UNL     1       2.378  -5.842  -3.920  0.00  0.00    -0.004 C 
ATOM      6  C   UNL     1       1.737  -6.407  -2.656  0.00  0.00    -0.010 C 
ATOM      7  C   UNL     1       1.909  -7.928  -2.638  0.00  0.00    -0.082 C 
ATOM      8  N   UNL     1       3.338  -8.262  -2.677  0.00  0.00    +0.379 N 
ATOM      9  C   UNL     1       3.926  -7.796  -3.939  0.00  0.00    -0.082 C 
ATOM     10  C   UNL     1       3.839  -6.269  -4.012  0.00  0.00    -0.010 C 
ATOM     11  C   UNL     1       1.778  -5.150  -7.420  0.00  0.00    +0.249 C 
ATOM     12  O   UNL     1       1.923  -6.201  -8.013  0.00  0.00    -0.270 OA
ATOM     13  H   UNL     1       3.807  -7.815  -1.904  0.00  0.00    -0.086 HD
ATOM     14  H   UNL     1       3.451  -9.262  -2.604  0.00  0.00    -0.086 HD
ENDROOT
BRANCH  11  15
ATOM     15  C   UNL     1       1.770  -3.876  -8.166  0.00  0.00    +0.073 A 
ATOM     16  C   UNL     1       2.965  -3.185  -8.387  0.00  0.00    +0.054 A 
ATOM     17  C   UNL     1       2.950  -1.994  -9.086  0.00  0.00    +0.021 A 
ATOM     18  C   UNL     1       1.756  -1.484  -9.566  0.00  0.00    +0.003 A 
ATOM     19  C   UNL     1       0.570  -2.162  -9.350  0.00  0.00    +0.021 A 
ATOM     20  C   UNL     1       0.570  -3.357  -8.658  0.00  0.00    +0.054 A 
ATOM     21 CL   UNL     1      -0.919  -4.210  -8.396  0.00  0.00    -0.083 Cl
ATOM     22 CL   UNL     1       4.463  -3.822  -7.785  0.00  0.00    -0.083 Cl
ENDBRANCH  11  15
BRANCH   1  24
ATOM     23  N   UNL     1       2.278  -3.470  -1.605  0.00  0.00    -0.315 N 
ATOM     24  C   UNL     1       1.564  -3.822  -2.692  0.00  0.00    +0.218 C 
ATOM     25  O   UNL     1       0.353  -3.748  -2.673  0.00  0.00    -0.275 OA
ATOM     26  H   UNL     1       3.246  -3.529  -1.621  0.00  0.00    +0.149 HD
BRANCH  23  27
ATOM     27  C   UNL     1       1.592  -2.997  -0.400  0.00  0.00    +0.104 C 
BRANCH  27  28
ATOM     28  C   UNL     1       2.626  -2.666   0.678  0.00  0.00    +0.018 C 
BRANCH  28  30
ATOM     29  C   UNL     1       2.944  -1.841   3.015  0.00  0.00    +0.004 C 
ATOM     30  C   UNL     1       1.910  -2.172   1.937  0.00  0.00    -0.002 C 
ENDBRANCH  28  30
ENDBRANCH  27  28
ENDBRANCH  23  27
ENDBRANCH   1  24
TORSDOF 5
