REMARK  Name = ZINC13640405
REMARK  7 active torsions:
REMARK  status: ('A' for Active; 'I' for Inactive)
REMARK    1  A    between atoms: C_1  and  C_2
REMARK    2  A    between atoms: C_2  and  C_3
REMARK    3  A    between atoms: C_3  and  C_4
REMARK    4  A    between atoms: N_6  and  C_7
REMARK    5  A    between atoms: C_20  and  C_23
REMARK    6  A    between atoms: C_26  and  O_30
REMARK    7  A    between atoms: C_28  and  O_29
REMARK                            x       y       z     vdW  Elec       q    Type
REMARK                         _______ _______ _______ _____ _____    ______ ____
ROOT
ATOM      1  C   UNL     1      -0.849   1.777   6.081  0.00  0.00    +0.039 A 
ATOM      2  C   UNL     1      -1.993   2.546   5.914  0.00  0.00    +0.025 A 
ATOM      3  C   UNL     1      -2.621   3.082   7.022  0.00  0.00    +0.023 A 
ATOM      4  C   UNL     1      -2.122   2.849   8.286  0.00  0.00    +0.062 A 
ATOM      5  C   UNL     1      -0.974   2.074   8.473  0.00  0.00    +0.052 A 
ATOM      6  C   UNL     1      -0.340   1.544   7.348  0.00  0.00    +0.003 A 
ATOM      7  C   UNL     1       0.901   0.766   7.556  0.00  0.00    +0.050 C 
ATOM      8  C   UNL     1       1.328  -0.316   6.636  0.00  0.00    -0.023 C 
ATOM      9  C   UNL     1       1.974  -1.239   7.339  0.00  0.00    -0.030 C 
ATOM     10  C   UNL     1       1.981  -0.866   8.838  0.00  0.00    +0.033 C 
ATOM     11  C   UNL     1       0.736   0.024   8.920  0.00  0.00    +0.029 C 
ATOM     12  C   UNL     1       0.718   1.129   9.956  0.00  0.00    +0.108 C 
ATOM     13  N   UNL     1      -0.544   1.864   9.783  0.00  0.00    -0.335 N 
ATOM     14 CL   UNL     1      -2.931   3.527   9.664  0.00  0.00    -0.082 Cl
ATOM     15  H   UNL     1      -1.279   1.459  10.344  0.00  0.00    +0.147 HD
ENDROOT
BRANCH  12  16
ATOM     16  C   UNL     1       0.782   0.536  11.340  0.00  0.00    +0.015 A 
ATOM     17  C   UNL     1      -0.383   0.174  11.990  0.00  0.00    +0.012 A 
ATOM     18  C   UNL     1      -0.328  -0.370  13.259  0.00  0.00    +0.046 A 
ATOM     19  C   UNL     1       0.898  -0.554  13.883  0.00  0.00    +0.120 A 
ATOM     20  C   UNL     1       2.067  -0.192  13.233  0.00  0.00    +0.091 A 
ATOM     21  C   UNL     1       2.010   0.349  11.958  0.00  0.00    +0.125 A 
BRANCH  21  22
ATOM     22  O   UNL     1       3.155   0.700  11.316  0.00  0.00    -0.506 OA
ATOM     23  H   UNL     1       3.434   1.612  11.479  0.00  0.00    +0.292 HD
ENDBRANCH  21  22
BRANCH  19  24
ATOM     24  O   UNL     1       0.952  -1.090  15.131  0.00  0.00    -0.507 OA
ATOM     25  H   UNL     1       1.024  -2.054  15.143  0.00  0.00    +0.292 HD
ENDBRANCH  19  24
ENDBRANCH  12  16
BRANCH   1  28
ATOM     26  C   UNL     1      -0.912   0.980   3.840  0.00  0.00    +0.217 C 
ATOM     27  O   UNL     1      -2.116   1.130   3.832  0.00  0.00    -0.275 OA
ATOM     28  N   UNL     1      -0.210   1.230   4.963  0.00  0.00    -0.285 N 
ATOM     29  H   UNL     1       0.739   1.030   4.996  0.00  0.00    +0.155 HD
BRANCH  26  30
ATOM     30  C   UNL     1      -0.202   0.515   2.594  0.00  0.00    +0.096 C 
BRANCH  30  32
ATOM     31  C   UNL     1      -0.501  -0.166   0.209  0.00  0.00    +0.004 C 
ATOM     32  C   UNL     1      -1.222   0.306   1.474  0.00  0.00    +0.006 C 
ENDBRANCH  30  32
ENDBRANCH  26  30
ENDBRANCH   1  28
TORSDOF 6
