REMARK  Name = ZINC35644087
REMARK  9 active torsions:
REMARK  status: ('A' for Active; 'I' for Inactive)
REMARK    1  A    between atoms: C_1  and  C_2
REMARK    2  A    between atoms: C_2  and  C_4
REMARK    3  A    between atoms: C_2  and  C_9
REMARK    4  A    between atoms: C_4  and  C_5
REMARK    5  A    between atoms: C_5  and  C_6
REMARK    6  A    between atoms: C_15  and  C_38
REMARK    7  A    between atoms: C_16  and  O_37
REMARK    8  A    between atoms: C_27  and  C_34
REMARK    9  A    between atoms: C_30  and  O_33
REMARK                            x       y       z     vdW  Elec       q    Type
REMARK                         _______ _______ _______ _____ _____    ______ ____
ROOT
ATOM      1  C   UNL     1      -1.406  -0.600  -0.099  0.00  0.00    +0.001 C 
ATOM      2  C   UNL     1      -1.191  -2.129   0.074  0.00  0.00    +0.005 C 
ATOM      3  C   UNL     1      -1.704  -2.793  -1.239  0.00  0.00    +0.005 C 
ATOM      4  C   UNL     1      -1.579  -1.642  -2.244  0.00  0.00    +0.001 C 
ATOM      5  C   UNL     1      -2.151  -0.459  -1.432  0.00  0.00    +0.000 C 
ATOM      6  C   UNL     1      -2.010   0.810  -2.220  0.00  0.00    +0.121 C 
ATOM      7  C   UNL     1      -2.749   0.714  -3.566  0.00  0.00    +0.036 C 
ATOM      8  C   UNL     1      -3.182  -0.679  -3.951  0.00  0.00    +0.001 C 
ATOM      9  C   UNL     1      -2.180  -1.772  -3.597  0.00  0.00    -0.000 C 
ATOM     10  C   UNL     1      -2.833  -3.112  -3.923  0.00  0.00    -0.011 C 
ATOM     11  C   UNL     1      -3.107  -3.278  -5.428  0.00  0.00    +0.007 C 
ATOM     12  C   UNL     1      -2.833  -1.938  -6.114  0.00  0.00    -0.002 C 
ATOM     13  C   UNL     1      -3.550  -0.781  -5.437  0.00  0.00    -0.026 C 
ATOM     14  C   UNL     1      -3.200   0.524  -6.152  0.00  0.00    +0.010 C 
ATOM     15  C   UNL     1      -3.575   0.451  -7.630  0.00  0.00    +0.032 C 
ATOM     16  C   UNL     1      -2.875  -0.727  -8.303  0.00  0.00    +0.115 C 
ATOM     17  C   UNL     1      -3.230  -2.031  -7.589  0.00  0.00    +0.035 C 
ATOM     18  C   UNL     1      -5.065  -0.991  -5.504  0.00  0.00    +0.012 C 
ATOM     19  N   UNL     1      -3.824  -3.687  -3.012  0.00  0.00    +0.398 N 
ATOM     20  N   UNL     1      -2.507  -4.294  -3.134  0.00  0.00    -0.372 NA
ATOM     21  C   UNL     1      -3.634  -0.676  -1.075  0.00  0.00    +0.014 C 
ATOM     22  H   UNL     1      -4.055  -3.186  -2.177  0.00  0.00    -0.058 HD
ATOM     23  H   UNL     1      -2.546  -5.133  -3.693  0.00  0.00    +0.100 HD
ATOM     24  H   UNL     1      -4.597  -4.189  -3.435  0.00  0.00    -0.058 HD
ENDROOT
BRANCH   1  26
ATOM     25  C   UNL     1       0.512   0.031   1.357  0.00  0.00    +0.008 C 
ATOM     26  C   UNL     1      -0.072   0.126  -0.053  0.00  0.00    -0.010 C 
BRANCH  26  27
ATOM     27  C   UNL     1       0.894  -0.519  -1.050  0.00  0.00    +0.015 C 
BRANCH  27  28
ATOM     28  C   UNL     1       2.254   0.176  -0.964  0.00  0.00    +0.125 C 
BRANCH  28  29
ATOM     29  C   UNL     1       3.205  -0.459  -1.946  0.00  0.00    +0.356 C 
ATOM     30  O   UNL     1       2.830  -1.382  -2.648  0.00  0.00    -0.246 OA
ATOM     31  O   UNL     1       4.350  -0.050  -2.037  0.00  0.00    -0.246 OA
ENDBRANCH  28  29
ENDBRANCH  27  28
ENDBRANCH  26  27
ENDBRANCH   1  26
BRANCH  16  32
ATOM     32  O   UNL     1      -1.460  -0.529  -8.268  0.00  0.00    -0.392 OA
ATOM     33  H   UNL     1      -1.164   0.272  -8.721  0.00  0.00    +0.210 HD
ENDBRANCH  16  32
BRANCH   6  34
ATOM     34  O   UNL     1      -0.636   1.108  -2.516  0.00  0.00    -0.391 OA
ATOM     35  H   UNL     1      -0.510   1.921  -3.024  0.00  0.00    +0.210 HD
ENDBRANCH   6  34
TORSDOF 6
