REMARK  Name = ZINC04499831
REMARK  9 active torsions:
REMARK  status: ('A' for Active; 'I' for Inactive)
REMARK    1  A    between atoms: C_1  and  C_2
REMARK    2  A    between atoms: C_2  and  C_3
REMARK    3  A    between atoms: C_3  and  C_4
REMARK    4  A    between atoms: C_4  and  C_5
REMARK    5  A    between atoms: C_8  and  N_11
REMARK    6  A    between atoms: C_12  and  C_14
REMARK    7  A    between atoms: C_14  and  S_15
REMARK    8  A    between atoms: S_15  and  C_16
REMARK    9  A    between atoms: C_21  and  C_27
REMARK                            x       y       z     vdW  Elec       q    Type
REMARK                         _______ _______ _______ _____ _____    ______ ____
ROOT
ATOM      1  N   UNL     1       3.394  -3.857  -5.933  0.00  0.00    -0.285 N 
ATOM      2  C   UNL     1       4.737  -3.972  -5.943  0.00  0.00    +0.227 C 
ATOM      3  O   UNL     1       5.370  -3.772  -4.928  0.00  0.00    -0.275 OA
ATOM      4  H   UNL     1       2.882  -4.091  -6.722  0.00  0.00    +0.155 HD
ENDROOT
BRANCH   1   8
ATOM      5  C   UNL     1       1.445  -2.495  -2.512  0.00  0.00    -0.047 A 
ATOM      6  C   UNL     1       2.702  -2.012  -2.828  0.00  0.00    +0.005 A 
ATOM      7  C   UNL     1       3.351  -2.462  -3.962  0.00  0.00    +0.023 A 
ATOM      8  C   UNL     1       2.740  -3.400  -4.784  0.00  0.00    +0.033 A 
ATOM      9  C   UNL     1       1.478  -3.883  -4.463  0.00  0.00    +0.023 A 
ATOM     10  C   UNL     1       0.837  -3.433  -3.325  0.00  0.00    +0.005 A 
BRANCH   5  11
ATOM     11  C   UNL     1       0.740  -2.002  -1.274  0.00  0.00    +0.035 C 
BRANCH  11  12
ATOM     12  C   UNL     1       1.109  -2.895  -0.088  0.00  0.00    +0.004 C 
BRANCH  12  14
ATOM     13  C   UNL     1       0.762  -3.287   2.355  0.00  0.00    +0.004 C 
ATOM     14  C   UNL     1       0.393  -2.395   1.169  0.00  0.00    -0.003 C 
ENDBRANCH  12  14
ENDBRANCH  11  12
ENDBRANCH   5  11
ENDBRANCH   1   8
BRANCH   2  15
ATOM     15  C   UNL     1       5.452  -4.350  -7.215  0.00  0.00    +0.173 C 
BRANCH  15  16
ATOM     16  S   UNL     1       7.238  -4.423  -6.906  0.00  0.00    -0.076 S 
BRANCH  16  17
ATOM     17  C   UNL     1       7.922  -4.870  -8.467  0.00  0.00    +0.195 A 
ATOM     18  N   UNL     1       9.238  -5.017  -8.591  0.00  0.00    -0.204 NA
ATOM     19  C   UNL     1       9.764  -5.356  -9.768  0.00  0.00    +0.144 A 
ATOM     20  C   UNL     1      11.152  -5.514  -9.908  0.00  0.00    +0.047 A 
ATOM     21  C   UNL     1      11.664  -5.862 -11.124  0.00  0.00    +0.008 A 
ATOM     22  C   UNL     1      10.799  -6.054 -12.210  0.00  0.00    -0.034 A 
ATOM     23  C   UNL     1       9.465  -5.897 -12.054  0.00  0.00    +0.101 A 
ATOM     24  N   UNL     1       8.943  -5.551 -10.846  0.00  0.00    -0.252 N 
ATOM     25  C   UNL     1       7.612  -5.396 -10.698  0.00  0.00    +0.356 A 
ATOM     26  O   UNL     1       6.865  -5.566 -11.648  0.00  0.00    -0.244 OA
ATOM     27  N   UNL     1       7.115  -5.062  -9.509  0.00  0.00    -0.167 NA
ATOM     28  C   UNL     1      11.358  -6.438 -13.556  0.00  0.00    +0.045 C 
ENDBRANCH  16  17
ENDBRANCH  15  16
ENDBRANCH   2  15
TORSDOF 7
