REMARK  Name = ZINC39662408
REMARK  6 active torsions:
REMARK  status: ('A' for Active; 'I' for Inactive)
REMARK    1  A    between atoms: C_1  and  C_2
REMARK    2  A    between atoms: C_6  and  C_9
REMARK    3  A    between atoms: C_13  and  C_22
REMARK    4  A    between atoms: N_24  and  C_25
REMARK    5  A    between atoms: C_25  and  C_27
REMARK    6  A    between atoms: C_25  and  C_29
REMARK                            x       y       z     vdW  Elec       q    Type
REMARK                         _______ _______ _______ _____ _____    ______ ____
ROOT
ATOM      1  C   UNL     1       0.086  -2.897   2.599  0.00  0.00    +0.251 C 
ATOM      2  O   UNL     1       1.131  -3.249   3.111  0.00  0.00    -0.270 OA
ATOM      3  N   UNL     1      -1.090  -3.268   3.142  0.00  0.00    -0.296 N 
ATOM      4  C   UNL     1      -2.454  -2.946   2.661  0.00  0.00    +0.121 C 
ATOM      5  C   UNL     1      -3.264  -4.243   2.883  0.00  0.00    +0.100 C 
ATOM      6  C   UNL     1      -2.510  -4.990   3.997  0.00  0.00    -0.004 C 
ATOM      7  C   UNL     1      -1.312  -4.097   4.351  0.00  0.00    +0.115 C 
ATOM      8  C   UNL     1      -3.411  -5.174   5.214  0.00  0.00    -0.010 C 
ATOM      9  C   UNL     1      -2.659  -5.969   6.285  0.00  0.00    -0.082 C 
ATOM     10  N   UNL     1      -2.265  -7.274   5.741  0.00  0.00    +0.379 N 
ATOM     11  C   UNL     1      -1.325  -7.090   4.629  0.00  0.00    -0.082 C 
ATOM     12  C   UNL     1      -2.020  -6.343   3.488  0.00  0.00    -0.010 C 
ATOM     13  H   UNL     1      -1.824  -7.820   6.466  0.00  0.00    -0.086 HD
ATOM     14  H   UNL     1      -3.085  -7.761   5.410  0.00  0.00    -0.086 HD
ENDROOT
BRANCH   1  20
ATOM     15  C   UNL     1       0.144   1.610   0.448  0.00  0.00    +0.047 C 
ATOM     16  C   UNL     1       0.134   0.107   0.340  0.00  0.00    -0.014 A 
ATOM     17  C   UNL     1       0.143  -0.495  -0.905  0.00  0.00    +0.007 A 
ATOM     18  C   UNL     1       0.133  -1.874  -1.016  0.00  0.00    +0.021 A 
ATOM     19  C   UNL     1       0.115  -2.661   0.119  0.00  0.00    +0.056 A 
ATOM     20  C   UNL     1       0.106  -2.062   1.381  0.00  0.00    +0.091 A 
ATOM     21  C   UNL     1       0.121  -0.667   1.485  0.00  0.00    +0.140 A 
ATOM     22  F   UNL     1       0.118  -0.078   2.701  0.00  0.00    -0.204 F 
ATOM     23 CL   UNL     1       0.102  -4.391  -0.023  0.00  0.00    -0.083 Cl
ENDBRANCH   1  20
BRANCH   5  24
ATOM     24  C   UNL     1      -4.667  -3.917   3.324  0.00  0.00    +0.219 C 
ATOM     25  O   UNL     1      -4.881  -2.918   3.977  0.00  0.00    -0.275 OA
ATOM     26  N   UNL     1      -5.685  -4.737   2.993  0.00  0.00    -0.296 N 
ATOM     27  H   UNL     1      -5.513  -5.537   2.472  0.00  0.00    +0.150 HD
BRANCH  26  28
ATOM     28  C   UNL     1      -7.049  -4.420   3.422  0.00  0.00    +0.207 C 
BRANCH  28  29
ATOM     29  C   UNL     1      -8.034  -5.065   2.481  0.00  0.00    -0.013 A 
ATOM     30  C   UNL     1      -7.802  -6.343   2.007  0.00  0.00    +0.006 A 
ATOM     31  C   UNL     1      -8.705  -6.934   1.143  0.00  0.00    +0.000 A 
ATOM     32  C   UNL     1      -9.840  -6.248   0.754  0.00  0.00    +0.000 A 
ATOM     33  C   UNL     1     -10.073  -4.971   1.229  0.00  0.00    +0.000 A 
ATOM     34  C   UNL     1      -9.172  -4.381   2.095  0.00  0.00    +0.006 A 
ENDBRANCH  28  29
BRANCH  28  35
ATOM     35  C   UNL     1      -7.267  -4.932   4.785  0.00  0.00    +0.090 C 
ATOM     36  N   UNL     1      -7.434  -5.326   5.837  0.00  0.00    -0.194 NA
ENDBRANCH  28  35
ENDBRANCH  26  28
ENDBRANCH   5  24
TORSDOF 5
