REMARK  Name = ZINC33676260
REMARK  9 active torsions:
REMARK  status: ('A' for Active; 'I' for Inactive)
REMARK    1  A    between atoms: C_1  and  C_2
REMARK    2  A    between atoms: C_2  and  C_3
REMARK    3  A    between atoms: C_7  and  C_37
REMARK    4  A    between atoms: C_8  and  N_9
REMARK    5  A    between atoms: C_14  and  C_27
REMARK    6  A    between atoms: C_17  and  C_22
REMARK    7  A    between atoms: C_17  and  C_24
REMARK    8  A    between atoms: C_22  and  O_23
REMARK    9  A    between atoms: C_37  and  C_38
REMARK                            x       y       z     vdW  Elec       q    Type
REMARK                         _______ _______ _______ _____ _____    ______ ____
ROOT
ATOM      1  N   UNL     1       0.326   5.323  -3.570  0.00  0.00    -0.209 N 
ATOM      2  C   UNL     1      -0.517   5.050  -2.529  0.00  0.00    +0.229 C 
ATOM      3  O   UNL     1      -1.446   4.270  -2.526  0.00  0.00    -0.275 OA
ATOM      4  C   UNL     1      -0.059   5.910  -1.394  0.00  0.00    +0.077 C 
ATOM      5  C   UNL     1       0.012   5.378   0.028  0.00  0.00    -0.026 C 
ATOM      6  N   UNL     1       1.310   5.873   0.578  0.00  0.00    +0.397 N 
ATOM      7  C   UNL     1       2.074   6.508  -0.551  0.00  0.00    +0.071 C 
ATOM      8  C   UNL     1       1.480   5.866  -1.736  0.00  0.00    +0.088 C 
ATOM      9  C   UNL     1       1.463   5.981  -3.172  0.00  0.00    +0.229 C 
ATOM     10  O   UNL     1       2.277   6.538  -3.877  0.00  0.00    -0.275 OA
ATOM     11  H   UNL     1       1.115   6.610   1.370  0.00  0.00    -0.083 HD
ATOM     12  H   UNL     1       1.878   5.028   0.995  0.00  0.00    -0.083 HD
ENDROOT
BRANCH   5  13
ATOM     13  C   UNL     1      -0.011   3.871   0.021  0.00  0.00    -0.053 A 
ATOM     14  C   UNL     1       1.153   3.170  -0.066  0.00  0.00    +0.002 A 
ATOM     15  C   UNL     1       1.152   1.776  -0.073  0.00  0.00    +0.001 A 
ATOM     16  C   UNL     1      -0.013   1.076   0.005  0.00  0.00    +0.008 A 
ATOM     17  C   UNL     1      -1.234   1.765   0.091  0.00  0.00    -0.018 A 
ATOM     18  C   UNL     1      -1.233   3.183   0.105  0.00  0.00    -0.016 A 
ATOM     19  C   UNL     1      -2.454   3.872   0.196  0.00  0.00    +0.009 A 
ATOM     20  C   UNL     1      -3.618   3.171   0.276  0.00  0.00    +0.001 A 
ATOM     21  C   UNL     1      -3.619   1.778   0.268  0.00  0.00    +0.001 A 
ATOM     22  C   UNL     1      -2.456   1.077   0.180  0.00  0.00    +0.008 A 
ENDBRANCH   5  13
BRANCH   1  28
ATOM     23  C   UNL     1       0.481   3.742  -5.392  0.00  0.00    -0.026 A 
ATOM     24  C   UNL     1       0.211   3.394  -6.701  0.00  0.00    +0.005 A 
ATOM     25  C   UNL     1      -0.471   4.271  -7.525  0.00  0.00    +0.001 A 
ATOM     26  C   UNL     1      -0.889   5.497  -7.039  0.00  0.00    +0.005 A 
ATOM     27  C   UNL     1      -0.626   5.848  -5.729  0.00  0.00    -0.026 A 
ATOM     28  C   UNL     1       0.058   4.969  -4.900  0.00  0.00    +0.050 A 
BRANCH  23  30
ATOM     29  C   UNL     1       0.231   1.954  -3.691  0.00  0.00    +0.009 C 
ATOM     30  C   UNL     1       1.229   2.788  -4.497  0.00  0.00    +0.033 C 
ENDBRANCH  23  30
BRANCH  27  31
ATOM     31  C   UNL     1      -1.083   7.183  -5.200  0.00  0.00    +0.033 C 
ATOM     32  C   UNL     1       0.059   8.194  -5.315  0.00  0.00    +0.009 C 
ENDBRANCH  27  31
ENDBRANCH   1  28
BRANCH   7  33
ATOM     33  C   UNL     1       3.544   6.194  -0.447  0.00  0.00    +0.348 C 
ATOM     34  O   UNL     1       4.194   6.005  -1.447  0.00  0.00    -0.248 OA
ATOM     35  O   UNL     1       4.132   6.124   0.758  0.00  0.00    -0.248 OA
ENDBRANCH   7  33
BRANCH   7  36
ATOM     36  C   UNL     1       1.844   8.021  -0.579  0.00  0.00    +0.155 C 
BRANCH  36  37
ATOM     37  O   UNL     1       2.315   8.597   0.641  0.00  0.00    -0.396 OA
ATOM     38  H   UNL     1       2.234   9.682   0.804  0.00  0.00    +0.209 HD
ENDBRANCH  36  37
ENDBRANCH   7  36
TORSDOF 7
