REMARK  Name = ZINC16146870
REMARK  8 active torsions:
REMARK  status: ('A' for Active; 'I' for Inactive)
REMARK    1  A    between atoms: C_1  and  C_2
REMARK    2  A    between atoms: C_5  and  N_19
REMARK    3  A    between atoms: C_7  and  S_8
REMARK    4  A    between atoms: S_8  and  N_11
REMARK    5  A    between atoms: N_11  and  C_12
REMARK    6  A    between atoms: N_19  and  S_20
REMARK    7  A    between atoms: S_20  and  C_23
REMARK    8  A    between atoms: C_26  and  N_29
REMARK                            x       y       z     vdW  Elec       q    Type
REMARK                         _______ _______ _______ _____ _____    ______ ____
ROOT
ATOM      1  C   UNL     1      -1.324  -0.783   0.036  0.00  0.00    +0.046 C 
ATOM      2  C   UNL     1      -0.005  -0.054   0.032  0.00  0.00    -0.024 A 
ATOM      3  C   UNL     1       1.178  -0.770   0.050  0.00  0.00    +0.007 A 
ATOM      4  C   UNL     1       2.389  -0.106   0.046  0.00  0.00    +0.025 A 
ATOM      5  C   UNL     1       2.417   1.283   0.024  0.00  0.00    +0.050 A 
ATOM      6  C   UNL     1       1.227   1.999   0.007  0.00  0.00    +0.053 A 
ATOM      7  C   UNL     1       0.019   1.328   0.011  0.00  0.00    +0.113 A 
ENDROOT
BRANCH   7   8
ATOM      8  S   UNL     1      -1.491   2.234  -0.019  0.00  0.00    +0.073 S 
ATOM      9  O   UNL     1      -1.139   3.611   0.004  0.00  0.00    -0.150 OA
ATOM     10  O   UNL     1      -2.284   1.668  -1.054  0.00  0.00    -0.150 OA
BRANCH   8  11
ATOM     11  N   UNL     1      -2.278   1.923   1.404  0.00  0.00    -0.216 N 
ATOM     12  H   UNL     1      -3.111   1.426   1.400  0.00  0.00    +0.174 HD
BRANCH  11  13
ATOM     13  C   UNL     1      -1.741   2.375   2.612  0.00  0.00    +0.049 A 
ATOM     14  C   UNL     1      -2.558   3.005   3.543  0.00  0.00    +0.024 A 
ATOM     15  C   UNL     1      -2.025   3.451   4.737  0.00  0.00    +0.003 A 
ATOM     16  C   UNL     1      -0.680   3.272   5.006  0.00  0.00    +0.020 A 
ATOM     17  C   UNL     1       0.136   2.645   4.081  0.00  0.00    +0.043 A 
ATOM     18  C   UNL     1      -0.393   2.192   2.886  0.00  0.00    +0.044 A 
ATOM     19 CL   UNL     1       1.823   2.421   4.424  0.00  0.00    -0.083 Cl
ENDBRANCH  11  13
ENDBRANCH   8  11
ENDBRANCH   7   8
BRANCH   5  20
ATOM     20  N   UNL     1       3.640   1.958   0.021  0.00  0.00    -0.216 N 
ATOM     21  H   UNL     1       3.773   2.722   0.604  0.00  0.00    +0.174 HD
BRANCH  20  22
ATOM     22  S   UNL     1       4.861   1.455  -0.978  0.00  0.00    +0.072 S 
ATOM     23  O   UNL     1       5.948   2.347  -0.772  0.00  0.00    -0.150 OA
ATOM     24  O   UNL     1       4.982   0.051  -0.795  0.00  0.00    -0.150 OA
BRANCH  22  25
ATOM     25  C   UNL     1       4.314   1.702  -2.635  0.00  0.00    +0.109 A 
ATOM     26  C   UNL     1       3.640   0.693  -3.297  0.00  0.00    +0.031 A 
ATOM     27  C   UNL     1       3.207   0.888  -4.596  0.00  0.00    +0.034 A 
ATOM     28  C   UNL     1       3.456   2.088  -5.234  0.00  0.00    +0.126 A 
ATOM     29  C   UNL     1       4.134   3.095  -4.573  0.00  0.00    +0.034 A 
ATOM     30  C   UNL     1       4.563   2.902  -3.273  0.00  0.00    +0.031 A 
BRANCH  28  31
ATOM     31  N   UNL     1       2.997   2.295  -6.626  0.00  0.00    +0.056 N 
ATOM     32  O   UNL     1       3.216   3.353  -7.189  0.00  0.00    -0.126 OA
ATOM     33  O   UNL     1       2.400   1.408  -7.209  0.00  0.00    -0.126 OA
ENDBRANCH  28  31
ENDBRANCH  22  25
ENDBRANCH  20  22
ENDBRANCH   5  20
TORSDOF 7
