REMARK  Name = ZINC40362264
REMARK  5 active torsions:
REMARK  status: ('A' for Active; 'I' for Inactive)
REMARK    1  A    between atoms: C_4  and  C_7
REMARK    2  A    between atoms: C_7  and  C_9
REMARK    3  A    between atoms: C_7  and  N_12
REMARK    4  A    between atoms: C_9  and  N_11
REMARK    5  A    between atoms: N_15  and  C_16
REMARK                            x       y       z     vdW  Elec       q    Type
REMARK                         _______ _______ _______ _____ _____    ______ ____
ROOT
ATOM      1  C   UNL     1       2.870  -0.461  -2.527  0.00  0.00    +0.129 C 
ENDROOT
BRANCH   1   5
ATOM      2  C   UNL     1       0.999  -0.967   1.343  0.00  0.00    +0.000 C 
ATOM      3  C   UNL     1       0.167  -0.354   0.214  0.00  0.00    +0.000 C 
ATOM      4  C   UNL     1       0.809  -0.692  -1.133  0.00  0.00    +0.006 C 
ATOM      5  C   UNL     1       2.228  -0.123  -1.179  0.00  0.00    +0.016 C 
ATOM      6  C   UNL     1       3.060  -0.736  -0.051  0.00  0.00    +0.006 C 
ATOM      7  C   UNL     1       2.418  -0.398   1.297  0.00  0.00    +0.000 C 
ENDBRANCH   1   5
BRANCH   1   8
ATOM      8  N   UNL     1       2.983  -1.916  -2.662  0.00  0.00    -0.291 N 
ATOM      9  C   UNL     1       3.030  -2.477  -3.887  0.00  0.00    +0.300 C 
ATOM     10  O   UNL     1       2.978  -1.776  -4.879  0.00  0.00    -0.253 OA
ATOM     11  N   UNL     1       3.135  -3.814  -4.012  0.00  0.00    -0.297 N 
ATOM     12  H   UNL     1       3.025  -2.475  -1.871  0.00  0.00    +0.151 HD
ATOM     13  H   UNL     1       3.176  -4.374  -3.220  0.00  0.00    +0.151 HD
BRANCH  11  14
ATOM     14  C   UNL     1       3.186  -4.424  -5.343  0.00  0.00    +0.074 C 
ATOM     15  C   UNL     1       1.762  -4.634  -5.863  0.00  0.00    +0.022 C 
ATOM     16  C   UNL     1       1.816  -5.271  -7.253  0.00  0.00    +0.002 C 
ATOM     17  C   UNL     1       2.532  -6.620  -7.168  0.00  0.00    +0.000 C 
ATOM     18  C   UNL     1       3.956  -6.410  -6.649  0.00  0.00    +0.002 C 
ATOM     19  C   UNL     1       3.902  -5.774  -5.258  0.00  0.00    +0.022 C 
ENDBRANCH  11  14
ENDBRANCH   1   8
BRANCH   1  20
ATOM     20  C   UNL     1       4.241   0.159  -2.600  0.00  0.00    +0.067 C 
ATOM     21  S   UNL     1       5.540  -0.774  -2.612  0.00  0.00    -0.039 S 
BRANCH  20  22
ATOM     22  N   UNL     1       4.373   1.499  -2.654  0.00  0.00    -0.354 N 
ATOM     23  H   UNL     1       3.591   2.067  -2.574  0.00  0.00    +0.143 HD
ATOM     24  H   UNL     1       5.250   1.895  -2.775  0.00  0.00    +0.143 HD
ENDBRANCH  20  22
ENDBRANCH   1  20
TORSDOF 5
