REMARK  Name = ZINC54396352
REMARK  4 active torsions:
REMARK  status: ('A' for Active; 'I' for Inactive)
REMARK    1  A    between atoms: C_4  and  S_8
REMARK    2  A    between atoms: S_8  and  C_9
REMARK    3  A    between atoms: C_10  and  C_15
REMARK    4  A    between atoms: N_16  and  O_17
REMARK                            x       y       z     vdW  Elec       q    Type
REMARK                         _______ _______ _______ _____ _____    ______ ____
ROOT
ATOM      1  C   UNL     1      -3.289  -2.594   0.024  0.00  0.00    +0.133 A 
ATOM      2  C   UNL     1      -4.231  -3.635  -0.002  0.00  0.00    +0.139 A 
ATOM      3  N   UNL     1      -3.816  -4.897  -0.029  0.00  0.00    -0.248 NA
ATOM      4  C   UNL     1      -2.524  -5.167  -0.031  0.00  0.00    +0.131 A 
ATOM      5  C   UNL     1      -1.595  -4.140  -0.004  0.00  0.00    +0.132 A 
ATOM      6  N   UNL     1      -1.993  -2.880   0.017  0.00  0.00    -0.245 NA
ENDROOT
BRANCH   2   7
ATOM      7  C   UNL     1      -5.678  -3.328   0.000  0.00  0.00    +0.183 C 
ATOM      8  N   UNL     1      -6.293  -3.085  -1.120  0.00  0.00    -0.070 NA
ATOM      9  N   UNL     1      -6.378  -3.300   1.195  0.00  0.00    -0.339 N 
ATOM     10  H   UNL     1      -5.919  -3.482   2.030  0.00  0.00    +0.144 HD
ATOM     11  H   UNL     1      -7.327  -3.099   1.197  0.00  0.00    +0.144 HD
BRANCH   8  12
ATOM     12  O   UNL     1      -5.606  -3.226  -2.350  0.00  0.00    -0.408 OA
ATOM     13  H   UNL     1      -6.120  -2.951  -3.122  0.00  0.00    +0.328 HD
ENDBRANCH   8  12
ENDBRANCH   2   7
BRANCH   1  14
ATOM     14  S   UNL     1      -3.824  -0.915   0.059  0.00  0.00    -0.028 S 
BRANCH  14  18
ATOM     15  C   UNL     1      -0.050   1.428   0.103  0.00  0.00    +0.092 A 
ATOM     16  C   UNL     1      -1.278   2.063   0.117  0.00  0.00    +0.119 A 
ATOM     17  N   UNL     1      -2.383   1.334   0.103  0.00  0.00    -0.230 NA
ATOM     18  C   UNL     1      -2.325   0.010   0.076  0.00  0.00    +0.198 A 
ATOM     19  N   UNL     1      -1.168  -0.634   0.062  0.00  0.00    -0.183 NA
ATOM     20  C   UNL     1      -0.021   0.034   0.074  0.00  0.00    +0.274 A 
ATOM     21  O   UNL     1       1.161  -0.628   0.053  0.00  0.00    -0.266 OA
ENDBRANCH  14  18
ENDBRANCH   1  14
TORSDOF 4
