REMARK  Name = ZINC49487620
REMARK  11 active torsions:
REMARK  status: ('A' for Active; 'I' for Inactive)
REMARK    1  A    between atoms: C_1  and  C_2
REMARK    2  A    between atoms: C_2  and  C_3
REMARK    3  A    between atoms: C_2  and  C_4
REMARK    4  A    between atoms: C_13  and  N_16
REMARK    5  A    between atoms: C_17  and  C_19
REMARK    6  A    between atoms: N_21  and  C_22
REMARK    7  A    between atoms: C_22  and  C_23
REMARK    8  A    between atoms: C_23  and  C_25
REMARK    9  A    between atoms: C_23  and  N_35
REMARK   10  A    between atoms: N_35  and  C_36
REMARK   11  A    between atoms: N_35  and  C_37
REMARK                            x       y       z     vdW  Elec       q    Type
REMARK                         _______ _______ _______ _____ _____    ______ ____
ROOT
ATOM      1  C   UNL     1      -8.858  -0.542   2.000  0.00  0.00    +0.299 C 
ATOM      2  O   UNL     1      -8.835   0.671   2.007  0.00  0.00    -0.265 OA
ATOM      3  N   UNL     1     -10.036  -1.194   2.055  0.00  0.00    -0.309 N 
ATOM      4  H   UNL     1     -10.055  -2.164   2.050  0.00  0.00    +0.149 HD
ENDROOT
BRANCH   1   6
ATOM      5  N   UNL     1      -6.402  -0.661   1.876  0.00  0.00    -0.278 N 
ATOM      6  C   UNL     1      -7.580  -1.313   1.931  0.00  0.00    +0.303 C 
ATOM      7  O   UNL     1      -7.604  -2.526   1.924  0.00  0.00    -0.265 OA
ATOM      8  H   UNL     1      -6.378   0.305   1.954  0.00  0.00    +0.155 HD
BRANCH   5  18
ATOM      9  C   UNL     1      -1.639   0.045   3.284  0.00  0.00    +0.222 C 
ATOM     10  O   UNL     1      -2.566   0.812   3.128  0.00  0.00    -0.275 OA
ATOM     11  N   UNL     1      -1.696  -1.196   2.763  0.00  0.00    -0.271 N 
ATOM     12  C   UNL     1      -0.534  -2.093   2.839  0.00  0.00    +0.114 C 
ATOM     13  C   UNL     1      -0.363  -2.755   1.466  0.00  0.00    +0.024 C 
ATOM     14  C   UNL     1      -1.595  -3.610   1.172  0.00  0.00    +0.038 C 
ATOM     15  C   UNL     1      -2.854  -2.806   1.367  0.00  0.00    -0.026 A 
ATOM     16  C   UNL     1      -2.867  -1.656   2.144  0.00  0.00    +0.041 A 
ATOM     17  C   UNL     1      -4.045  -0.941   2.314  0.00  0.00    +0.047 A 
ATOM     18  C   UNL     1      -5.215  -1.378   1.707  0.00  0.00    +0.036 A 
ATOM     19  C   UNL     1      -5.200  -2.531   0.931  0.00  0.00    +0.024 A 
ATOM     20  C   UNL     1      -4.021  -3.235   0.757  0.00  0.00    +0.007 A 
BRANCH   9  22
ATOM     21  C   UNL     1      -0.613   1.922   4.538  0.00  0.00    +0.017 C 
ATOM     22  C   UNL     1      -0.423   0.481   4.061  0.00  0.00    +0.069 C 
ATOM     23  C   UNL     1      -0.234  -0.436   5.270  0.00  0.00    +0.017 C 
ENDBRANCH   9  22
ENDBRANCH   5  18
ENDBRANCH   1   6
BRANCH   3  24
ATOM     24  C   UNL     1     -11.289  -0.438   2.122  0.00  0.00    +0.094 C 
BRANCH  24  25
ATOM     25  C   UNL     1     -12.473  -1.404   2.051  0.00  0.00    -0.020 C 
BRANCH  25  26
ATOM     26  C   UNL     1     -12.499  -2.067   0.698  0.00  0.00    -0.052 A 
ATOM     27  C   UNL     1     -12.011  -3.329   0.544  0.00  0.00    +0.003 A 
ATOM     28  C   UNL     1     -12.026  -3.958  -0.699  0.00  0.00    +0.001 A 
ATOM     29  C   UNL     1     -12.531  -3.329  -1.796  0.00  0.00    +0.008 A 
ATOM     30  C   UNL     1     -13.044  -2.027  -1.676  0.00  0.00    -0.018 A 
ATOM     31  C   UNL     1     -13.034  -1.389  -0.410  0.00  0.00    -0.016 A 
ATOM     32  C   UNL     1     -13.553  -0.088  -0.289  0.00  0.00    +0.009 A 
ATOM     33  C   UNL     1     -14.062   0.537  -1.385  0.00  0.00    +0.001 A 
ATOM     34  C   UNL     1     -14.079  -0.092  -2.629  0.00  0.00    +0.001 A 
ATOM     35  C   UNL     1     -13.573  -1.346  -2.786  0.00  0.00    +0.008 A 
ENDBRANCH  25  26
BRANCH  25  36
ATOM     36  N   UNL     1     -12.332  -2.428   3.095  0.00  0.00    +0.382 N 
ATOM     37  C   UNL     1     -12.238  -1.778   4.409  0.00  0.00    -0.096 C 
ATOM     38  C   UNL     1     -13.503  -3.316   3.071  0.00  0.00    -0.096 C 
ATOM     39  H   UNL     1     -11.497  -2.968   2.927  0.00  0.00    -0.082 HD
ENDBRANCH  25  36
ENDBRANCH  24  25
ENDBRANCH   3  24
TORSDOF 7
