REMARK  Name = ZINC14939818
REMARK  8 active torsions:
REMARK  status: ('A' for Active; 'I' for Inactive)
REMARK    1  A    between atoms: C_1  and  C_2
REMARK    2  A    between atoms: C_3  and  C_13
REMARK    3  A    between atoms: C_5  and  C_7
REMARK    4  A    between atoms: N_15  and  N_16
REMARK    5  A    between atoms: C_17  and  C_19
REMARK    6  A    between atoms: C_19  and  C_20
REMARK    7  A    between atoms: C_20  and  C_21
REMARK    8  A    between atoms: C_23  and  C_26
REMARK                            x       y       z     vdW  Elec       q    Type
REMARK                         _______ _______ _______ _____ _____    ______ ____
ROOT
ATOM      1  N   UNL     1       2.554   4.229   0.000  0.00  0.00    -0.234 N 
ATOM      2  C   UNL     1       1.397   3.539   0.008  0.00  0.00    +0.230 C 
ATOM      3  O   UNL     1       0.338   4.131   0.021  0.00  0.00    -0.274 OA
ATOM      4  H   UNL     1       3.401   3.755  -0.010  0.00  0.00    +0.173 HD
ENDROOT
BRANCH   1   7
ATOM      5  C   UNL     1       3.693   6.319   0.001  0.00  0.00    +0.269 C 
ATOM      6  O   UNL     1       4.755   5.725  -0.013  0.00  0.00    -0.268 OA
ATOM      7  N   UNL     1       2.535   5.630   0.008  0.00  0.00    -0.230 N 
ATOM      8  H   UNL     1       1.689   6.103   0.019  0.00  0.00    +0.173 HD
BRANCH   5  11
ATOM      9  C   UNL     1       6.160   8.211  -0.011  0.00  0.00    +0.067 C 
ATOM     10  C   UNL     1       4.730   8.687   0.004  0.00  0.00    +0.058 A 
ATOM     11  C   UNL     1       3.674   7.785   0.009  0.00  0.00    +0.098 A 
ATOM     12  S   UNL     1       2.283   8.908   0.020  0.00  0.00    -0.062 S 
ATOM     13  C   UNL     1       3.189  10.390   0.026  0.00  0.00    +0.109 A 
ATOM     14  N   UNL     1       4.443   9.960   0.012  0.00  0.00    -0.243 NA
BRANCH  13  15
ATOM     15  C   UNL     1       2.687  11.780   0.037  0.00  0.00    +0.007 A 
ATOM     16  C   UNL     1       3.585  12.849   0.040  0.00  0.00    +0.010 A 
ATOM     17  C   UNL     1       3.110  14.144   0.046  0.00  0.00    +0.001 A 
ATOM     18  C   UNL     1       1.748  14.385   0.060  0.00  0.00    +0.000 A 
ATOM     19  C   UNL     1       0.853  13.330   0.062  0.00  0.00    +0.001 A 
ATOM     20  C   UNL     1       1.314  12.030   0.051  0.00  0.00    +0.010 A 
ENDBRANCH  13  15
ENDBRANCH   5  11
ENDBRANCH   1   7
BRANCH   2  21
ATOM     21  C   UNL     1       1.417   2.032  -0.001  0.00  0.00    +0.107 C 
BRANCH  21  22
ATOM     22  C   UNL     1      -0.018   1.503   0.010  0.00  0.00    +0.108 C 
BRANCH  22  23
ATOM     23  C   UNL     1       0.002  -0.004   0.002  0.00  0.00    +0.228 A 
ATOM     24  N   UNL     1       0.023  -0.788   1.051  0.00  0.00    -0.191 NA
ATOM     25  C   UNL     1       0.035  -2.049   0.563  0.00  0.00    +0.202 A 
ATOM     26  N   UNL     1       0.021  -1.957  -0.741  0.00  0.00    -0.056 NA
ATOM     27  O   UNL     1      -0.003  -0.792  -1.078  0.00  0.00    -0.338 OA
BRANCH  25  28
ATOM     28  C   UNL     1       0.059  -3.301   1.358  0.00  0.00    +0.023 A 
ATOM     29  C   UNL     1       0.079  -3.245   2.751  0.00  0.00    +0.013 A 
ATOM     30  C   UNL     1       0.096  -4.412   3.486  0.00  0.00    +0.021 A 
ATOM     31  C   UNL     1       0.106  -5.638   2.842  0.00  0.00    +0.041 A 
ATOM     32  C   UNL     1       0.093  -5.699   1.459  0.00  0.00    +0.021 A 
ATOM     33  C   UNL     1       0.070  -4.537   0.715  0.00  0.00    +0.013 A 
ATOM     34 CL   UNL     1       0.136  -7.103   3.773  0.00  0.00    -0.084 Cl
ENDBRANCH  25  28
ENDBRANCH  22  23
ENDBRANCH  21  22
ENDBRANCH   2  21
TORSDOF 7
