REMARK  Name = ZINC63613541
REMARK  6 active torsions:
REMARK  status: ('A' for Active; 'I' for Inactive)
REMARK    1  A    between atoms: C_1  and  C_2
REMARK    2  A    between atoms: C_6  and  C_8
REMARK    3  A    between atoms: N_12  and  C_22
REMARK    4  A    between atoms: N_14  and  C_15
REMARK    5  A    between atoms: C_22  and  C_23
REMARK    6  A    between atoms: C_23  and  C_24
REMARK                            x       y       z     vdW  Elec       q    Type
REMARK                         _______ _______ _______ _____ _____    ______ ____
ROOT
ATOM      1  C   UNL     1       0.052  -2.845   2.449  0.00  0.00    +0.028 C 
ATOM      2  C   UNL     1      -0.033  -4.199   2.437  0.00  0.00    +0.078 C 
ATOM      3  C   UNL     1      -0.142  -5.140   3.570  0.00  0.00    +0.259 C 
ATOM      4  O   UNL     1      -0.168  -4.750   4.723  0.00  0.00    -0.269 OA
ATOM      5  N   UNL     1      -0.210  -6.427   3.275  0.00  0.00    -0.246 N 
ATOM      6  C   UNL     1      -0.180  -6.849   1.963  0.00  0.00    +0.168 C 
ATOM      7  N   UNL     1      -0.238  -8.078   1.499  0.00  0.00    -0.225 NA
ATOM      8  S   UNL     1      -0.051  -5.322   1.048  0.00  0.00    -0.049 S 
ENDROOT
BRANCH   1  14
ATOM      9  C   UNL     1       0.030   1.416  -0.139  0.00  0.00    +0.044 C 
ATOM     10  C   UNL     1       0.304  -0.063  -0.053  0.00  0.00    -0.050 A 
ATOM     11  C   UNL     1       0.802  -0.738  -1.154  0.00  0.00    +0.003 A 
ATOM     12  C   UNL     1       1.056  -2.097  -1.086  0.00  0.00    +0.001 A 
ATOM     13  C   UNL     1       0.815  -2.789   0.082  0.00  0.00    +0.008 A 
ATOM     14  C   UNL     1       0.312  -2.115   1.200  0.00  0.00    -0.024 A 
ATOM     15  C   UNL     1       0.062  -0.740   1.124  0.00  0.00    +0.011 A 
ENDBRANCH   1  14
BRANCH   7  16
ATOM     16  C   UNL     1      -0.193  -8.302   0.150  0.00  0.00    +0.067 A 
ATOM     17  C   UNL     1      -0.957  -7.518  -0.717  0.00  0.00    +0.028 A 
ATOM     18  C   UNL     1      -0.907  -7.750  -2.076  0.00  0.00    +0.002 A 
ATOM     19  C   UNL     1      -0.102  -8.755  -2.580  0.00  0.00    +0.000 A 
ATOM     20  C   UNL     1       0.658  -9.536  -1.727  0.00  0.00    +0.002 A 
ATOM     21  C   UNL     1       0.622  -9.312  -0.366  0.00  0.00    +0.028 A 
ENDBRANCH   7  16
BRANCH   5  22
ATOM     22  C   UNL     1      -0.319  -7.414   4.352  0.00  0.00    +0.120 C 
BRANCH  22  23
ATOM     23  C   UNL     1      -1.795  -7.668   4.664  0.00  0.00    +0.052 C 
BRANCH  23  24
ATOM     24  C   UNL     1      -1.907  -8.683   5.773  0.00  0.00    -0.040 C 
ATOM     25  C   UNL     1      -2.049  -8.431   7.094  0.00  0.00    -0.001 A 
ATOM     26  C   UNL     1      -2.137  -7.186   7.866  0.00  0.00    +0.010 A 
ATOM     27  C   UNL     1      -2.278  -7.255   9.209  0.00  0.00    +0.001 A 
ATOM     28  C   UNL     1      -2.343  -8.483   9.881  0.00  0.00    +0.002 A 
ATOM     29  C   UNL     1      -2.269  -9.670   9.241  0.00  0.00    +0.026 A 
ATOM     30  C   UNL     1      -2.120  -9.716   7.827  0.00  0.00    +0.043 A 
ATOM     31  N   UNL     1      -2.026 -10.721   6.992  0.00  0.00    -0.380 N 
ATOM     32  C   UNL     1      -1.890 -10.188   5.631  0.00  0.00    +0.144 C 
ATOM     33  H   UNL     1      -2.046 -11.661   7.232  0.00  0.00    +0.160 HD
ENDBRANCH  23  24
ENDBRANCH  22  23
ENDBRANCH   5  22
TORSDOF 5
