REMARK  Name = ZINC09292523
REMARK  10 active torsions:
REMARK  status: ('A' for Active; 'I' for Inactive)
REMARK    1  A    between atoms: C_1  and  N_60
REMARK    2  A    between atoms: C_2  and  N_60
REMARK    3  A    between atoms: C_3  and  C_4
REMARK    4  A    between atoms: C_3  and  N_60
REMARK    5  A    between atoms: C_4  and  C_5
REMARK    6  A    between atoms: C_5  and  N_6
REMARK    7  A    between atoms: C_16  and  C_18
REMARK    8  A    between atoms: C_23  and  N_24
REMARK    9  A    between atoms: N_24  and  S_25
REMARK   10  A    between atoms: S_25  and  C_28
REMARK                            x       y       z     vdW  Elec       q    Type
REMARK                         _______ _______ _______ _____ _____    ______ ____
ROOT
ATOM      1  N   UNL     1      -1.546   7.137   0.293  0.00  0.00    -0.246 N 
ATOM      2  C   UNL     1      -1.275   5.783   0.386  0.00  0.00    +0.168 A 
ATOM      3  N   UNL     1      -0.125   5.162   0.259  0.00  0.00    -0.224 NA
ATOM      4  C   UNL     1      -0.007   3.822   0.376  0.00  0.00    +0.080 A 
ATOM      5  C   UNL     1       1.163   3.035   0.263  0.00  0.00    +0.029 A 
ATOM      6  C   UNL     1       1.108   1.674   0.410  0.00  0.00    +0.002 A 
ATOM      7  C   UNL     1      -0.087   1.021   0.674  0.00  0.00    +0.001 A 
ATOM      8  C   UNL     1      -1.252   1.758   0.786  0.00  0.00    +0.017 A 
ATOM      9  C   UNL     1      -1.206   3.122   0.644  0.00  0.00    +0.041 A 
ATOM     10  S   UNL     1      -2.403   4.434   0.709  0.00  0.00    -0.052 S 
ATOM     11  C   UNL     1      -0.549   8.008   0.040  0.00  0.00    +0.254 C 
ATOM     12  O   UNL     1       0.598   7.611  -0.044  0.00  0.00    -0.270 OA
ENDROOT
BRANCH  11  13
ATOM     13  C   UNL     1      -0.848   9.440  -0.136  0.00  0.00    +0.060 A 
ATOM     14  C   UNL     1      -0.378  10.375   0.790  0.00  0.00    +0.015 A 
ATOM     15  C   UNL     1      -0.661  11.713   0.620  0.00  0.00    +0.001 A 
ATOM     16  C   UNL     1      -1.410  12.137  -0.467  0.00  0.00    +0.002 A 
ATOM     17  C   UNL     1      -1.881  11.227  -1.390  0.00  0.00    +0.025 A 
ATOM     18  C   UNL     1      -1.602   9.874  -1.238  0.00  0.00    +0.060 A 
BRANCH  18  19
ATOM     19  N   UNL     1      -2.071   8.956  -2.168  0.00  0.00    -0.216 N 
ATOM     20  H   UNL     1      -2.352   8.074  -1.880  0.00  0.00    +0.174 HD
BRANCH  19  21
ATOM     21  S   UNL     1      -2.148   9.367  -3.771  0.00  0.00    +0.072 S 
ATOM     22  O   UNL     1      -2.529   8.192  -4.473  0.00  0.00    -0.150 OA
ATOM     23  O   UNL     1      -2.894  10.574  -3.844  0.00  0.00    -0.150 OA
BRANCH  21  24
ATOM     24  C   UNL     1      -0.510   9.755  -4.289  0.00  0.00    +0.109 A 
ATOM     25  C   UNL     1      -0.045  11.054  -4.195  0.00  0.00    +0.031 A 
ATOM     26  C   UNL     1       1.242  11.359  -4.597  0.00  0.00    +0.040 A 
ATOM     27  C   UNL     1       2.062  10.365  -5.103  0.00  0.00    +0.124 A 
ATOM     28  C   UNL     1       1.593   9.066  -5.202  0.00  0.00    +0.040 A 
ATOM     29  C   UNL     1       0.308   8.762  -4.795  0.00  0.00    +0.031 A 
ATOM     30  F   UNL     1       3.318  10.663  -5.501  0.00  0.00    -0.205 F 
ENDBRANCH  21  24
ENDBRANCH  19  21
ENDBRANCH  18  19
ENDBRANCH  11  13
BRANCH   1  31
ATOM     31  C   UNL     1      -2.916   7.624   0.470  0.00  0.00    +0.114 C 
BRANCH  31  32
ATOM     32  C   UNL     1      -3.129   8.030   1.930  0.00  0.00    +0.001 C 
BRANCH  32  33
ATOM     33  C   UNL     1      -4.560   8.539   2.115  0.00  0.00    -0.078 C 
BRANCH  33  36
ATOM     34  C   UNL     1      -6.038   9.639   3.685  0.00  0.00    -0.097 C 
ATOM     35  C   UNL     1      -4.691   7.760   4.403  0.00  0.00    -0.097 C 
ATOM     36  N   UNL     1      -4.742   8.947   3.523  0.00  0.00    +0.376 N 
ATOM     37  H   UNL     1      -3.986   9.589   3.785  0.00  0.00    -0.083 HD
ENDBRANCH  33  36
ENDBRANCH  32  33
ENDBRANCH  31  32
ENDBRANCH   1  31
TORSDOF 8
