REMARK  Name = ZINC02727242
REMARK  11 active torsions:
REMARK  status: ('A' for Active; 'I' for Inactive)
REMARK    1  A    between atoms: C_1  and  C_2
REMARK    2  A    between atoms: C_2  and  S_3
REMARK    3  A    between atoms: S_3  and  C_4
REMARK    4  A    between atoms: C_4  and  C_5
REMARK    5  A    between atoms: C_5  and  O_6
REMARK    6  A    between atoms: O_6  and  C_7
REMARK    7  A    between atoms: C_7  and  C_9
REMARK    8  A    between atoms: C_10  and  C_36
REMARK    9  A    between atoms: C_14  and  C_16
REMARK   10  A    between atoms: C_19  and  N_22
REMARK   11  A    between atoms: C_28  and  C_31
REMARK                            x       y       z     vdW  Elec       q    Type
REMARK                         _______ _______ _______ _____ _____    ______ ____
ROOT
ATOM      1  C   UNL     1      -1.594   2.462  -3.695  0.00  0.00    +0.065 C 
ATOM      2  C   UNL     1      -0.951   1.296  -3.509  0.00  0.00    +0.016 C 
ATOM      3  N   UNL     1      -0.741   0.816  -2.246  0.00  0.00    -0.321 N 
ATOM      4  C   UNL     1      -0.804   1.651  -1.163  0.00  0.00    +0.016 C 
ATOM      5  C   UNL     1      -1.444   2.836  -1.248  0.00  0.00    +0.024 C 
ATOM      6  C   UNL     1      -2.104   3.264  -2.535  0.00  0.00    +0.092 C 
ATOM      7  C   UNL     1      -1.517   3.703  -0.143  0.00  0.00    +0.162 C 
ATOM      8  O   UNL     1      -2.085   4.770  -0.259  0.00  0.00    -0.292 OA
ATOM      9  C   UNL     1      -0.904   3.331   1.179  0.00  0.00    +0.088 C 
ATOM     10  C   UNL     1      -0.897   1.805   1.313  0.00  0.00    +0.039 C 
ATOM     11  C   UNL     1      -0.140   1.216   0.120  0.00  0.00    +0.060 C 
ATOM     12  C   UNL     1      -0.460   0.513  -4.699  0.00  0.00    +0.061 C 
ATOM     13  H   UNL     1      -0.517  -0.251  -2.093  0.00  0.00    +0.152 HD
ENDROOT
BRANCH   6  14
ATOM     14  C   UNL     1      -3.594   3.069  -2.415  0.00  0.00    -0.035 A 
ATOM     15  C   UNL     1      -4.108   1.808  -2.179  0.00  0.00    +0.007 A 
ATOM     16  C   UNL     1      -5.474   1.629  -2.063  0.00  0.00    +0.033 A 
ATOM     17  C   UNL     1      -6.326   2.710  -2.196  0.00  0.00    +0.126 A 
ATOM     18  C   UNL     1      -5.812   3.970  -2.437  0.00  0.00    +0.033 A 
ATOM     19  C   UNL     1      -4.445   4.149  -2.547  0.00  0.00    +0.007 A 
BRANCH  17  20
ATOM     20  N   UNL     1      -7.789   2.518  -2.079  0.00  0.00    +0.056 N 
ATOM     21  O   UNL     1      -8.540   3.470  -2.195  0.00  0.00    -0.126 OA
ATOM     22  O   UNL     1      -8.242   1.407  -1.866  0.00  0.00    -0.126 OA
ENDBRANCH  17  20
ENDBRANCH   6  14
BRANCH  10  23
ATOM     23  C   UNL     1      -0.206   1.413   2.594  0.00  0.00    -0.006 A 
ATOM     24  C   UNL     1      -0.689   0.702   3.642  0.00  0.00    +0.011 A 
ATOM     25  C   UNL     1       0.135   0.459   4.725  0.00  0.00    +0.008 A 
ATOM     26  C   UNL     1       1.403   0.939   4.707  0.00  0.00    +0.045 A 
ATOM     27  S   UNL     1       1.465   1.758   3.122  0.00  0.00    -0.101 S 
ENDBRANCH  10  23
BRANCH   1  28
ATOM     28  C   UNL     1      -1.793   2.941  -5.011  0.00  0.00    +0.338 C 
ATOM     29  O   UNL     1      -1.294   2.355  -5.954  0.00  0.00    -0.245 OA
BRANCH  28  30
ATOM     30  O   UNL     1      -2.536   4.048  -5.221  0.00  0.00    -0.460 OA
BRANCH  30  31
ATOM     31  C   UNL     1      -2.695   4.475  -6.575  0.00  0.00    +0.243 C 
BRANCH  31  32
ATOM     32  C   UNL     1      -3.561   5.736  -6.614  0.00  0.00    +0.110 C 
BRANCH  32  33
ATOM     33  S   UNL     1      -3.763   6.279  -8.333  0.00  0.00    -0.158 S 
BRANCH  33  35
ATOM     34  C   UNL     1      -5.051   8.329  -9.604  0.00  0.00    +0.015 C 
ATOM     35  C   UNL     1      -4.800   7.762  -8.206  0.00  0.00    +0.066 C 
ENDBRANCH  33  35
ENDBRANCH  32  33
ENDBRANCH  31  32
ENDBRANCH  30  31
ENDBRANCH  28  30
ENDBRANCH   1  28
TORSDOF 9
