REMARK  Name = ZINC00651025
REMARK  10 active torsions:
REMARK  status: ('A' for Active; 'I' for Inactive)
REMARK    1  A    between atoms: C_1  and  C_2
REMARK    2  A    between atoms: C_4  and  C_36
REMARK    3  A    between atoms: C_5  and  C_17
REMARK    4  A    between atoms: C_7  and  C_8
REMARK    5  A    between atoms: C_8  and  S_9
REMARK    6  A    between atoms: S_9  and  C_10
REMARK    7  A    between atoms: C_26  and  C_34
REMARK    8  A    between atoms: C_27  and  N_33
REMARK    9  A    between atoms: C_28  and  C_29
REMARK   10  A    between atoms: C_28  and  C_31
REMARK                            x       y       z     vdW  Elec       q    Type
REMARK                         _______ _______ _______ _____ _____    ______ ____
ROOT
ATOM      1  C   UNL     1      -2.594   4.172  -0.379  0.00  0.00    +0.066 C 
ATOM      2  C   UNL     1      -3.213   3.687  -1.692  0.00  0.00    +0.030 C 
ATOM      3  C   UNL     1      -2.458   4.201  -2.895  0.00  0.00    +0.009 C 
ATOM      4  C   UNL     1      -1.493   3.156  -3.452  0.00  0.00    +0.005 C 
ATOM      5  C   UNL     1      -2.303   1.911  -3.842  0.00  0.00    +0.027 C 
ATOM      6  C   UNL     1      -2.962   1.382  -2.596  0.00  0.00    -0.022 C 
ATOM      7  C   UNL     1      -3.321   2.192  -1.639  0.00  0.00    -0.029 C 
ATOM      8  C   UNL     1      -3.852   1.601  -0.382  0.00  0.00    +0.074 C 
ATOM      9  C   UNL     1      -3.932   2.369   0.733  0.00  0.00    +0.054 C 
ATOM     10  C   UNL     1      -3.532   3.813   0.773  0.00  0.00    +0.188 C 
ENDROOT
BRANCH   1  15
ATOM     11  C   UNL     1       2.519   1.598   0.414  0.00  0.00    +0.044 C 
ATOM     12  C   UNL     1       1.186   2.269   0.207  0.00  0.00    -0.046 A 
ATOM     13  C   UNL     1       1.132   3.575  -0.243  0.00  0.00    +0.007 A 
ATOM     14  C   UNL     1      -0.091   4.191  -0.433  0.00  0.00    -0.047 A 
ATOM     15  C   UNL     1      -1.260   3.501  -0.172  0.00  0.00    -0.038 A 
ATOM     16  C   UNL     1      -1.206   2.193   0.273  0.00  0.00    +0.009 A 
ATOM     17  C   UNL     1       0.017   1.579   0.468  0.00  0.00    -0.034 A 
ATOM     18  C   UNL     1      -0.150   5.614  -0.924  0.00  0.00    +0.044 C 
BRANCH  17  19
ATOM     19  C   UNL     1       0.075   0.156   0.959  0.00  0.00    +0.109 C 
BRANCH  19  20
ATOM     20  S   UNL     1       0.130   0.143   2.772  0.00  0.00    -0.121 S 
BRANCH  20  21
ATOM     21  C   UNL     1       0.195  -1.568   3.185  0.00  0.00    +0.008 A 
ATOM     22  C   UNL     1       0.189  -2.528   2.180  0.00  0.00    +0.016 A 
ATOM     23  C   UNL     1       0.245  -3.868   2.506  0.00  0.00    +0.021 A 
ATOM     24  C   UNL     1       0.297  -4.257   3.834  0.00  0.00    +0.041 A 
ATOM     25  C   UNL     1       0.298  -3.304   4.837  0.00  0.00    +0.021 A 
ATOM     26  C   UNL     1       0.247  -1.962   4.517  0.00  0.00    +0.016 A 
ATOM     27 CL   UNL     1       0.359  -5.944   4.240  0.00  0.00    -0.084 Cl
ENDBRANCH  20  21
ENDBRANCH  19  20
ENDBRANCH  17  19
ENDBRANCH   1  15
BRANCH   9  28
ATOM     28  N   UNL     1      -4.401   1.796   1.881  0.00  0.00    -0.358 N 
ATOM     29  H   UNL     1      -4.478   2.392   2.802  0.00  0.00    +0.142 HD
ATOM     30  H   UNL     1      -4.703   0.738   1.884  0.00  0.00    +0.142 HD
ENDBRANCH   9  28
BRANCH  10  31
ATOM     31  C   UNL     1      -2.851   4.088   2.050  0.00  0.00    +0.091 C 
ATOM     32  N   UNL     1      -2.326   4.299   3.034  0.00  0.00    -0.194 NA
ENDBRANCH  10  31
BRANCH  10  33
ATOM     33  C   UNL     1      -4.740   4.649   0.687  0.00  0.00    +0.091 C 
ATOM     34  N   UNL     1      -5.673   5.294   0.620  0.00  0.00    -0.194 NA
ENDBRANCH  10  33
BRANCH   8  35
ATOM     35  C   UNL     1      -4.275   0.233  -0.350  0.00  0.00    +0.101 C 
ATOM     36  N   UNL     1      -4.611  -0.852  -0.324  0.00  0.00    -0.191 NA
ENDBRANCH   8  35
TORSDOF 8
