REMARK  Name = ZINC14549265
REMARK  5 active torsions:
REMARK  status: ('A' for Active; 'I' for Inactive)
REMARK    1  A    between atoms: C_2  and  C_3
REMARK    2  A    between atoms: C_3  and  N_4
REMARK    3  A    between atoms: N_4  and  S_5
REMARK    4  A    between atoms: S_5  and  C_8
REMARK    5  A    between atoms: C_21  and  C_24
REMARK                            x       y       z     vdW  Elec       q    Type
REMARK                         _______ _______ _______ _____ _____    ______ ____
ROOT
ATOM      1  C   UNL     1       6.211   0.512  -1.400  0.00  0.00    +0.106 A 
ATOM      2  C   UNL     1       6.596   1.819  -1.157  0.00  0.00    +0.030 A 
ATOM      3  C   UNL     1       5.644   2.788  -0.919  0.00  0.00    +0.025 A 
ATOM      4  C   UNL     1       4.293   2.462  -0.921  0.00  0.00    +0.031 A 
ATOM      5  C   UNL     1       3.909   1.146  -1.158  0.00  0.00    -0.018 A 
ATOM      6  C   UNL     1       4.870   0.178  -1.411  0.00  0.00    +0.034 A 
ATOM      7  C   UNL     1       2.463   0.839  -1.193  0.00  0.00    +0.049 C 
ATOM      8  C   UNL     1       1.941  -0.516  -0.878  0.00  0.00    -0.023 C 
ATOM      9  C   UNL     1       0.746  -0.389  -0.313  0.00  0.00    -0.030 C 
ATOM     10  C   UNL     1       0.388   1.092  -0.175  0.00  0.00    +0.033 C 
ATOM     11  C   UNL     1       1.777   1.742  -0.126  0.00  0.00    +0.029 C 
ATOM     12  C   UNL     1       1.898   3.159  -0.657  0.00  0.00    +0.106 C 
ATOM     13  N   UNL     1       3.346   3.460  -0.660  0.00  0.00    -0.336 N 
ATOM     14  H   UNL     1       3.646   4.364  -0.479  0.00  0.00    +0.147 HD
ENDROOT
BRANCH  12  15
ATOM     15  C   UNL     1       1.346   3.239  -2.057  0.00  0.00    -0.012 A 
ATOM     16  C   UNL     1       2.199   3.466  -3.135  0.00  0.00    -0.012 A 
ATOM     17  C   UNL     1       3.589   3.626  -2.944  0.00  0.00    +0.009 A 
ATOM     18  C   UNL     1       4.392   3.845  -4.016  0.00  0.00    +0.001 A 
ATOM     19  C   UNL     1       3.881   3.920  -5.312  0.00  0.00    +0.001 A 
ATOM     20  C   UNL     1       2.557   3.764  -5.567  0.00  0.00    +0.008 A 
ATOM     21  C   UNL     1       1.663   3.539  -4.498  0.00  0.00    -0.017 A 
ATOM     22  C   UNL     1       0.295   3.392  -4.722  0.00  0.00    +0.017 A 
ATOM     23  C   UNL     1      -0.559   3.171  -3.644  0.00  0.00    -0.017 A 
ATOM     24  C   UNL     1      -0.022   3.093  -2.281  0.00  0.00    -0.012 A 
ATOM     25  C   UNL     1      -0.915   2.867  -1.212  0.00  0.00    +0.009 A 
ATOM     26  C   UNL     1      -2.241   2.728  -1.465  0.00  0.00    +0.001 A 
ATOM     27  C   UNL     1      -2.752   2.802  -2.762  0.00  0.00    +0.001 A 
ATOM     28  C   UNL     1      -1.949   3.017  -3.834  0.00  0.00    +0.008 A 
ENDBRANCH  12  15
BRANCH   1  29
ATOM     29  S   UNL     1       7.430  -0.725  -1.695  0.00  0.00    +0.059 S 
ATOM     30  O   UNL     1       6.792  -1.756  -2.435  0.00  0.00    -0.153 OA
ATOM     31  O   UNL     1       8.587  -0.050  -2.171  0.00  0.00    -0.153 OA
BRANCH  29  32
ATOM     32  N   UNL     1       7.833  -1.376  -0.227  0.00  0.00    -0.186 NA
ATOM     33  H   UNL     1       8.730  -1.263   0.124  0.00  0.00    +0.148 HD
BRANCH  32  34
ATOM     34  C   UNL     1       6.834  -2.122   0.542  0.00  0.00    +0.132 C 
BRANCH  34  36
ATOM     35  C   UNL     1       7.153  -2.761   2.877  0.00  0.00    +0.005 C 
ATOM     36  C   UNL     1       7.522  -2.908   1.629  0.00  0.00    -0.018 C 
ENDBRANCH  34  36
ENDBRANCH  32  34
ENDBRANCH  29  32
ENDBRANCH   1  29
TORSDOF 5
