REMARK  Name = ZINC38672913
REMARK  13 active torsions:
REMARK  status: ('A' for Active; 'I' for Inactive)
REMARK    1  A    between atoms: C_1  and  C_2
REMARK    2  A    between atoms: C_2  and  C_3
REMARK    3  A    between atoms: C_2  and  C_4
REMARK    4  A    between atoms: C_2  and  C_5
REMARK    5  A    between atoms: C_8  and  O_11
REMARK    6  A    between atoms: O_11  and  C_12
REMARK    7  A    between atoms: C_12  and  C_13
REMARK    8  A    between atoms: N_15  and  C_16
REMARK    9  A    between atoms: C_16  and  C_17
REMARK   10  A    between atoms: C_17  and  C_19
REMARK   11  A    between atoms: C_17  and  N_30
REMARK   12  A    between atoms: N_28  and  C_29
REMARK   13  A    between atoms: N_33  and  C_36
REMARK                            x       y       z     vdW  Elec       q    Type
REMARK                         _______ _______ _______ _____ _____    ______ ____
ROOT
ATOM      1  C   UNL     1       7.246  -2.550  -7.786  0.00  0.00    +0.104 C 
ENDROOT
BRANCH   1   2
ATOM      2  C   UNL     1       7.787  -2.711  -9.183  0.00  0.00    -0.028 A 
ATOM      3  C   UNL     1       7.364  -1.862 -10.190  0.00  0.00    +0.007 A 
ATOM      4  C   UNL     1       7.859  -2.011 -11.469  0.00  0.00    +0.024 A 
ATOM      5  C   UNL     1       8.783  -3.013 -11.746  0.00  0.00    +0.033 A 
ATOM      6  C   UNL     1       9.210  -3.862 -10.736  0.00  0.00    -0.026 A 
ATOM      7  C   UNL     1       8.710  -3.703  -9.454  0.00  0.00    +0.010 A 
ATOM      8  C   UNL     1      10.217  -4.951 -10.996  0.00  0.00    +0.038 C 
ATOM      9  C   UNL     1      10.265  -5.291 -12.485  0.00  0.00    +0.024 C 
ATOM     10  C   UNL     1      10.450  -3.994 -13.284  0.00  0.00    +0.105 C 
ATOM     11  N   UNL     1       9.269  -3.151 -13.051  0.00  0.00    -0.333 N 
ATOM     12  C   UNL     1       8.612  -2.466 -14.166  0.00  0.00    +0.129 C 
ENDBRANCH   1   2
BRANCH   1  13
ATOM     13  N   UNL     1       7.134  -1.120  -7.466  0.00  0.00    -0.297 NA
ATOM     14  C   UNL     1       8.442  -0.456  -7.559  0.00  0.00    +0.066 C 
ATOM     15  C   UNL     1       8.272   1.039  -7.278  0.00  0.00    -0.064 C 
ATOM     16  N   UNL     1       7.704   1.224  -5.936  0.00  0.00    +0.379 N 
ATOM     17  C   UNL     1       6.387   0.576  -5.867  0.00  0.00    -0.064 C 
ATOM     18  C   UNL     1       6.541  -0.923  -6.136  0.00  0.00    +0.066 C 
ATOM     19  C   UNL     1       7.558   2.659  -5.660  0.00  0.00    -0.096 C 
ATOM     20  H   UNL     1       8.318   0.810  -5.251  0.00  0.00    -0.082 HD
ENDBRANCH   1  13
BRANCH   1  21
ATOM     21  C   UNL     1       5.865  -3.202  -7.696  0.00  0.00    +0.128 C 
BRANCH  21  24
ATOM     22  C   UNL     1       4.893  -5.426  -7.907  0.00  0.00    +0.251 C 
ATOM     23  O   UNL     1       3.802  -4.938  -7.699  0.00  0.00    -0.272 OA
ATOM     24  N   UNL     1       5.989  -4.643  -7.926  0.00  0.00    -0.311 N 
ATOM     25  H   UNL     1       6.862  -5.034  -8.092  0.00  0.00    +0.149 HD
BRANCH  22  26
ATOM     26  C   UNL     1       5.021  -6.909  -8.143  0.00  0.00    +0.324 C 
BRANCH  26  27
ATOM     27  O   UNL     1       3.729  -7.516  -8.074  0.00  0.00    -0.483 OA
BRANCH  27  31
ATOM     28  C   UNL     1       3.543 -11.596  -8.659  0.00  0.00    -0.042 A 
ATOM     29  C   UNL     1       2.386 -10.881  -8.409  0.00  0.00    +0.008 A 
ATOM     30  C   UNL     1       2.446  -9.515  -8.212  0.00  0.00    +0.046 A 
ATOM     31  C   UNL     1       3.668  -8.860  -8.266  0.00  0.00    +0.121 A 
ATOM     32  C   UNL     1       4.827  -9.580  -8.517  0.00  0.00    +0.046 A 
ATOM     33  C   UNL     1       4.763 -10.946  -8.708  0.00  0.00    +0.008 A 
BRANCH  28  35
ATOM     34  C   UNL     1       4.314 -13.793  -7.807  0.00  0.00    +0.015 C 
ATOM     35  C   UNL     1       3.475 -13.086  -8.873  0.00  0.00    -0.013 C 
ATOM     36  C   UNL     1       4.021 -13.427 -10.261  0.00  0.00    +0.015 C 
ATOM     37  C   UNL     1       2.021 -13.550  -8.769  0.00  0.00    +0.015 C 
ENDBRANCH  28  35
ENDBRANCH  27  31
ENDBRANCH  26  27
ENDBRANCH  22  26
ENDBRANCH  21  24
ENDBRANCH   1  21
TORSDOF 8
