REMARK  Name = ZINC41182325
REMARK  6 active torsions:
REMARK  status: ('A' for Active; 'I' for Inactive)
REMARK    1  A    between atoms: C_1  and  C_2
REMARK    2  A    between atoms: C_3  and  C_8
REMARK    3  A    between atoms: C_8  and  C_9
REMARK    4  A    between atoms: N_11  and  C_12
REMARK    5  A    between atoms: C_12  and  C_13
REMARK    6  A    between atoms: C_13  and  C_14
REMARK                            x       y       z     vdW  Elec       q    Type
REMARK                         _______ _______ _______ _____ _____    ______ ____
ROOT
ATOM      1  C   UNL     1       1.407  -0.023  -3.062  0.00  0.00    +0.218 C 
ATOM      2  O   UNL     1       2.336  -0.270  -2.323  0.00  0.00    -0.275 OA
ATOM      3  N   UNL     1       1.640   0.416  -4.314  0.00  0.00    -0.315 N 
ATOM      4  H   UNL     1       0.897   0.613  -4.906  0.00  0.00    +0.149 HD
ENDROOT
BRANCH   1   5
ATOM      5  C   UNL     1      -0.009  -0.209  -2.580  0.00  0.00    +0.140 C 
BRANCH   5   8
ATOM      6  C   UNL     1      -0.018   1.503   0.010  0.00  0.00    +0.066 C 
ATOM      7  C   UNL     1       0.002  -0.004   0.002  0.00  0.00    +0.051 A 
ATOM      8  C   UNL     1       0.006  -0.705  -1.157  0.00  0.00    +0.023 A 
ATOM      9  S   UNL     1       0.032  -2.378  -0.535  0.00  0.00    -0.057 S 
ATOM     10  C   UNL     1       0.036  -2.016   1.109  0.00  0.00    +0.156 A 
ATOM     11  N   UNL     1       0.023  -0.700   1.125  0.00  0.00    -0.230 NA
ATOM     12  N   UNL     1       0.053  -2.891   2.183  0.00  0.00    -0.338 N 
ATOM     13  H   UNL     1       0.066  -3.848   2.029  0.00  0.00    +0.144 HD
ATOM     14  H   UNL     1       0.053  -2.546   3.090  0.00  0.00    +0.144 HD
ENDBRANCH   5   8
ENDBRANCH   1   5
BRANCH   3  15
ATOM     15  C   UNL     1       3.017   0.597  -4.783  0.00  0.00    +0.109 C 
BRANCH  15  16
ATOM     16  C   UNL     1       3.002   1.100  -6.228  0.00  0.00    +0.056 C 
BRANCH  16  17
ATOM     17  C   UNL     1       4.418   1.286  -6.709  0.00  0.00    -0.021 A 
ATOM     18  C   UNL     1       5.125   2.426  -6.689  0.00  0.00    +0.087 A 
ATOM     19  N   UNL     1       6.373   2.211  -7.208  0.00  0.00    -0.360 N 
ATOM     20  H   UNL     1       7.063   2.887  -7.297  0.00  0.00    +0.165 HD
ATOM     21  C   UNL     1       6.502   0.893  -7.585  0.00  0.00    +0.047 A 
ATOM     22  C   UNL     1       5.285   0.254  -7.283  0.00  0.00    +0.003 A 
ATOM     23  C   UNL     1       5.126  -1.106  -7.555  0.00  0.00    +0.010 A 
ATOM     24  C   UNL     1       6.157  -1.811  -8.110  0.00  0.00    +0.001 A 
ATOM     25  C   UNL     1       7.360  -1.187  -8.406  0.00  0.00    +0.002 A 
ATOM     26  C   UNL     1       7.535   0.157  -8.155  0.00  0.00    +0.026 A 
ENDBRANCH  16  17
ENDBRANCH  15  16
ENDBRANCH   3  15
TORSDOF 5
