REMARK  Name = ZINC39228486
REMARK  5 active torsions:
REMARK  status: ('A' for Active; 'I' for Inactive)
REMARK    1  A    between atoms: C_1  and  C_2
REMARK    2  A    between atoms: C_2  and  C_4
REMARK    3  A    between atoms: C_2  and  N_7
REMARK    4  A    between atoms: C_8  and  C_10
REMARK    5  A    between atoms: C_16  and  C_18
REMARK                            x       y       z     vdW  Elec       q    Type
REMARK                         _______ _______ _______ _____ _____    ______ ____
ROOT
ATOM      1  C   UNL     1       0.891  -1.380  -3.806  0.00  0.00    +0.087 C 
ATOM      2  C   UNL     1       2.028  -0.418  -4.156  0.00  0.00    +0.013 C 
ATOM      3  C   UNL     1       1.535   1.024  -4.024  0.00  0.00    +0.001 C 
ATOM      4  C   UNL     1       0.362   1.252  -4.980  0.00  0.00    +0.001 C 
ATOM      5  C   UNL     1      -0.775   0.290  -4.630  0.00  0.00    +0.013 C 
ATOM      6  C   UNL     1      -0.282  -1.152  -4.761  0.00  0.00    +0.087 C 
ENDROOT
BRANCH   6   7
ATOM      7  C   UNL     1      -1.402  -2.100  -4.416  0.00  0.00    +0.220 C 
ATOM      8  O   UNL     1      -2.353  -1.706  -3.775  0.00  0.00    -0.275 OA
ATOM      9  N   UNL     1      -1.347  -3.384  -4.821  0.00  0.00    -0.295 N 
ATOM     10  C   UNL     1      -2.480  -4.295  -4.596  0.00  0.00    +0.113 C 
ATOM     11  C   UNL     1      -3.050  -4.724  -5.953  0.00  0.00    +0.056 C 
ATOM     12  C   UNL     1      -1.911  -5.092  -6.869  0.00  0.00    -0.016 A 
ATOM     13  C   UNL     1      -1.956  -5.870  -8.091  0.00  0.00    +0.003 A 
ATOM     14  C   UNL     1      -3.001  -6.497  -8.776  0.00  0.00    +0.010 A 
ATOM     15  C   UNL     1      -2.674  -7.164  -9.931  0.00  0.00    +0.001 A 
ATOM     16  C   UNL     1      -1.373  -7.220 -10.405  0.00  0.00    +0.002 A 
ATOM     17  C   UNL     1      -0.320  -6.608  -9.747  0.00  0.00    +0.026 A 
ATOM     18  C   UNL     1      -0.623  -5.924  -8.572  0.00  0.00    +0.047 A 
ATOM     19  N   UNL     1       0.154  -5.225  -7.694  0.00  0.00    -0.356 N 
ATOM     20  C   UNL     1      -0.623  -4.733  -6.679  0.00  0.00    +0.038 A 
ATOM     21  H   UNL     1       1.112  -5.096  -7.776  0.00  0.00    +0.166 HD
ATOM     22  C   UNL     1      -0.153  -3.910  -5.504  0.00  0.00    +0.161 C 
ENDBRANCH   6   7
BRANCH   1  24
ATOM     23  N   UNL     1       1.311  -1.271  -1.371  0.00  0.00    -0.304 N 
ATOM     24  C   UNL     1       0.440  -1.131  -2.389  0.00  0.00    +0.217 C 
ATOM     25  O   UNL     1      -0.706  -0.803  -2.166  0.00  0.00    -0.275 OA
ATOM     26  H   UNL     1       2.228  -1.533  -1.549  0.00  0.00    +0.149 HD
BRANCH  23  28
ATOM     27  C   UNL     1       0.976   0.466   0.318  0.00  0.00    +0.038 C 
ATOM     28  C   UNL     1       0.874  -1.029   0.006  0.00  0.00    +0.156 C 
BRANCH  28  29
ATOM     29  C   UNL     1       1.752  -1.802   0.956  0.00  0.00    +0.231 C 
ATOM     30  O   UNL     1       2.655  -2.488   0.525  0.00  0.00    -0.274 OA
ATOM     31  N   UNL     1       1.534  -1.731   2.284  0.00  0.00    -0.328 N 
ATOM     32  H   UNL     1       0.812  -1.182   2.629  0.00  0.00    +0.145 HD
ATOM     33  H   UNL     1       2.099  -2.228   2.896  0.00  0.00    +0.145 HD
ENDBRANCH  28  29
ENDBRANCH  23  28
ENDBRANCH   1  24
TORSDOF 4
