REMARK  Name = ZINC48819277
REMARK  4 active torsions:
REMARK  status: ('A' for Active; 'I' for Inactive)
REMARK    1  A    between atoms: C_5  and  C_7
REMARK    2  A    between atoms: C_7  and  N_8
REMARK    3  A    between atoms: C_9  and  C_11
REMARK    4  A    between atoms: C_16  and  N_17
REMARK                            x       y       z     vdW  Elec       q    Type
REMARK                         _______ _______ _______ _____ _____    ______ ____
ROOT
ATOM      1  N   UNL     1       1.441  -2.678   1.343  0.00  0.00    -0.307 N 
ATOM      2  C   UNL     1       1.532  -4.003   1.572  0.00  0.00    +0.246 C 
ATOM      3  O   UNL     1       1.389  -4.789   0.655  0.00  0.00    -0.270 OA
ATOM      4  H   UNL     1       1.554  -2.051   2.075  0.00  0.00    +0.149 HD
ENDROOT
BRANCH   2   5
ATOM      5  C   UNL     1       1.803  -4.500   2.933  0.00  0.00    +0.059 A 
ATOM      6  C   UNL     1       2.089  -3.602   3.965  0.00  0.00    +0.035 A 
ATOM      7  C   UNL     1       2.342  -4.073   5.236  0.00  0.00    +0.042 A 
ATOM      8  C   UNL     1       2.314  -5.435   5.496  0.00  0.00    +0.022 A 
ATOM      9  C   UNL     1       2.033  -6.333   4.487  0.00  0.00    +0.025 A 
ATOM     10  C   UNL     1       1.770  -5.877   3.202  0.00  0.00    +0.037 A 
ATOM     11 CL   UNL     1       2.698  -2.956   6.516  0.00  0.00    -0.084 Cl
BRANCH  10  12
ATOM     12  N   UNL     1       1.480  -6.779   2.186  0.00  0.00    -0.357 N 
ATOM     13  H   UNL     1       1.379  -6.466   1.274  0.00  0.00    +0.142 HD
ATOM     14  H   UNL     1       1.380  -7.722   2.390  0.00  0.00    +0.142 HD
ENDBRANCH  10  12
ENDBRANCH   2   5
BRANCH   1  15
ATOM     15  C   UNL     1       1.171  -2.184  -0.009  0.00  0.00    +0.141 C 
BRANCH  15  20
ATOM     16  C   UNL     1      -0.149   1.353   0.039  0.00  0.00    +0.000 A 
ATOM     17  C   UNL     1       1.024   2.085   0.035  0.00  0.00    +0.001 A 
ATOM     18  C   UNL     1       2.244   1.437   0.017  0.00  0.00    +0.015 A 
ATOM     19  C   UNL     1       2.292   0.054   0.003  0.00  0.00    +0.023 A 
ATOM     20  C   UNL     1       1.119  -0.678   0.006  0.00  0.00    -0.016 A 
ATOM     21  C   UNL     1      -0.101  -0.029   0.025  0.00  0.00    +0.006 A 
ATOM     22 BR   UNL     1       3.962  -0.834  -0.023  0.00  0.00    -0.050 Br
ENDBRANCH  15  20
ENDBRANCH   1  15
TORSDOF 4
