REMARK  Name = ZINC36352696
REMARK  6 active torsions:
REMARK  status: ('A' for Active; 'I' for Inactive)
REMARK    1  A    between atoms: C_6  and  N_7
REMARK    2  A    between atoms: C_8  and  C_10
REMARK    3  A    between atoms: C_16  and  C_18
REMARK    4  A    between atoms: C_21  and  C_25
REMARK    5  A    between atoms: C_25  and  C_27
REMARK    6  A    between atoms: C_25  and  N_30
REMARK                            x       y       z     vdW  Elec       q    Type
REMARK                         _______ _______ _______ _____ _____    ______ ____
ROOT
ATOM      1  C   UNL     1       0.161   0.965   0.239  0.00  0.00    +0.025 A 
ATOM      2  C   UNL     1       1.373   1.616   0.275  0.00  0.00    +0.028 A 
ATOM      3  C   UNL     1       2.505   1.010  -0.261  0.00  0.00    +0.047 A 
ATOM      4  C   UNL     1       2.400  -0.269  -0.837  0.00  0.00    +0.004 A 
ATOM      5  C   UNL     1       1.166  -0.922  -0.868  0.00  0.00    +0.033 A 
ATOM      6  C   UNL     1       0.053  -0.303  -0.330  0.00  0.00    +0.034 A 
ATOM      7  C   UNL     1       3.745  -0.617  -1.300  0.00  0.00    -0.025 A 
ATOM      8  C   UNL     1       4.545   0.417  -0.995  0.00  0.00    +0.086 A 
ATOM      9  N   UNL     1       3.823   1.398  -0.373  0.00  0.00    -0.360 N 
ATOM     10  H   UNL     1       4.184   2.242  -0.058  0.00  0.00    +0.165 HD
ENDROOT
BRANCH   6  11
ATOM     11  N   UNL     1      -1.189  -0.952  -0.358  0.00  0.00    -0.285 N 
ATOM     12  C   UNL     1      -2.324  -0.232  -0.448  0.00  0.00    +0.221 C 
ATOM     13  O   UNL     1      -2.269   0.971  -0.601  0.00  0.00    -0.275 OA
ATOM     14  H   UNL     1      -1.231  -1.920  -0.313  0.00  0.00    +0.155 HD
BRANCH  12  15
ATOM     15  C   UNL     1      -3.662  -0.919  -0.359  0.00  0.00    +0.093 C 
ATOM     16  C   UNL     1      -4.405  -0.439   0.889  0.00  0.00    +0.040 C 
ATOM     17  C   UNL     1      -5.831  -0.906   0.854  0.00  0.00    -0.030 C 
ATOM     18  C   UNL     1      -6.430  -1.326  -0.214  0.00  0.00    -0.030 C 
ATOM     19  C   UNL     1      -5.780  -1.415  -1.564  0.00  0.00    +0.042 C 
ATOM     20  C   UNL     1      -4.503  -0.572  -1.594  0.00  0.00    +0.118 C 
BRANCH  20  21
ATOM     21  C   UNL     1      -3.719  -0.878  -2.844  0.00  0.00    +0.360 C 
ATOM     22  O   UNL     1      -4.287  -1.327  -3.825  0.00  0.00    -0.246 OA
ATOM     23  O   UNL     1      -2.517  -0.677  -2.873  0.00  0.00    -0.246 OA
ENDBRANCH  20  21
ENDBRANCH  12  15
ENDBRANCH   6  11
BRANCH   7  24
ATOM     24  C   UNL     1       4.154  -1.893  -1.989  0.00  0.00    +0.080 C 
BRANCH  24  25
ATOM     25  N   UNL     1       5.585  -2.135  -1.763  0.00  0.00    +0.391 N 
ATOM     26  C   UNL     1       5.984  -3.374  -2.442  0.00  0.00    -0.077 C 
ATOM     27  C   UNL     1       7.490  -3.589  -2.277  0.00  0.00    -0.019 C 
ATOM     28  C   UNL     1       7.825  -3.691  -0.786  0.00  0.00    -0.004 C 
ATOM     29  C   UNL     1       7.338  -2.425  -0.075  0.00  0.00    -0.019 C 
ATOM     30  C   UNL     1       5.838  -2.254  -0.322  0.00  0.00    -0.077 C 
ATOM     31  H   UNL     1       6.119  -1.364  -2.134  0.00  0.00    -0.080 HD
ENDBRANCH  24  25
BRANCH  24  32
ATOM     32  C   UNL     1       3.893  -1.772  -3.468  0.00  0.00    +0.347 C 
ATOM     33  O   UNL     1       4.760  -1.336  -4.207  0.00  0.00    -0.248 OA
ATOM     34  O   UNL     1       2.815  -2.109  -3.927  0.00  0.00    -0.248 OA
ENDBRANCH  24  32
ENDBRANCH   7  24
TORSDOF 6
