REMARK  Name = ZINC25680522
REMARK  6 active torsions:
REMARK  status: ('A' for Active; 'I' for Inactive)
REMARK    1  A    between atoms: C_3  and  O_30
REMARK    2  A    between atoms: C_6  and  C_7
REMARK    3  A    between atoms: N_10  and  C_13
REMARK    4  A    between atoms: C_13  and  C_14
REMARK    5  A    between atoms: C_14  and  C_15
REMARK    6  A    between atoms: N_17  and  N_18
REMARK                            x       y       z     vdW  Elec       q    Type
REMARK                         _______ _______ _______ _____ _____    ______ ____
ROOT
ATOM      1  C   UNL     1       1.865   8.328   1.509  0.00  0.00    +0.079 C 
ENDROOT
BRANCH   1   2
ATOM      2  C   UNL     1       1.709   9.827   1.515  0.00  0.00    +0.228 C 
ATOM      3  O   UNL     1       1.230  10.390   0.554  0.00  0.00    -0.274 OA
ATOM      4  N   UNL     1       2.103  10.541   2.587  0.00  0.00    -0.224 N 
ATOM      5  H   UNL     1       2.538  10.030   3.459  0.00  0.00    +0.174 HD
BRANCH   4   6
ATOM      6  N   UNL     1       1.959  11.935   2.592  0.00  0.00    -0.137 N 
ATOM      7  C   UNL     1       1.012  12.597   3.290  0.00  0.00    +0.263 C 
ATOM      8  O   UNL     1       0.158  12.118   4.005  0.00  0.00    -0.271 OA
ATOM      9  C   UNL     1       1.242  14.061   2.993  0.00  0.00    +0.114 C 
ATOM     10  C   UNL     1       1.573  14.817   4.275  0.00  0.00    +0.035 C 
ATOM     11  C   UNL     1       1.829  16.291   3.950  0.00  0.00    +0.003 C 
ATOM     12  C   UNL     1       0.585  16.890   3.291  0.00  0.00    +0.000 C 
ATOM     13  C   UNL     1       0.281  16.137   1.995  0.00  0.00    +0.003 C 
ATOM     14  C   UNL     1       0.018  14.663   2.312  0.00  0.00    +0.035 C 
ATOM     15  N   UNL     1       2.393  14.064   2.082  0.00  0.00    -0.284 N 
ATOM     16  C   UNL     1       2.746  12.776   1.910  0.00  0.00    +0.326 C 
ATOM     17  O   UNL     1       3.674  12.416   1.212  0.00  0.00    -0.251 OA
ATOM     18  H   UNL     1       2.784  15.015   1.692  0.00  0.00    +0.151 HD
ENDBRANCH   4   6
ENDBRANCH   1   2
BRANCH   1  19
ATOM     19  C   UNL     1       1.345   7.766   0.185  0.00  0.00    -0.069 C 
BRANCH  19  23
ATOM     20  C   UNL     1       1.168   3.564   0.010  0.00  0.00    -0.048 C 
ATOM     21  C   UNL     1       0.679   4.185   1.061  0.00  0.00    -0.041 C 
ATOM     22  C   UNL     1       0.612   5.681   1.172  0.00  0.00    -0.051 C 
ATOM     23  N   UNL     1       1.496   6.305   0.179  0.00  0.00    +0.383 N 
ATOM     24  C   UNL     1       1.231   5.752  -1.159  0.00  0.00    -0.074 C 
ATOM     25  C   UNL     1       1.707   4.297  -1.187  0.00  0.00    +0.017 C 
ATOM     26  H   UNL     1       2.537   6.078   0.452  0.00  0.00    -0.081 HD
BRANCH  20  32
ATOM     27  C   UNL     1      -0.017   1.374   0.010  0.00  0.00    +0.012 A 
ATOM     28  C   UNL     1       0.002  -0.004   0.002  0.00  0.00    +0.046 A 
ATOM     29  C   UNL     1       1.213  -0.684  -0.013  0.00  0.00    +0.117 A 
ATOM     30  C   UNL     1       2.409   0.021  -0.021  0.00  0.00    +0.046 A 
ATOM     31  C   UNL     1       2.399   1.400  -0.013  0.00  0.00    +0.012 A 
ATOM     32  C   UNL     1       1.184   2.087   0.002  0.00  0.00    -0.022 A 
BRANCH  29  33
ATOM     33  O   UNL     1       1.227  -2.042  -0.020  0.00  0.00    -0.507 OA
ATOM     34  H   UNL     1       2.186  -2.582  -0.032  0.00  0.00    +0.292 HD
ENDBRANCH  29  33
ENDBRANCH  20  32
ENDBRANCH  19  23
ENDBRANCH   1  19
TORSDOF 6
