REMARK  Name = ZINC40923937
REMARK  7 active torsions:
REMARK  status: ('A' for Active; 'I' for Inactive)
REMARK    1  A    between atoms: C_1  and  C_2
REMARK    2  A    between atoms: C_2  and  C_3
REMARK    3  A    between atoms: C_6  and  C_9
REMARK    4  A    between atoms: C_18  and  C_21
REMARK    5  A    between atoms: N_23  and  C_24
REMARK    6  A    between atoms: N_27  and  C_30
REMARK    7  A    between atoms: C_30  and  C_31
REMARK                            x       y       z     vdW  Elec       q    Type
REMARK                         _______ _______ _______ _____ _____    ______ ____
ROOT
ATOM      1  C   UNL     1       2.783  -1.930   4.662  0.00  0.00    +0.093 A 
ATOM      2  C   UNL     1       2.130  -1.974   5.899  0.00  0.00    +0.033 A 
ATOM      3  C   UNL     1       2.844  -2.424   6.995  0.00  0.00    +0.047 A 
ATOM      4  C   UNL     1       4.173  -2.805   6.799  0.00  0.00    +0.144 A 
ATOM      5  N   UNL     1       4.711  -2.731   5.590  0.00  0.00    -0.134 NA
ATOM      6  N   UNL     1       4.048  -2.318   4.571  0.00  0.00    -0.147 NA
ATOM      7  N   UNL     1       4.930  -3.263   7.870  0.00  0.00    -0.314 N 
ATOM      8  C   UNL     1       6.382  -3.445   7.737  0.00  0.00    +0.107 C 
ATOM      9  C   UNL     1       6.742  -4.873   8.160  0.00  0.00    +0.031 C 
ATOM     10  C   UNL     1       6.202  -5.135   9.568  0.00  0.00    +0.078 C 
ATOM     11  C   UNL     1       4.677  -5.001   9.565  0.00  0.00    +0.031 C 
ATOM     12  C   UNL     1       4.295  -3.569   9.160  0.00  0.00    +0.107 C 
ENDROOT
BRANCH   1  16
ATOM     13  C   UNL     1       0.714  -0.574   1.205  0.00  0.00    -0.048 A 
ATOM     14  C   UNL     1       2.034  -0.977   1.104  0.00  0.00    +0.004 A 
ATOM     15  C   UNL     1       2.710  -1.418   2.223  0.00  0.00    +0.010 A 
ATOM     16  C   UNL     1       2.062  -1.457   3.456  0.00  0.00    +0.002 A 
ATOM     17  C   UNL     1       0.732  -1.049   3.552  0.00  0.00    +0.010 A 
ATOM     18  C   UNL     1       0.067  -0.605   2.427  0.00  0.00    +0.004 A 
BRANCH  13  20
ATOM     19  C   UNL     1       0.171   1.417  -0.170  0.00  0.00    +0.009 C 
ATOM     20  C   UNL     1      -0.019  -0.093  -0.021  0.00  0.00    +0.032 C 
ENDBRANCH  13  20
ENDBRANCH   1  16
BRANCH  10  21
ATOM     21  C   UNL     1       6.583  -6.527  10.001  0.00  0.00    +0.216 C 
ATOM     22  O   UNL     1       7.223  -7.239   9.257  0.00  0.00    -0.276 OA
ATOM     23  N   UNL     1       6.212  -6.980  11.215  0.00  0.00    -0.312 N 
ATOM     24  H   UNL     1       5.700  -6.411  11.810  0.00  0.00    +0.149 HD
BRANCH  23  25
ATOM     25  C   UNL     1       6.583  -8.334  11.636  0.00  0.00    +0.069 C 
ATOM     26  C   UNL     1       5.544  -9.333  11.118  0.00  0.00    +0.003 C 
ATOM     27  C   UNL     1       5.893 -10.733  11.627  0.00  0.00    -0.077 C 
ATOM     28  N   UNL     1       5.891 -10.739  13.095  0.00  0.00    +0.382 N 
ATOM     29  C   UNL     1       6.933  -9.836  13.598  0.00  0.00    -0.077 C 
ATOM     30  C   UNL     1       6.624  -8.402  13.165  0.00  0.00    +0.003 C 
ATOM     31  H   UNL     1       4.990 -10.431  13.430  0.00  0.00    -0.081 HD
BRANCH  28  32
ATOM     32  C   UNL     1       6.150 -12.101  13.579  0.00  0.00    -0.043 C 
BRANCH  32  33
ATOM     33  C   UNL     1       6.026 -12.133  15.081  0.00  0.00    -0.064 A 
ATOM     34  C   UNL     1       7.133 -11.885  15.870  0.00  0.00    +0.002 A 
ATOM     35  C   UNL     1       7.020 -11.915  17.248  0.00  0.00    +0.000 A 
ATOM     36  C   UNL     1       5.799 -12.192  17.835  0.00  0.00    +0.000 A 
ATOM     37  C   UNL     1       4.692 -12.439  17.045  0.00  0.00    +0.000 A 
ATOM     38  C   UNL     1       4.805 -12.405  15.668  0.00  0.00    +0.002 A 
ENDBRANCH  32  33
ENDBRANCH  28  32
ENDBRANCH  23  25
ENDBRANCH  10  21
TORSDOF 6
