REMARK  Name = ZINC65585126
REMARK  6 active torsions:
REMARK  status: ('A' for Active; 'I' for Inactive)
REMARK    1  A    between atoms: C_4  and  S_19
REMARK    2  A    between atoms: C_5  and  N_7
REMARK    3  A    between atoms: N_10  and  C_11
REMARK    4  A    between atoms: C_11  and  C_12
REMARK    5  A    between atoms: S_19  and  C_20
REMARK    6  A    between atoms: C_20  and  C_21
REMARK                            x       y       z     vdW  Elec       q    Type
REMARK                         _______ _______ _______ _____ _____    ______ ____
ROOT
ATOM      1  C   UNL     1       0.154   1.372   0.642  0.00  0.00    +0.002 A 
ATOM      2  C   UNL     1       1.173   2.090   0.042  0.00  0.00    +0.001 A 
ATOM      3  C   UNL     1       2.215   1.430  -0.580  0.00  0.00    +0.016 A 
ATOM      4  C   UNL     1       2.241   0.042  -0.605  0.00  0.00    +0.030 A 
ATOM      5  C   UNL     1       1.213  -0.681   0.000  0.00  0.00    +0.048 A 
ATOM      6  C   UNL     1       0.172  -0.010   0.622  0.00  0.00    +0.024 A 
ENDROOT
BRANCH   5   7
ATOM      7  N   UNL     1       1.233  -2.083  -0.021  0.00  0.00    -0.268 N 
ATOM      8  C   UNL     1       0.082  -2.775   0.088  0.00  0.00    +0.304 C 
ATOM      9  O   UNL     1      -0.982  -2.186   0.102  0.00  0.00    -0.253 OA
ATOM     10  N   UNL     1       0.110  -4.119   0.181  0.00  0.00    -0.299 N 
ATOM     11  H   UNL     1       2.075  -2.554  -0.115  0.00  0.00    +0.156 HD
ATOM     12  H   UNL     1       0.958  -4.588   0.170  0.00  0.00    +0.150 HD
BRANCH  10  13
ATOM     13  C   UNL     1      -1.142  -4.871   0.300  0.00  0.00    +0.109 C 
BRANCH  13  14
ATOM     14  C   UNL     1      -0.832  -6.367   0.389  0.00  0.00    +0.010 C 
ATOM     15  C   UNL     1      -2.129  -7.149   0.628  0.00  0.00    +0.009 C 
ATOM     16  C   UNL     1      -1.770  -8.613   0.891  0.00  0.00    +0.027 C 
ATOM     17  C   UNL     1      -0.830  -9.112  -0.167  0.00  0.00    -0.031 C 
ATOM     18  C   UNL     1      -0.150  -8.343  -0.955  0.00  0.00    -0.031 C 
ATOM     19  C   UNL     1      -0.209  -6.843  -0.925  0.00  0.00    +0.032 C 
ENDBRANCH  13  14
ENDBRANCH  10  13
ENDBRANCH   5   7
BRANCH   4  20
ATOM     20  S   UNL     1       3.568  -0.802  -1.398  0.00  0.00    -0.114 S 
BRANCH  20  21
ATOM     21  C   UNL     1       4.629   0.532  -2.019  0.00  0.00    +0.169 C 
BRANCH  21  22
ATOM     22  C   UNL     1       5.818  -0.062  -2.729  0.00  0.00    +0.221 C 
ATOM     23  O   UNL     1       5.939  -1.266  -2.809  0.00  0.00    -0.275 OA
ATOM     24  N   UNL     1       6.749   0.746  -3.276  0.00  0.00    -0.329 N 
ATOM     25  H   UNL     1       6.652   1.709  -3.213  0.00  0.00    +0.145 HD
ATOM     26  H   UNL     1       7.514   0.364  -3.733  0.00  0.00    +0.145 HD
ENDBRANCH  21  22
ENDBRANCH  20  21
ENDBRANCH   4  20
TORSDOF 6
