REMARK  Name = ZINC07626883
REMARK  7 active torsions:
REMARK  status: ('A' for Active; 'I' for Inactive)
REMARK    1  A    between atoms: C_1  and  C_2
REMARK    2  A    between atoms: C_2  and  C_3
REMARK    3  A    between atoms: C_2  and  C_4
REMARK    4  A    between atoms: C_8  and  N_10
REMARK    5  A    between atoms: C_11  and  C_13
REMARK    6  A    between atoms: C_13  and  C_14
REMARK    7  A    between atoms: N_23  and  C_25
REMARK                            x       y       z     vdW  Elec       q    Type
REMARK                         _______ _______ _______ _____ _____    ______ ____
ROOT
ATOM      1  N   UNL     1      -3.621  -2.614  -2.056  0.00  0.00    -0.285 N 
ATOM      2  C   UNL     1      -4.851  -3.162  -1.995  0.00  0.00    +0.223 C 
ATOM      3  O   UNL     1      -5.595  -2.881  -1.080  0.00  0.00    -0.275 OA
ATOM      4  H   UNL     1      -3.054  -2.778  -2.826  0.00  0.00    +0.155 HD
ENDROOT
BRANCH   1   9
ATOM      5  C   UNL     1      -1.863   0.053  -0.235  0.00  0.00    -0.043 A 
ATOM      6  C   UNL     1      -2.252  -0.217   1.065  0.00  0.00    +0.004 A 
ATOM      7  C   UNL     1      -3.094  -1.282   1.331  0.00  0.00    +0.002 A 
ATOM      8  C   UNL     1      -3.549  -2.078   0.298  0.00  0.00    +0.023 A 
ATOM      9  C   UNL     1      -3.161  -1.809  -1.008  0.00  0.00    +0.034 A 
ATOM     10  C   UNL     1      -2.320  -0.736  -1.272  0.00  0.00    +0.027 A 
BRANCH   5  12
ATOM     11  C   UNL     1      -1.605   2.512  -0.047  0.00  0.00    +0.012 C 
ATOM     12  C   UNL     1      -0.946   1.215  -0.520  0.00  0.00    +0.013 C 
ATOM     13  C   UNL     1       0.377   1.014   0.222  0.00  0.00    +0.012 C 
ENDBRANCH   5  12
ENDBRANCH   1   9
BRANCH   2  14
ATOM     14  C   UNL     1      -5.301  -4.123  -3.065  0.00  0.00    +0.153 C 
BRANCH  14  15
ATOM     15  C   UNL     1      -6.703  -4.587  -2.766  0.00  0.00    +0.078 A 
ATOM     16  C   UNL     1      -7.365  -5.537  -3.660  0.00  0.00    +0.011 A 
ATOM     17  C   UNL     1      -6.735  -6.038  -4.801  0.00  0.00    +0.010 A 
ATOM     18  C   UNL     1      -7.396  -6.924  -5.605  0.00  0.00    +0.001 A 
ATOM     19  C   UNL     1      -8.689  -7.333  -5.305  0.00  0.00    +0.001 A 
ATOM     20  C   UNL     1      -9.336  -6.855  -4.186  0.00  0.00    +0.014 A 
ATOM     21  C   UNL     1      -8.681  -5.951  -3.351  0.00  0.00    +0.050 A 
ATOM     22  C   UNL     1      -9.316  -5.406  -2.144  0.00  0.00    +0.275 A 
ATOM     23  O   UNL     1     -10.447  -5.734  -1.836  0.00  0.00    -0.266 OA
ATOM     24  N   UNL     1      -8.621  -4.535  -1.383  0.00  0.00    -0.232 N 
ATOM     25  N   UNL     1      -7.321  -4.148  -1.711  0.00  0.00    -0.172 NA
ATOM     26  C   UNL     1      -9.246  -3.986  -0.177  0.00  0.00    +0.176 C 
ENDBRANCH  14  15
ENDBRANCH   2  14
TORSDOF 4
