REMARK  Name = ZINC39602673
REMARK  4 active torsions:
REMARK  status: ('A' for Active; 'I' for Inactive)
REMARK    1  A    between atoms: C_3  and  C_8
REMARK    2  A    between atoms: C_8  and  N_9
REMARK    3  A    between atoms: C_10  and  C_12
REMARK    4  A    between atoms: C_23  and  C_25
REMARK                            x       y       z     vdW  Elec       q    Type
REMARK                         _______ _______ _______ _____ _____    ______ ____
ROOT
ATOM      1  C   UNL     1       5.688   3.358   3.014  0.00  0.00    +0.100 C 
ATOM      2  C   UNL     1       4.720   4.335   3.717  0.00  0.00    +0.121 C 
ATOM      3  N   UNL     1       5.592   5.178   4.569  0.00  0.00    -0.296 N 
ATOM      4  C   UNL     1       6.798   5.416   3.740  0.00  0.00    +0.115 C 
ATOM      5  C   UNL     1       7.051   4.071   3.030  0.00  0.00    -0.004 C 
ATOM      6  C   UNL     1       7.539   4.310   1.605  0.00  0.00    -0.010 C 
ATOM      7  C   UNL     1       8.921   4.968   1.647  0.00  0.00    -0.082 C 
ATOM      8  N   UNL     1       9.858   4.096   2.366  0.00  0.00    +0.379 N 
ATOM      9  C   UNL     1       9.431   3.946   3.763  0.00  0.00    -0.082 C 
ATOM     10  C   UNL     1       8.070   3.246   3.810  0.00  0.00    -0.010 C 
ATOM     11  C   UNL     1       5.345   5.627   5.815  0.00  0.00    +0.249 C 
ATOM     12  O   UNL     1       6.167   6.316   6.387  0.00  0.00    -0.270 OA
ATOM     13  H   UNL     1       9.879   3.189   1.923  0.00  0.00    -0.086 HD
ATOM     14  H   UNL     1      10.781   4.502   2.340  0.00  0.00    -0.086 HD
ENDROOT
BRANCH  11  15
ATOM     15  C   UNL     1       4.075   5.282   6.486  0.00  0.00    +0.073 A 
ATOM     16  C   UNL     1       3.986   4.128   7.269  0.00  0.00    +0.054 A 
ATOM     17  C   UNL     1       2.795   3.812   7.893  0.00  0.00    +0.021 A 
ATOM     18  C   UNL     1       1.693   4.635   7.745  0.00  0.00    +0.003 A 
ATOM     19  C   UNL     1       1.774   5.779   6.971  0.00  0.00    +0.021 A 
ATOM     20  C   UNL     1       2.959   6.111   6.346  0.00  0.00    +0.054 A 
ATOM     21 CL   UNL     1       3.060   7.551   5.382  0.00  0.00    -0.083 Cl
ATOM     22 CL   UNL     1       5.367   3.094   7.455  0.00  0.00    -0.083 Cl
ENDBRANCH  11  15
BRANCH   1  24
ATOM     23  N   UNL     1       5.534   1.936   0.996  0.00  0.00    -0.311 N 
ATOM     24  C   UNL     1       5.244   3.107   1.596  0.00  0.00    +0.218 C 
ATOM     25  O   UNL     1       4.625   3.960   0.996  0.00  0.00    -0.275 OA
ATOM     26  H   UNL     1       6.029   1.254   1.476  0.00  0.00    +0.149 HD
BRANCH  23  27
ATOM     27  C   UNL     1       5.101   1.693  -0.383  0.00  0.00    +0.139 C 
BRANCH  27  30
ATOM     28  C   UNL     1       5.134  -2.031  -1.004  0.00  0.00    +0.003 A 
ATOM     29  C   UNL     1       4.725  -0.771  -0.609  0.00  0.00    +0.005 A 
ATOM     30  C   UNL     1       5.548   0.320  -0.815  0.00  0.00    -0.028 A 
ATOM     31  C   UNL     1       6.781   0.153  -1.417  0.00  0.00    +0.043 A 
ATOM     32  C   UNL     1       7.191  -1.109  -1.813  0.00  0.00    +0.124 A 
ATOM     33  C   UNL     1       6.366  -2.201  -1.606  0.00  0.00    +0.038 A 
ATOM     34  F   UNL     1       8.396  -1.274  -2.402  0.00  0.00    -0.205 F 
ENDBRANCH  27  30
ENDBRANCH  23  27
ENDBRANCH   1  24
TORSDOF 4
