REMARK  Name = ZINC14069548
REMARK  10 active torsions:
REMARK  status: ('A' for Active; 'I' for Inactive)
REMARK    1  A    between atoms: C_1  and  O_2
REMARK    2  A    between atoms: O_2  and  C_3
REMARK    3  A    between atoms: C_3  and  C_5
REMARK    4  A    between atoms: C_9  and  N_10
REMARK    5  A    between atoms: C_11  and  C_13
REMARK    6  A    between atoms: C_13  and  S_14
REMARK    7  A    between atoms: S_14  and  C_15
REMARK    8  A    between atoms: C_18  and  C_23
REMARK    9  A    between atoms: N_19  and  C_20
REMARK   10  A    between atoms: C_20  and  C_21
REMARK                            x       y       z     vdW  Elec       q    Type
REMARK                         _______ _______ _______ _____ _____    ______ ____
ROOT
ATOM      1  N   UNL     1       3.441  -1.991  -0.590  0.00  0.00    -0.279 N 
ATOM      2  C   UNL     1       4.109  -2.832   0.224  0.00  0.00    +0.228 C 
ATOM      3  O   UNL     1       3.700  -3.961   0.397  0.00  0.00    -0.275 OA
ATOM      4  H   UNL     1       3.768  -1.088  -0.729  0.00  0.00    +0.155 HD
ENDROOT
BRANCH   1   9
ATOM      5  C   UNL     1       1.477  -1.695  -2.096  0.00  0.00    +0.091 A 
ATOM      6  C   UNL     1       0.318  -2.378  -2.643  0.00  0.00    -0.021 A 
ATOM      7  C   UNL     1       0.177  -3.653  -2.221  0.00  0.00    -0.004 A 
ATOM      8  S   UNL     1       1.548  -3.920  -1.135  0.00  0.00    -0.077 S 
ATOM      9  C   UNL     1       2.287  -2.416  -1.230  0.00  0.00    +0.086 A 
ATOM     10  C   UNL     1      -0.908  -4.612  -2.601  0.00  0.00    +0.043 C 
ATOM     11  C   UNL     1      -2.051  -3.816  -3.248  0.00  0.00    +0.005 C 
ATOM     12  C   UNL     1      -1.462  -2.870  -4.298  0.00  0.00    +0.005 C 
ATOM     13  C   UNL     1      -0.676  -1.752  -3.610  0.00  0.00    +0.037 C 
BRANCH   5  14
ATOM     14  C   UNL     1       1.781  -0.306  -2.447  0.00  0.00    +0.342 C 
ATOM     15  O   UNL     1       2.484  -0.062  -3.410  0.00  0.00    -0.245 OA
BRANCH  14  17
ATOM     16  C   UNL     1       1.619   2.032  -2.105  0.00  0.00    +0.280 C 
ATOM     17  O   UNL     1       1.282   0.702  -1.704  0.00  0.00    -0.464 OA
ENDBRANCH  14  17
ENDBRANCH   5  14
ENDBRANCH   1   9
BRANCH   2  18
ATOM     18  C   UNL     1       5.363  -2.370   0.920  0.00  0.00    +0.173 C 
BRANCH  18  19
ATOM     19  S   UNL     1       6.023  -3.720   1.936  0.00  0.00    -0.077 S 
BRANCH  19  20
ATOM     20  C   UNL     1       7.467  -3.031   2.674  0.00  0.00    +0.193 A 
ATOM     21  N   UNL     1       7.923  -1.810   2.504  0.00  0.00    -0.122 NA
ATOM     22  N   UNL     1       8.996  -1.640   3.190  0.00  0.00    -0.128 NA
ATOM     23  C   UNL     1       9.292  -2.742   3.840  0.00  0.00    +0.165 A 
ATOM     24  N   UNL     1       8.319  -3.665   3.533  0.00  0.00    -0.298 N 
BRANCH  23  25
ATOM     25  C   UNL     1      10.449  -2.950   4.736  0.00  0.00    +0.019 A 
ATOM     26  C   UNL     1      11.059  -4.203   4.813  0.00  0.00    +0.013 A 
ATOM     27  C   UNL     1      12.139  -4.391   5.651  0.00  0.00    +0.021 A 
ATOM     28  C   UNL     1      12.617  -3.339   6.415  0.00  0.00    +0.041 A 
ATOM     29  C   UNL     1      12.015  -2.094   6.343  0.00  0.00    +0.021 A 
ATOM     30  C   UNL     1      10.939  -1.893   5.504  0.00  0.00    +0.013 A 
ATOM     31 CL   UNL     1      13.976  -3.583   7.468  0.00  0.00    -0.084 Cl
ENDBRANCH  23  25
BRANCH  24  32
ATOM     32  C   UNL     1       8.219  -5.042   4.024  0.00  0.00    +0.152 C 
BRANCH  32  33
ATOM     33  C   UNL     1       8.823  -5.981   3.012  0.00  0.00    -0.013 C 
ATOM     34  C   UNL     1       9.747  -6.834   3.381  0.00  0.00    +0.005 C 
ENDBRANCH  32  33
ENDBRANCH  24  32
ENDBRANCH  19  20
ENDBRANCH  18  19
ENDBRANCH   2  18
TORSDOF 9
