REMARK  Name = ZINC07078376
REMARK  5 active torsions:
REMARK  status: ('A' for Active; 'I' for Inactive)
REMARK    1  A    between atoms: C_1  and  C_2
REMARK    2  A    between atoms: C_3  and  C_10
REMARK    3  A    between atoms: C_4  and  N_9
REMARK    4  A    between atoms: C_15  and  C_18
REMARK    5  A    between atoms: C_21  and  C_24
REMARK                            x       y       z     vdW  Elec       q    Type
REMARK                         _______ _______ _______ _____ _____    ______ ____
ROOT
ATOM      1  C   UNL     1      -2.822   2.806  -0.024  0.00  0.00    +0.025 C 
ATOM      2  C   UNL     1      -3.429   3.533   1.178  0.00  0.00    +0.008 C 
ATOM      3  C   UNL     1      -2.333   3.822   2.206  0.00  0.00    +0.001 C 
ATOM      4  C   UNL     1      -1.708   2.505   2.669  0.00  0.00    +0.008 C 
ATOM      5  C   UNL     1      -1.101   1.778   1.468  0.00  0.00    +0.020 C 
ATOM      6  C   UNL     1      -2.196   1.488   0.440  0.00  0.00    +0.016 C 
ENDROOT
BRANCH   1   9
ATOM      7  C   UNL     1      -0.760   1.637  -1.719  0.00  0.00    +0.066 C 
ATOM      8  C   UNL     1      -0.782   3.120  -1.456  0.00  0.00    +0.049 A 
ATOM      9  C   UNL     1      -1.760   3.672  -0.651  0.00  0.00    +0.016 A 
ATOM     10  C   UNL     1      -1.746   5.052  -0.438  0.00  0.00    +0.125 A 
ATOM     11  N   UNL     1      -0.791   5.783  -1.004  0.00  0.00    -0.200 NA
ATOM     12  C   UNL     1       0.128   5.215  -1.769  0.00  0.00    +0.214 A 
ATOM     13  N   UNL     1       0.137   3.909  -1.993  0.00  0.00    -0.220 NA
ATOM     14  N   UNL     1       1.106   6.005  -2.348  0.00  0.00    -0.327 N 
ATOM     15  H   UNL     1       1.786   5.601  -2.910  0.00  0.00    +0.145 HD
ATOM     16  H   UNL     1       1.111   6.962  -2.192  0.00  0.00    +0.145 HD
BRANCH  10  17
ATOM     17  N   UNL     1      -2.711   5.650   0.358  0.00  0.00    -0.343 N 
ATOM     18  H   UNL     1      -2.667   5.561   1.323  0.00  0.00    +0.144 HD
ATOM     19  H   UNL     1      -3.430   6.157  -0.051  0.00  0.00    +0.144 HD
ENDBRANCH  10  17
ENDBRANCH   1   9
BRANCH   5  20
ATOM     20  C   UNL     1      -0.485   0.480   1.924  0.00  0.00    -0.044 A 
ATOM     21  C   UNL     1      -1.269  -0.478   2.539  0.00  0.00    +0.004 A 
ATOM     22  C   UNL     1      -0.705  -1.671   2.953  0.00  0.00    +0.012 A 
ATOM     23  C   UNL     1       0.645  -1.900   2.762  0.00  0.00    +0.055 A 
ATOM     24  C   UNL     1       1.430  -0.939   2.152  0.00  0.00    +0.012 A 
ATOM     25  C   UNL     1       0.865   0.251   1.733  0.00  0.00    +0.004 A 
BRANCH  23  26
ATOM     26  C   UNL     1       1.261  -3.198   3.218  0.00  0.00    +0.417 C 
ATOM     27  F   UNL     1       1.710  -3.063   4.536  0.00  0.00    -0.166 F 
ATOM     28  F   UNL     1       0.304  -4.216   3.152  0.00  0.00    -0.166 F 
ATOM     29  F   UNL     1       2.340  -3.518   2.388  0.00  0.00    -0.166 F 
ENDBRANCH  23  26
ENDBRANCH   5  20
TORSDOF 4
