REMARK  Name = ZINC20850133
REMARK  9 active torsions:
REMARK  status: ('A' for Active; 'I' for Inactive)
REMARK    1  A    between atoms: C_1  and  C_2
REMARK    2  A    between atoms: C_2  and  C_3
REMARK    3  A    between atoms: C_3  and  C_4
REMARK    4  A    between atoms: C_4  and  C_5
REMARK    5  A    between atoms: C_5  and  S_6
REMARK    6  A    between atoms: S_6  and  C_7
REMARK    7  A    between atoms: C_12  and  C_24
REMARK    8  A    between atoms: C_18  and  C_22
REMARK    9  A    between atoms: C_18  and  C_23
REMARK                            x       y       z     vdW  Elec       q    Type
REMARK                         _______ _______ _______ _____ _____    ______ ____
ROOT
ATOM      1  C   UNL     1       0.122   0.999   5.321  0.00  0.00    +0.210 A 
ATOM      2  N   UNL     1       1.222   0.244   5.184  0.00  0.00    -0.187 NA
ATOM      3  C   UNL     1       1.685  -0.070   6.364  0.00  0.00    +0.219 A 
ATOM      4  N   UNL     1       0.873   0.485   7.297  0.00  0.00    -0.220 N 
ATOM      5  N   UNL     1      -0.120   1.174   6.603  0.00  0.00    -0.141 NA
ATOM      6  C   UNL     1       1.080   0.334   8.732  0.00  0.00    +0.175 C 
ATOM      7  C   UNL     1       2.466  -0.209   9.001  0.00  0.00    +0.041 C 
ATOM      8  C   UNL     1       3.230  -0.743   8.024  0.00  0.00    +0.020 C 
ATOM      9  N   UNL     1       2.794  -0.818   6.723  0.00  0.00    -0.287 N 
ATOM     10  C   UNL     1       4.611  -1.278   8.324  0.00  0.00    +0.058 C 
ATOM     11  C   UNL     1       4.657  -1.813   9.756  0.00  0.00    -0.023 C 
ATOM     12  C   UNL     1       4.286  -0.672  10.709  0.00  0.00    +0.086 C 
ATOM     13  C   UNL     1       2.934  -0.138  10.326  0.00  0.00    +0.164 C 
ATOM     14  O   UNL     1       2.231   0.369  11.178  0.00  0.00    -0.292 OA
ATOM     15  C   UNL     1       3.656  -2.960   9.910  0.00  0.00    +0.011 C 
ATOM     16  C   UNL     1       6.067  -2.313  10.074  0.00  0.00    +0.011 C 
ATOM     17  H   UNL     1       3.298  -1.449   5.976  0.00  0.00    +0.155 HD
ENDROOT
BRANCH   6  18
ATOM     18  C   UNL     1       0.053  -0.618   9.287  0.00  0.00    -0.018 A 
ATOM     19  C   UNL     1      -0.014  -1.916   8.815  0.00  0.00    +0.006 A 
ATOM     20  C   UNL     1      -0.954  -2.790   9.328  0.00  0.00    +0.000 A 
ATOM     21  C   UNL     1      -1.832  -2.365  10.307  0.00  0.00    +0.000 A 
ATOM     22  C   UNL     1      -1.769  -1.066  10.775  0.00  0.00    +0.000 A 
ATOM     23  C   UNL     1      -0.827  -0.193  10.265  0.00  0.00    +0.006 A 
ENDBRANCH   6  18
BRANCH   1  24
ATOM     24  S   UNL     1      -0.838   1.657   3.999  0.00  0.00    -0.084 S 
BRANCH  24  25
ATOM     25  C   UNL     1       0.011   1.072   2.506  0.00  0.00    +0.077 C 
BRANCH  25  26
ATOM     26  C   UNL     1      -0.729   1.579   1.267  0.00  0.00    +0.011 C 
BRANCH  26  27
ATOM     27  C   UNL     1      -0.013   1.086   0.008  0.00  0.00    +0.001 C 
BRANCH  27  29
ATOM     28  C   UNL     1      -0.037   1.099  -2.490  0.00  0.00    +0.004 C 
ATOM     29  C   UNL     1      -0.753   1.593  -1.232  0.00  0.00    -0.003 C 
ENDBRANCH  27  29
ENDBRANCH  26  27
ENDBRANCH  25  26
ENDBRANCH  24  25
ENDBRANCH   1  24
TORSDOF 6
