REMARK  Name = ZINC17353800
REMARK  8 active torsions:
REMARK  status: ('A' for Active; 'I' for Inactive)
REMARK    1  A    between atoms: C_1  and  C_2
REMARK    2  A    between atoms: C_2  and  N_3
REMARK    3  A    between atoms: C_7  and  C_8
REMARK    4  A    between atoms: C_12  and  C_14
REMARK    5  A    between atoms: N_15  and  N_16
REMARK    6  A    between atoms: N_19  and  C_20
REMARK    7  A    between atoms: C_23  and  N_26
REMARK    8  A    between atoms: N_27  and  C_28
REMARK                            x       y       z     vdW  Elec       q    Type
REMARK                         _______ _______ _______ _____ _____    ______ ____
ROOT
ATOM      1  N   UNL     1      -1.682   6.248  -1.167  0.00  0.00    -0.190 N 
ATOM      2  C   UNL     1      -1.998   7.465  -1.652  0.00  0.00    +0.323 C 
ATOM      3  O   UNL     1      -1.263   8.412  -1.446  0.00  0.00    -0.251 OA
ATOM      4  N   UNL     1      -3.130   7.634  -2.364  0.00  0.00    -0.268 N 
ATOM      5  H   UNL     1      -0.804   6.127  -0.516  0.00  0.00    +0.179 HD
ATOM      6  H   UNL     1      -3.840   6.801  -2.474  0.00  0.00    +0.156 HD
ENDROOT
BRANCH   4   7
ATOM      7  C   UNL     1      -3.401   8.865  -2.963  0.00  0.00    +0.035 A 
ATOM      8  C   UNL     1      -2.362   9.619  -3.499  0.00  0.00    +0.025 A 
ATOM      9  C   UNL     1      -2.626  10.831  -4.096  0.00  0.00    +0.031 A 
ATOM     10  C   UNL     1      -3.939  11.310  -4.152  0.00  0.00    +0.086 A 
ATOM     11  C   UNL     1      -4.980  10.551  -3.607  0.00  0.00    +0.031 A 
ATOM     12  C   UNL     1      -4.708   9.337  -3.017  0.00  0.00    +0.025 A 
BRANCH  10  13
ATOM     13  N   UNL     1      -4.204  12.514  -4.738  0.00  0.00    -0.149 NA
ATOM     14  N   UNL     1      -3.243  13.212  -5.241  0.00  0.00    -0.149 NA
BRANCH  14  15
ATOM     15  C   UNL     1      -3.508  14.418  -5.828  0.00  0.00    +0.086 A 
ATOM     16  C   UNL     1      -4.820  14.895  -5.890  0.00  0.00    +0.029 A 
ATOM     17  C   UNL     1      -5.080  16.114  -6.480  0.00  0.00    +0.002 A 
ATOM     18  C   UNL     1      -4.046  16.860  -7.018  0.00  0.00    +0.000 A 
ATOM     19  C   UNL     1      -2.745  16.392  -6.964  0.00  0.00    +0.002 A 
ATOM     20  C   UNL     1      -2.469  15.177  -6.373  0.00  0.00    +0.029 A 
ENDBRANCH  14  15
ENDBRANCH  10  13
ENDBRANCH   4   7
BRANCH   1  22
ATOM     21  C   UNL     1      -2.238   3.990  -0.934  0.00  0.00    +0.158 C 
ATOM     22  N   UNL     1      -2.472   5.138  -1.491  0.00  0.00    -0.185 NA
BRANCH  21  27
ATOM     23  C   UNL     1      -0.150   4.995   1.899  0.00  0.00    +0.066 A 
ATOM     24  C   UNL     1       0.253   3.774   2.452  0.00  0.00    +0.028 A 
ATOM     25  C   UNL     1      -0.178   2.593   1.872  0.00  0.00    +0.004 A 
ATOM     26  C   UNL     1      -0.993   2.659   0.754  0.00  0.00    +0.029 A 
ATOM     27  C   UNL     1      -1.365   3.910   0.252  0.00  0.00    +0.084 A 
ATOM     28  N   UNL     1      -0.937   5.026   0.829  0.00  0.00    -0.246 NA
BRANCH  23  33
ATOM     29  N   UNL     1      -2.698   8.332   3.023  0.00  0.00    -0.256 N 
ATOM     30  C   UNL     1      -2.072   7.215   2.693  0.00  0.00    +0.258 C 
ATOM     31  O   UNL     1      -2.679   6.222   2.337  0.00  0.00    -0.269 OA
ATOM     32  C   UNL     1      -0.593   7.236   2.779  0.00  0.00    +0.079 C 
ATOM     33  C   UNL     1       0.302   6.255   2.507  0.00  0.00    +0.048 C 
ATOM     34  S   UNL     1      -0.315   8.908   3.346  0.00  0.00    -0.061 S 
ATOM     35  C   UNL     1      -2.021   9.430   3.416  0.00  0.00    +0.121 C 
ATOM     36  S   UNL     1      -2.647  10.955   3.879  0.00  0.00    -0.027 S 
BRANCH  29  38
ATOM     37  C   UNL     1      -4.742   8.052   4.336  0.00  0.00    +0.025 C 
ATOM     38  C   UNL     1      -4.161   8.379   2.959  0.00  0.00    +0.111 C 
ENDBRANCH  29  38
ENDBRANCH  23  33
ENDBRANCH  21  27
ENDBRANCH   1  22
TORSDOF 7
