REMARK  Name = ZINC09584587
REMARK  17 active torsions:
REMARK  status: ('A' for Active; 'I' for Inactive)
REMARK    1  A    between atoms: C_1  and  C_2
REMARK    2  A    between atoms: C_2  and  C_3
REMARK    3  A    between atoms: C_3  and  C_4
REMARK    4  A    between atoms: C_4  and  N_5
REMARK    5  A    between atoms: N_5  and  C_6
REMARK    6  A    between atoms: N_5  and  S_8
REMARK    7  A    between atoms: C_6  and  C_7
REMARK    8  A    between atoms: S_8  and  C_11
REMARK    9  A    between atoms: C_14  and  C_17
REMARK   10  A    between atoms: C_17  and  N_19
REMARK   11  A    between atoms: N_21  and  C_33
REMARK   12  A    between atoms: C_24  and  O_31
REMARK   13  A    between atoms: C_25  and  O_29
REMARK   14  A    between atoms: O_29  and  C_30
REMARK   15  A    between atoms: O_31  and  C_32
REMARK   16  A    between atoms: C_33  and  C_34
REMARK   17  A    between atoms: C_34  and  C_35
REMARK                            x       y       z     vdW  Elec       q    Type
REMARK                         _______ _______ _______ _____ _____    ______ ____
ROOT
ATOM      1  C   UNL     1      -8.062  -1.992  -0.256  0.00  0.00    +0.269 C 
ATOM      2  O   UNL     1      -8.393  -1.495   0.807  0.00  0.00    -0.268 OA
ENDROOT
BRANCH   1   3
ATOM      3  N   UNL     1      -6.816  -1.828  -0.711  0.00  0.00    -0.152 NA
ATOM      4  C   UNL     1      -5.939  -1.123  -0.005  0.00  0.00    +0.167 A 
ATOM      5  N   UNL     1      -4.640  -0.851  -0.304  0.00  0.00    -0.321 N 
ATOM      6  C   UNL     1      -3.874  -0.091   0.563  0.00  0.00    +0.061 A 
ATOM      7  C   UNL     1      -2.529   0.291   0.427  0.00  0.00    +0.076 A 
ATOM      8  C   UNL     1      -1.913   1.057   1.392  0.00  0.00    +0.164 A 
ATOM      9  C   UNL     1      -2.601   1.469   2.531  0.00  0.00    +0.163 A 
ATOM     10  C   UNL     1      -3.932   1.108   2.683  0.00  0.00    +0.066 A 
ATOM     11  C   UNL     1      -4.542   0.343   1.716  0.00  0.00    +0.043 A 
ATOM     12  S   UNL     1      -6.174  -0.328   1.518  0.00  0.00    -0.052 S 
BRANCH   9  13
ATOM     13  O   UNL     1      -1.979   2.220   3.479  0.00  0.00    -0.491 OA
ATOM     14  C   UNL     1      -2.754   2.602   4.617  0.00  0.00    +0.277 C 
ENDBRANCH   9  13
BRANCH   8  15
ATOM     15  O   UNL     1      -0.609   1.411   1.233  0.00  0.00    -0.491 OA
ATOM     16  C   UNL     1       0.048   0.955   0.049  0.00  0.00    +0.277 C 
ENDBRANCH   8  15
BRANCH   5  17
ATOM     17  C   UNL     1      -4.052  -1.362  -1.544  0.00  0.00    +0.124 C 
BRANCH  17  18
ATOM     18  C   UNL     1      -4.606  -2.759  -1.833  0.00  0.00    +0.018 C 
ATOM     19  C   UNL     1      -3.887  -3.351  -3.047  0.00  0.00    +0.005 C 
ENDBRANCH  17  18
ENDBRANCH   5  17
ENDBRANCH   1   3
BRANCH   1  23
ATOM     20  C   UNL     1     -10.870  -4.247  -2.514  0.00  0.00    +0.106 A 
ATOM     21  C   UNL     1     -11.248  -3.684  -1.308  0.00  0.00    +0.029 A 
ATOM     22  C   UNL     1     -10.342  -2.951  -0.570  0.00  0.00    +0.015 A 
ATOM     23  C   UNL     1      -9.041  -2.778  -1.043  0.00  0.00    +0.039 A 
ATOM     24  C   UNL     1      -8.666  -3.343  -2.262  0.00  0.00    +0.015 A 
ATOM     25  C   UNL     1      -9.581  -4.079  -2.987  0.00  0.00    +0.029 A 
BRANCH  20  26
ATOM     26  S   UNL     1     -12.034  -5.181  -3.450  0.00  0.00    +0.061 S 
ATOM     27  O   UNL     1     -11.280  -6.059  -4.275  0.00  0.00    -0.153 OA
ATOM     28  O   UNL     1     -13.012  -5.650  -2.531  0.00  0.00    -0.153 OA
BRANCH  26  29
ATOM     29  N   UNL     1     -12.806  -4.125  -4.465  0.00  0.00    -0.177 NA
BRANCH  29  30
ATOM     30  C   UNL     1     -14.029  -3.449  -4.026  0.00  0.00    +0.106 C 
ATOM     31  C   UNL     1     -13.676  -2.073  -3.457  0.00  0.00    +0.022 C 
ENDBRANCH  29  30
BRANCH  29  32
ATOM     32  C   UNL     1     -12.266  -3.866  -5.802  0.00  0.00    +0.109 C 
BRANCH  32  33
ATOM     33  C   UNL     1     -12.959  -4.777  -6.817  0.00  0.00    +0.017 C 
BRANCH  33  35
ATOM     34  C   UNL     1     -13.087  -5.419  -9.228  0.00  0.00    +0.004 C 
ATOM     35  C   UNL     1     -12.395  -4.507  -8.213  0.00  0.00    -0.002 C 
ENDBRANCH  33  35
ENDBRANCH  32  33
ENDBRANCH  29  32
ENDBRANCH  26  29
ENDBRANCH  20  26
ENDBRANCH   1  23
TORSDOF 12
