REMARK  Name = ZINC61374250
REMARK  4 active torsions:
REMARK  status: ('A' for Active; 'I' for Inactive)
REMARK    1  A    between atoms: C_6  and  N_11
REMARK    2  A    between atoms: C_12  and  C_14
REMARK    3  A    between atoms: C_19  and  N_20
REMARK    4  A    between atoms: N_20  and  N_21
REMARK                            x       y       z     vdW  Elec       q    Type
REMARK                         _______ _______ _______ _____ _____    ______ ____
ROOT
ATOM      1  N   UNL     1      -2.291  -0.303  -0.881  0.00  0.00    -0.304 N 
ATOM      2  C   UNL     1      -3.085   0.696  -0.447  0.00  0.00    +0.248 C 
ATOM      3  O   UNL     1      -2.983   1.101   0.695  0.00  0.00    -0.270 OA
ATOM      4  H   UNL     1      -2.372  -0.626  -1.792  0.00  0.00    +0.150 HD
ENDROOT
BRANCH   1  10
ATOM      5  C   UNL     1      -0.017   1.322  -0.005  0.00  0.00    +0.013 A 
ATOM      6  C   UNL     1       1.157   1.994  -0.025  0.00  0.00    +0.046 A 
ATOM      7  S   UNL     1       2.344   0.659  -0.034  0.00  0.00    -0.101 S 
ATOM      8  C   UNL     1       1.190  -0.687  -0.010  0.00  0.00    -0.005 A 
ATOM      9  C   UNL     1      -0.024  -0.073   0.003  0.00  0.00    -0.017 A 
ATOM     10  C   UNL     1      -1.306  -0.901   0.023  0.00  0.00    +0.104 C 
ATOM     11  C   UNL     1      -0.981  -2.323  -0.437  0.00  0.00    +0.027 C 
ATOM     12  C   UNL     1       0.177  -2.889   0.389  0.00  0.00    +0.007 C 
ATOM     13  C   UNL     1       1.468  -2.155  -0.003  0.00  0.00    +0.043 C 
ENDBRANCH   1  10
BRANCH   2  14
ATOM     14  C   UNL     1      -4.077   1.298  -1.357  0.00  0.00    +0.079 A 
ATOM     15  C   UNL     1      -4.122   0.929  -2.706  0.00  0.00    +0.033 A 
ATOM     16  C   UNL     1      -5.072   1.523  -3.518  0.00  0.00    +0.037 A 
ATOM     17  C   UNL     1      -5.943   2.456  -2.980  0.00  0.00    +0.128 A 
ATOM     18  N   UNL     1      -5.883   2.789  -1.705  0.00  0.00    -0.237 NA
ATOM     19  C   UNL     1      -4.998   2.248  -0.883  0.00  0.00    +0.144 A 
ATOM     20 BR   UNL     1      -5.181   1.065  -5.350  0.00  0.00    -0.049 Br
BRANCH  19  21
ATOM     21  N   UNL     1      -4.975   2.624   0.448  0.00  0.00    -0.267 N 
ATOM     22  H   UNL     1      -4.276   2.293   1.033  0.00  0.00    +0.167 HD
BRANCH  21  23
ATOM     23  N   UNL     1      -5.938   3.460   0.938  0.00  0.00    -0.255 NA
ATOM     24  H   UNL     1      -6.860   3.085   0.773  0.00  0.00    +0.140 HD
ATOM     25  H   UNL     1      -5.792   3.644   1.919  0.00  0.00    +0.140 HD
ENDBRANCH  21  23
ENDBRANCH  19  21
ENDBRANCH   2  14
TORSDOF 4
