REMARK  Name = ZINC38050901
REMARK  8 active torsions:
REMARK  status: ('A' for Active; 'I' for Inactive)
REMARK    1  A    between atoms: C_1  and  C_2
REMARK    2  A    between atoms: C_2  and  C_3
REMARK    3  A    between atoms: C_3  and  N_4
REMARK    4  A    between atoms: N_4  and  S_5
REMARK    5  A    between atoms: S_5  and  C_8
REMARK    6  A    between atoms: C_13  and  N_14
REMARK    7  A    between atoms: N_14  and  C_15
REMARK    8  A    between atoms: C_21  and  N_23
REMARK                            x       y       z     vdW  Elec       q    Type
REMARK                         _______ _______ _______ _____ _____    ______ ____
ROOT
ATOM      1  C   UNL     1       1.218  -2.658   3.853  0.00  0.00    +0.126 A 
ATOM      2  C   UNL     1       0.994  -3.694   4.740  0.00  0.00    +0.030 A 
ATOM      3  C   UNL     1       0.891  -3.436   6.094  0.00  0.00    +0.002 A 
ATOM      4  C   UNL     1       1.013  -2.142   6.566  0.00  0.00    +0.002 A 
ATOM      5  C   UNL     1       1.237  -1.102   5.686  0.00  0.00    +0.025 A 
ATOM      6  C   UNL     1       1.346  -1.358   4.324  0.00  0.00    +0.054 A 
ENDROOT
BRANCH   1   7
ATOM      7  S   UNL     1       1.348  -2.987   2.127  0.00  0.00    +0.060 S 
ATOM      8  O   UNL     1       0.480  -2.073   1.472  0.00  0.00    -0.153 OA
ATOM      9  O   UNL     1       1.229  -4.395   1.972  0.00  0.00    -0.153 OA
BRANCH   7  10
ATOM     10  N   UNL     1       2.889  -2.590   1.667  0.00  0.00    -0.190 NA
ATOM     11  H   UNL     1       3.034  -1.882   1.020  0.00  0.00    +0.148 HD
BRANCH  10  12
ATOM     12  C   UNL     1       4.032  -3.306   2.239  0.00  0.00    +0.105 C 
BRANCH  12  14
ATOM     13  C   UNL     1       6.434  -3.905   1.903  0.00  0.00    +0.005 C 
ATOM     14  C   UNL     1       5.269  -3.067   1.371  0.00  0.00    +0.013 C 
ENDBRANCH  12  14
ENDBRANCH  10  12
ENDBRANCH   7  10
ENDBRANCH   1   7
BRANCH   6  15
ATOM     15  N   UNL     1       1.578  -0.309   3.432  0.00  0.00    -0.341 N 
ATOM     16  H   UNL     1       1.687  -0.493   2.485  0.00  0.00    +0.146 HD
BRANCH  15  17
ATOM     17  C   UNL     1       1.658   1.068   3.924  0.00  0.00    +0.056 C 
ATOM     18  C   UNL     1       3.067   1.339   4.456  0.00  0.00    +0.020 C 
ATOM     19  C   UNL     1       4.084   1.139   3.331  0.00  0.00    +0.002 C 
ATOM     20  C   UNL     1       3.776   2.108   2.188  0.00  0.00    -0.001 C 
ATOM     21  C   UNL     1       2.367   1.838   1.655  0.00  0.00    -0.014 C 
ATOM     22  C   UNL     1       1.350   2.037   2.781  0.00  0.00    -0.055 C 
BRANCH  22  23
ATOM     23  N   UNL     1      -0.003   1.777   2.270  0.00  0.00    +0.381 N 
ATOM     24  H   UNL     1      -0.678   1.959   2.997  0.00  0.00    -0.090 HD
ATOM     25  H   UNL     1      -0.186   2.381   1.482  0.00  0.00    -0.090 HD
ATOM     26  H   UNL     1      -0.073   0.814   1.979  0.00  0.00    -0.090 HD
ENDBRANCH  22  23
ENDBRANCH  15  17
ENDBRANCH   6  15
TORSDOF 7
