REMARK  Name = ZINC06915693
REMARK  9 active torsions:
REMARK  status: ('A' for Active; 'I' for Inactive)
REMARK    1  A    between atoms: C_1  and  C_2
REMARK    2  A    between atoms: C_6  and  C_8
REMARK    3  A    between atoms: C_17  and  S_19
REMARK    4  A    between atoms: S_19  and  C_20
REMARK    5  A    between atoms: C_20  and  C_21
REMARK    6  A    between atoms: C_21  and  O_22
REMARK    7  A    between atoms: O_22  and  C_23
REMARK    8  A    between atoms: C_28  and  C_29
REMARK    9  A    between atoms: C_29  and  C_30
REMARK                            x       y       z     vdW  Elec       q    Type
REMARK                         _______ _______ _______ _____ _____    ______ ____
ROOT
ATOM      1  C   UNL     1      -3.338  -4.015   5.305  0.00  0.00    +0.165 A 
ATOM      2  N   UNL     1      -3.916  -5.096   5.812  0.00  0.00    -0.208 NA
ATOM      3  C   UNL     1      -4.766  -5.812   5.069  0.00  0.00    +0.162 A 
ATOM      4  C   UNL     1      -5.508  -6.960   5.315  0.00  0.00    +0.119 A 
ATOM      5  C   UNL     1      -6.229  -7.257   4.157  0.00  0.00    +0.267 A 
ATOM      6  O   UNL     1      -6.989  -8.200   4.013  0.00  0.00    -0.266 OA
ATOM      7  N   UNL     1      -5.944  -6.325   3.227  0.00  0.00    -0.256 N 
ATOM      8  H   UNL     1      -6.308  -6.291   2.328  0.00  0.00    +0.191 HD
ATOM      9  N   UNL     1      -5.034  -5.415   3.775  0.00  0.00    -0.210 N 
ATOM     10  C   UNL     1      -4.423  -4.298   3.283  0.00  0.00    +0.192 A 
ATOM     11  N   UNL     1      -3.584  -3.623   4.053  0.00  0.00    -0.202 NA
ENDROOT
BRANCH   1  17
ATOM     12  C   UNL     1      -0.240  -0.139   5.849  0.00  0.00    +0.044 C 
ATOM     13  C   UNL     1      -0.907  -1.370   6.407  0.00  0.00    -0.050 A 
ATOM     14  C   UNL     1      -0.642  -1.771   7.705  0.00  0.00    +0.003 A 
ATOM     15  C   UNL     1      -1.251  -2.899   8.224  0.00  0.00    +0.001 A 
ATOM     16  C   UNL     1      -2.131  -3.629   7.451  0.00  0.00    +0.011 A 
ATOM     17  C   UNL     1      -2.398  -3.233   6.141  0.00  0.00    +0.020 A 
ATOM     18  C   UNL     1      -1.781  -2.094   5.623  0.00  0.00    +0.015 A 
ENDBRANCH   1  17
BRANCH  10  19
ATOM     19  S   UNL     1      -4.742  -3.764   1.635  0.00  0.00    -0.083 S 
BRANCH  19  20
ATOM     20  C   UNL     1      -3.686  -2.296   1.570  0.00  0.00    +0.118 C 
BRANCH  20  21
ATOM     21  C   UNL     1      -3.802  -1.644   0.191  0.00  0.00    +0.240 C 
BRANCH  21  22
ATOM     22  O   UNL     1      -2.969  -0.484   0.140  0.00  0.00    -0.491 OA
BRANCH  22  23
ATOM     23  C   UNL     1      -2.956   0.216  -1.025  0.00  0.00    +0.124 A 
ATOM     24  C   UNL     1      -3.731  -0.205  -2.097  0.00  0.00    +0.046 A 
ATOM     25  C   UNL     1      -3.716   0.509  -3.280  0.00  0.00    +0.004 A 
ATOM     26  C   UNL     1      -2.931   1.641  -3.396  0.00  0.00    +0.001 A 
ATOM     27  C   UNL     1      -2.163   2.065  -2.328  0.00  0.00    +0.007 A 
ATOM     28  C   UNL     1      -2.170   1.352  -1.144  0.00  0.00    -0.002 A 
BRANCH  28  29
ATOM     29  C   UNL     1      -1.328   1.812   0.018  0.00  0.00    +0.065 C 
BRANCH  29  30
ATOM     30  C   UNL     1      -0.013   1.076   0.008  0.00  0.00    -0.030 C 
ATOM     31  C   UNL     1       1.113   1.746   0.001  0.00  0.00    +0.004 C 
ENDBRANCH  29  30
ENDBRANCH  28  29
ENDBRANCH  22  23
ENDBRANCH  21  22
ENDBRANCH  20  21
ENDBRANCH  19  20
ENDBRANCH  10  19
TORSDOF 8
