REMARK  Name = ZINC28516112
REMARK  12 active torsions:
REMARK  status: ('A' for Active; 'I' for Inactive)
REMARK    1  A    between atoms: C_1  and  C_2
REMARK    2  A    between atoms: C_4  and  C_32
REMARK    3  A    between atoms: C_10  and  S_13
REMARK    4  A    between atoms: S_13  and  C_14
REMARK    5  A    between atoms: C_14  and  C_16
REMARK    6  A    between atoms: C_14  and  C_17
REMARK    7  A    between atoms: N_19  and  C_20
REMARK    8  A    between atoms: C_20  and  C_21
REMARK    9  A    between atoms: C_21  and  C_23
REMARK   10  A    between atoms: C_21  and  N_29
REMARK   11  A    between atoms: N_29  and  C_30
REMARK   12  A    between atoms: N_29  and  C_31
REMARK                            x       y       z     vdW  Elec       q    Type
REMARK                         _______ _______ _______ _____ _____    ______ ____
ROOT
ATOM      1  C   UNL     1       2.610   7.182   3.152  0.00  0.00    +0.135 C 
ATOM      2  C   UNL     1       1.337   7.997   3.394  0.00  0.00    +0.029 C 
ENDROOT
BRANCH   1   3
ATOM      3  C   UNL     1       2.248   5.733   2.951  0.00  0.00    +0.226 C 
ATOM      4  O   UNL     1       2.280   4.964   3.888  0.00  0.00    -0.275 OA
ATOM      5  N   UNL     1       1.888   5.292   1.729  0.00  0.00    -0.316 N 
ATOM      6  H   UNL     1       1.858   5.989   0.879  0.00  0.00    +0.149 HD
BRANCH   5   7
ATOM      7  C   UNL     1       1.536   3.883   1.533  0.00  0.00    +0.093 C 
BRANCH   7   8
ATOM      8  C   UNL     1       1.169   3.648   0.067  0.00  0.00    -0.021 C 
BRANCH   8   9
ATOM      9  C   UNL     1       0.926   2.178  -0.161  0.00  0.00    -0.059 A 
ATOM     10  C   UNL     1      -0.233   1.758  -0.786  0.00  0.00    +0.002 A 
ATOM     11  C   UNL     1      -0.455   0.410  -0.996  0.00  0.00    +0.000 A 
ATOM     12  C   UNL     1       0.482  -0.518  -0.580  0.00  0.00    +0.000 A 
ATOM     13  C   UNL     1       1.641  -0.098   0.045  0.00  0.00    +0.000 A 
ATOM     14  C   UNL     1       1.863   1.251   0.255  0.00  0.00    +0.002 A 
ENDBRANCH   8   9
BRANCH   8  15
ATOM     15  N   UNL     1       2.271   4.101  -0.792  0.00  0.00    +0.382 N 
ATOM     16  C   UNL     1       3.511   3.378  -0.483  0.00  0.00    -0.096 C 
ATOM     17  C   UNL     1       1.921   3.965  -2.213  0.00  0.00    -0.096 C 
ATOM     18  H   UNL     1       2.442   5.169  -0.588  0.00  0.00    -0.082 HD
ENDBRANCH   8  15
ENDBRANCH   7   8
ENDBRANCH   5   7
ENDBRANCH   1   3
BRANCH   1  19
ATOM     19  S   UNL     1       3.708   7.337   4.587  0.00  0.00    -0.092 S 
BRANCH  19  29
ATOM     20  C   UNL     1       6.079  16.251   5.891  0.00  0.00    +0.067 C 
ATOM     21  C   UNL     1       5.651  15.056   5.078  0.00  0.00    +0.061 A 
ATOM     22  C   UNL     1       5.386  15.053   3.704  0.00  0.00    +0.048 A 
ATOM     23  C   UNL     1       5.039  13.795   3.348  0.00  0.00    +0.044 A 
ATOM     24  N   UNL     1       5.074  13.027   4.468  0.00  0.00    -0.217 N 
ATOM     25  N   UNL     1       5.465  13.845   5.536  0.00  0.00    -0.170 NA
ATOM     26  C   UNL     1       4.779  11.660   4.540  0.00  0.00    +0.176 A 
ATOM     27  C   UNL     1       5.330  10.880   5.556  0.00  0.00    +0.052 A 
ATOM     28  C   UNL     1       5.009   9.534   5.588  0.00  0.00    +0.040 A 
ATOM     29  C   UNL     1       4.154   9.042   4.600  0.00  0.00    +0.120 A 
ATOM     30  N   UNL     1       3.683   9.859   3.670  0.00  0.00    -0.141 NA
ATOM     31  N   UNL     1       3.978  11.108   3.646  0.00  0.00    -0.129 NA
ATOM     32  C   UNL     1       4.675  13.330   1.962  0.00  0.00    +0.066 C 
ENDBRANCH  19  29
ENDBRANCH   1  19
TORSDOF 7
