REMARK  Name = ZINC33790115
REMARK  7 active torsions:
REMARK  status: ('A' for Active; 'I' for Inactive)
REMARK    1  A    between atoms: C_4  and  C_7
REMARK    2  A    between atoms: C_7  and  C_8
REMARK    3  A    between atoms: N_11  and  S_14
REMARK    4  A    between atoms: S_14  and  C_17
REMARK    5  A    between atoms: C_20  and  C_23
REMARK    6  A    between atoms: N_28  and  N_29
REMARK    7  A    between atoms: C_30  and  C_31
REMARK                            x       y       z     vdW  Elec       q    Type
REMARK                         _______ _______ _______ _____ _____    ______ ____
ROOT
ATOM      1  C   UNL     1       4.242  10.278   0.019  0.00  0.00    +0.106 A 
ATOM      2  C   UNL     1       2.963   9.753   0.027  0.00  0.00    +0.029 A 
ATOM      3  C   UNL     1       2.776   8.385   0.021  0.00  0.00    +0.012 A 
ATOM      4  C   UNL     1       3.879   7.534   0.007  0.00  0.00    +0.001 A 
ATOM      5  C   UNL     1       5.166   8.069   0.004  0.00  0.00    +0.012 A 
ATOM      6  C   UNL     1       5.341   9.438   0.005  0.00  0.00    +0.029 A 
ENDROOT
BRANCH   4   7
ATOM      7  C   UNL     1       3.684   6.063   0.000  0.00  0.00    +0.080 A 
ATOM      8  C   UNL     1       4.764   5.225  -0.014  0.00  0.00    +0.077 A 
ATOM      9  S   UNL     1       3.948   3.634  -0.008  0.00  0.00    -0.059 S 
ATOM     10  C   UNL     1       2.268   4.244   0.003  0.00  0.00    +0.178 A 
ATOM     11  N   UNL     1       2.463   5.551   0.008  0.00  0.00    -0.224 NA
ATOM     12  N   UNL     1       1.079   3.535   0.011  0.00  0.00    -0.215 N 
ATOM     13  H   UNL     1       0.118   4.072   0.023  0.00  0.00    +0.176 HD
BRANCH  12  14
ATOM     14  N   UNL     1       1.097   2.135   0.003  0.00  0.00    -0.188 NA
ATOM     15  C   UNL     1      -0.018   1.470   0.010  0.00  0.00    +0.138 C 
BRANCH  15  16
ATOM     16  C   UNL     1       0.002  -0.004   0.002  0.00  0.00    -0.005 A 
ATOM     17  C   UNL     1       1.219  -0.689  -0.019  0.00  0.00    +0.009 A 
ATOM     18  C   UNL     1       1.230  -2.069  -0.022  0.00  0.00    +0.001 A 
ATOM     19  C   UNL     1       0.040  -2.773  -0.014  0.00  0.00    +0.000 A 
ATOM     20  C   UNL     1      -1.170  -2.101   0.002  0.00  0.00    +0.001 A 
ATOM     21  C   UNL     1      -1.196  -0.722   0.010  0.00  0.00    +0.009 A 
ENDBRANCH  15  16
ENDBRANCH  12  14
ENDBRANCH   4   7
BRANCH   1  22
ATOM     22  S   UNL     1       4.473  12.025   0.026  0.00  0.00    +0.061 S 
ATOM     23  O   UNL     1       5.756  12.268  -0.534  0.00  0.00    -0.153 OA
ATOM     24  O   UNL     1       3.287  12.594  -0.511  0.00  0.00    -0.153 OA
BRANCH  22  28
ATOM     25  C   UNL     1       4.543  12.240   4.427  0.00  0.00    -0.004 C 
ATOM     26  C   UNL     1       5.729  11.732   3.604  0.00  0.00    +0.021 C 
ATOM     27  C   UNL     1       5.840  12.551   2.315  0.00  0.00    +0.110 C 
ATOM     28  N   UNL     1       4.551  12.502   1.610  0.00  0.00    -0.177 NA
ATOM     29  C   UNL     1       3.334  12.889   2.336  0.00  0.00    +0.110 C 
ATOM     30  C   UNL     1       3.251  12.060   3.627  0.00  0.00    +0.021 C 
BRANCH  25  31
ATOM     31  C   UNL     1       4.450  11.446   5.731  0.00  0.00    +0.038 C 
BRANCH  31  35
ATOM     32  C   UNL     1       1.361  13.090   8.182  0.00  0.00    +0.000 A 
ATOM     33  C   UNL     1       1.066  12.086   7.279  0.00  0.00    +0.000 A 
ATOM     34  C   UNL     1       2.066  11.554   6.486  0.00  0.00    +0.003 A 
ATOM     35  C   UNL     1       3.360  12.026   6.596  0.00  0.00    -0.047 A 
ATOM     36  C   UNL     1       3.656  13.027   7.502  0.00  0.00    +0.003 A 
ATOM     37  C   UNL     1       2.656  13.562   8.292  0.00  0.00    +0.000 A 
ENDBRANCH  31  35
ENDBRANCH  25  31
ENDBRANCH  22  28
ENDBRANCH   1  22
TORSDOF 7
