REMARK  Name = ZINC38546478
REMARK  12 active torsions:
REMARK  status: ('A' for Active; 'I' for Inactive)
REMARK    1  A    between atoms: C_1  and  C_2
REMARK    2  A    between atoms: C_2  and  C_3
REMARK    3  A    between atoms: C_5  and  C_16
REMARK    4  A    between atoms: C_6  and  N_8
REMARK    5  A    between atoms: C_9  and  C_11
REMARK    6  A    between atoms: C_16  and  C_18
REMARK    7  A    between atoms: C_16  and  N_28
REMARK    8  A    between atoms: C_22  and  O_26
REMARK    9  A    between atoms: C_23  and  O_24
REMARK   10  A    between atoms: O_24  and  C_25
REMARK   11  A    between atoms: O_26  and  C_27
REMARK   12  A    between atoms: N_31  and  C_34
REMARK                            x       y       z     vdW  Elec       q    Type
REMARK                         _______ _______ _______ _____ _____    ______ ____
ROOT
ATOM      1  C   UNL     1       3.916  -1.496  -2.943  0.00  0.00    +0.123 C 
ENDROOT
BRANCH   1   2
ATOM      2  N   UNL     1       4.741  -2.151  -1.919  0.00  0.00    -0.295 NA
ATOM      3  C   UNL     1       5.105  -1.207  -0.853  0.00  0.00    +0.067 C 
ATOM      4  C   UNL     1       5.912  -1.941   0.220  0.00  0.00    -0.064 C 
ATOM      5  N   UNL     1       7.121  -2.516  -0.383  0.00  0.00    +0.379 N 
ATOM      6  C   UNL     1       6.741  -3.474  -1.429  0.00  0.00    -0.064 C 
ATOM      7  C   UNL     1       5.942  -2.753  -2.516  0.00  0.00    +0.067 C 
ATOM      8  C   UNL     1       7.904  -3.205   0.651  0.00  0.00    -0.096 C 
ATOM      9  H   UNL     1       7.677  -1.778  -0.789  0.00  0.00    -0.082 HD
ENDBRANCH   1   2
BRANCH   1  10
ATOM     10  C   UNL     1       4.675  -0.336  -3.534  0.00  0.00    +0.019 A 
ATOM     11  C   UNL     1       4.601   0.911  -2.943  0.00  0.00    +0.009 A 
ATOM     12  C   UNL     1       5.296   1.978  -3.482  0.00  0.00    +0.004 A 
ATOM     13  C   UNL     1       6.068   1.801  -4.615  0.00  0.00    +0.049 A 
ATOM     14  C   UNL     1       6.147   0.554  -5.212  0.00  0.00    +0.162 A 
ATOM     15  C   UNL     1       5.452  -0.521  -4.666  0.00  0.00    +0.166 A 
BRANCH  15  16
ATOM     16  O   UNL     1       5.531  -1.749  -5.245  0.00  0.00    -0.491 OA
ATOM     17  C   UNL     1       4.641  -2.013  -6.331  0.00  0.00    +0.277 C 
ENDBRANCH  15  16
BRANCH  14  18
ATOM     18  O   UNL     1       6.907   0.378  -6.327  0.00  0.00    -0.491 OA
ATOM     19  C   UNL     1       7.597   1.525  -6.828  0.00  0.00    +0.277 C 
ENDBRANCH  14  18
ENDBRANCH   1  10
BRANCH   1  22
ATOM     20  C   UNL     1       0.924   0.616  -2.148  0.00  0.00    -0.008 A 
ATOM     21  C   UNL     1       2.071   0.194  -2.733  0.00  0.00    +0.018 A 
ATOM     22  C   UNL     1       2.641  -0.995  -2.316  0.00  0.00    +0.003 A 
ATOM     23  C   UNL     1       2.028  -1.706  -1.328  0.00  0.00    +0.077 A 
ATOM     24  S   UNL     1       0.613  -0.680  -0.960  0.00  0.00    -0.078 S 
BRANCH  23  25
ATOM     25  N   UNL     1       2.410  -2.917  -0.749  0.00  0.00    -0.273 N 
ATOM     26  C   UNL     1       1.604  -3.519   0.148  0.00  0.00    +0.284 C 
ATOM     27  O   UNL     1       0.503  -3.057   0.383  0.00  0.00    -0.266 OA
ATOM     28  H   UNL     1       3.255  -3.326  -0.993  0.00  0.00    +0.156 HD
BRANCH  26  29
ATOM     29  C   UNL     1       2.054  -4.731   0.841  0.00  0.00    +0.189 A 
ATOM     30  C   UNL     1       1.340  -5.439   1.764  0.00  0.00    +0.054 A 
ATOM     31  C   UNL     1       2.150  -6.515   2.162  0.00  0.00    +0.042 A 
ATOM     32  C   UNL     1       3.308  -6.417   1.472  0.00  0.00    +0.196 A 
ATOM     33  O   UNL     1       3.245  -5.343   0.674  0.00  0.00    -0.458 OA
ENDBRANCH  26  29
ENDBRANCH  23  25
BRANCH  20  35
ATOM     34  C   UNL     1      -0.923   1.565  -3.503  0.00  0.00    +0.009 C 
ATOM     35  C   UNL     1       0.122   1.861  -2.424  0.00  0.00    +0.039 C 
ENDBRANCH  20  35
ENDBRANCH   1  22
TORSDOF 8
