REMARK  Name = ZINC40284139
REMARK  4 active torsions:
REMARK  status: ('A' for Active; 'I' for Inactive)
REMARK    1  A    between atoms: C_1  and  N_2
REMARK    2  A    between atoms: C_3  and  C_28
REMARK    3  A    between atoms: C_5  and  C_15
REMARK    4  A    between atoms: N_17  and  C_18
REMARK                            x       y       z     vdW  Elec       q    Type
REMARK                         _______ _______ _______ _____ _____    ______ ____
ROOT
ATOM      1  C   UNL     1      -1.122   1.675   0.312  0.00  0.00    +0.133 C 
ATOM      2  N   UNL     1      -0.680   0.283   0.195  0.00  0.00    -0.292 N 
ATOM      3  C   UNL     1      -1.669  -0.792   0.235  0.00  0.00    +0.122 C 
ATOM      4  C   UNL     1      -1.334  -1.881  -0.780  0.00  0.00    +0.131 C 
ATOM      5  C   UNL     1       0.102  -2.308  -0.628  0.00  0.00    -0.021 A 
ATOM      6  C   UNL     1       0.477  -3.613  -0.867  0.00  0.00    +0.005 A 
ATOM      7  C   UNL     1       1.804  -3.986  -0.736  0.00  0.00    +0.000 A 
ATOM      8  C   UNL     1       2.760  -3.056  -0.367  0.00  0.00    +0.001 A 
ATOM      9  C   UNL     1       2.396  -1.747  -0.119  0.00  0.00    +0.013 A 
ATOM     10  C   UNL     1       1.060  -1.369  -0.242  0.00  0.00    +0.041 A 
ATOM     11  C   UNL     1       0.632   0.015   0.047  0.00  0.00    +0.247 C 
ATOM     12  O   UNL     1       1.456   0.902   0.153  0.00  0.00    -0.270 OA
ENDROOT
BRANCH   3  13
ATOM     13  C   UNL     1      -3.029  -0.225  -0.079  0.00  0.00    -0.022 A 
ATOM     14  C   UNL     1      -3.775  -0.754  -1.116  0.00  0.00    +0.009 A 
ATOM     15  C   UNL     1      -5.023  -0.238  -1.407  0.00  0.00    +0.050 A 
ATOM     16  C   UNL     1      -5.530   0.813  -0.661  0.00  0.00    +0.166 A 
ATOM     17  C   UNL     1      -4.779   1.347   0.383  0.00  0.00    +0.167 A 
ATOM     18  C   UNL     1      -3.531   0.821   0.674  0.00  0.00    +0.055 A 
ATOM     19  O   UNL     1      -5.490   2.361   0.958  0.00  0.00    -0.453 OA
ATOM     20  C   UNL     1      -6.504   2.712  -0.002  0.00  0.00    +0.466 C 
ATOM     21  O   UNL     1      -6.711   1.493  -0.741  0.00  0.00    -0.453 OA
ENDBRANCH   3  13
BRANCH   4  22
ATOM     22  C   UNL     1      -1.549  -1.349  -2.174  0.00  0.00    +0.227 C 
ATOM     23  O   UNL     1      -1.552  -0.152  -2.371  0.00  0.00    -0.275 OA
ATOM     24  N   UNL     1      -1.737  -2.202  -3.200  0.00  0.00    -0.285 N 
ATOM     25  H   UNL     1      -1.670  -3.158  -3.054  0.00  0.00    +0.155 HD
BRANCH  24  26
ATOM     26  C   UNL     1      -2.030  -1.707  -4.476  0.00  0.00    +0.035 A 
ATOM     27  C   UNL     1      -1.441  -0.520  -4.910  0.00  0.00    +0.024 A 
ATOM     28  C   UNL     1      -1.716  -0.025  -6.152  0.00  0.00    +0.012 A 
ATOM     29  C   UNL     1      -2.593  -0.711  -6.996  0.00  0.00    -0.000 A 
ATOM     30  C   UNL     1      -3.097  -0.470  -8.351  0.00  0.00    +0.027 A 
ATOM     31  C   UNL     1      -3.926  -1.483  -8.647  0.00  0.00    +0.083 A 
ATOM     32  N   UNL     1      -3.996  -2.353  -7.592  0.00  0.00    -0.361 N 
ATOM     33  H   UNL     1      -4.531  -3.162  -7.571  0.00  0.00    +0.165 HD
ATOM     34  C   UNL     1      -3.192  -1.909  -6.566  0.00  0.00    +0.048 A 
ATOM     35  C   UNL     1      -2.897  -2.404  -5.300  0.00  0.00    +0.049 A 
ENDBRANCH  24  26
ENDBRANCH   4  22
TORSDOF 3
