REMARK  Name = ZINC00815013
REMARK  5 active torsions:
REMARK  status: ('A' for Active; 'I' for Inactive)
REMARK    1  A    between atoms: C_4  and  O_28
REMARK    2  A    between atoms: C_5  and  C_7
REMARK    3  A    between atoms: C_10  and  C_13
REMARK    4  A    between atoms: N_15  and  C_16
REMARK    5  A    between atoms: C_17  and  C_25
REMARK                            x       y       z     vdW  Elec       q    Type
REMARK                         _______ _______ _______ _____ _____    ______ ____
ROOT
ATOM      1  C   UNL     1       0.553  -4.665   1.856  0.00  0.00    +0.261 C 
ATOM      2  O   UNL     1       1.555  -4.630   2.538  0.00  0.00    -0.271 OA
ATOM      3  N   UNL     1      -0.643  -4.909   2.428  0.00  0.00    -0.276 N 
ATOM      4  H   UNL     1      -1.445  -4.938   1.882  0.00  0.00    +0.155 HD
ENDROOT
BRANCH   3   5
ATOM      5  C   UNL     1      -0.728  -5.118   3.796  0.00  0.00    +0.084 A 
ATOM      6  C   UNL     1      -1.861  -5.385   4.549  0.00  0.00    +0.068 A 
ATOM      7  C   UNL     1      -1.680  -5.566   5.978  0.00  0.00    -0.023 A 
ATOM      8  C   UNL     1      -0.401  -5.447   6.393  0.00  0.00    -0.004 A 
ATOM      9  S   UNL     1       0.520  -5.114   4.920  0.00  0.00    -0.077 S 
ATOM     10  C   UNL     1       0.106  -5.577   7.797  0.00  0.00    +0.043 C 
ATOM     11  C   UNL     1      -1.094  -5.493   8.752  0.00  0.00    +0.005 C 
ATOM     12  C   UNL     1      -2.197  -6.427   8.246  0.00  0.00    +0.005 C 
ATOM     13  C   UNL     1      -2.805  -5.866   6.959  0.00  0.00    +0.037 C 
BRANCH   6  14
ATOM     14  C   UNL     1      -3.186  -5.480   3.928  0.00  0.00    +0.244 C 
ATOM     15  O   UNL     1      -3.591  -6.553   3.521  0.00  0.00    -0.270 OA
ATOM     16  N   UNL     1      -3.954  -4.379   3.807  0.00  0.00    -0.325 N 
ATOM     17  H   UNL     1      -3.630  -3.524   4.131  0.00  0.00    +0.145 HD
ATOM     18  H   UNL     1      -4.830  -4.442   3.397  0.00  0.00    +0.145 HD
ENDBRANCH   6  14
ENDBRANCH   3   5
BRANCH   1  22
ATOM     19  C   UNL     1       1.249  -2.158  -0.022  0.00  0.00    +0.095 C 
ATOM     20  N   UNL     1       2.310  -2.896  -0.031  0.00  0.00    -0.088 NA
ATOM     21  O   UNL     1       2.017  -4.279  -0.045  0.00  0.00    -0.380 OA
ATOM     22  C   UNL     1       0.644  -4.438   0.369  0.00  0.00    +0.295 C 
ATOM     23  C   UNL     1       0.037  -3.070  -0.015  0.00  0.00    +0.116 C 
BRANCH  19  28
ATOM     24  C   UNL     1      -0.017   1.375   0.010  0.00  0.00    +0.001 A 
ATOM     25  C   UNL     1       1.169   2.089   0.002  0.00  0.00    +0.004 A 
ATOM     26  C   UNL     1       2.383   1.429  -0.013  0.00  0.00    +0.046 A 
ATOM     27  C   UNL     1       2.420   0.043  -0.021  0.00  0.00    +0.126 A 
ATOM     28  C   UNL     1       1.222  -0.684  -0.013  0.00  0.00    +0.041 A 
ATOM     29  C   UNL     1       0.002  -0.004   0.002  0.00  0.00    +0.013 A 
BRANCH  27  30
ATOM     30  O   UNL     1       3.611  -0.607  -0.037  0.00  0.00    -0.506 OA
ATOM     31  H   UNL     1       3.966  -0.800   0.842  0.00  0.00    +0.292 HD
ENDBRANCH  27  30
ENDBRANCH  19  28
ENDBRANCH   1  22
TORSDOF 5
