REMARK  Name = ZINC20616188
REMARK  5 active torsions:
REMARK  status: ('A' for Active; 'I' for Inactive)
REMARK    1  A    between atoms: C_1  and  N_2
REMARK    2  A    between atoms: C_6  and  C_8
REMARK    3  A    between atoms: N_14  and  C_16
REMARK    4  A    between atoms: C_16  and  C_17
REMARK    5  A    between atoms: C_25  and  C_27
REMARK                            x       y       z     vdW  Elec       q    Type
REMARK                         _______ _______ _______ _____ _____    ______ ____
ROOT
ATOM      1  C   UNL     1       1.147   1.655   0.000  0.00  0.00    +0.257 C 
ATOM      2  O   UNL     1       1.130   2.873   0.007  0.00  0.00    -0.269 OA
ATOM      3  N   UNL     1      -0.011   0.966   0.007  0.00  0.00    -0.249 N 
ATOM      4  C   UNL     1      -1.231   1.648   0.017  0.00  0.00    +0.241 A 
ATOM      5  N   UNL     1      -1.379   2.976   0.024  0.00  0.00    -0.202 NA
ATOM      6  C   UNL     1      -2.652   3.279   0.032  0.00  0.00    +0.221 A 
ATOM      7  N   UNL     1      -3.357   2.135   0.030  0.00  0.00    -0.246 N 
ATOM      8  N   UNL     1      -2.418   1.090   0.014  0.00  0.00    -0.133 NA
ATOM      9  H   UNL     1       0.004  -0.134   0.006  0.00  0.00    +0.158 HD
ENDROOT
BRANCH   1  15
ATOM     10  C   UNL     1       5.776  -2.938  -0.065  0.00  0.00    +0.173 C 
ATOM     11  N   UNL     1       5.647  -1.479  -0.058  0.00  0.00    -0.260 N 
ATOM     12  C   UNL     1       4.492  -0.786  -0.044  0.00  0.00    +0.107 A 
ATOM     13  C   UNL     1       4.791   0.585  -0.040  0.00  0.00    +0.040 A 
ATOM     14  C   UNL     1       3.689   1.453  -0.025  0.00  0.00    +0.033 A 
ATOM     15  C   UNL     1       2.426   0.940  -0.016  0.00  0.00    +0.077 A 
ATOM     16  S   UNL     1       2.719  -0.820  -0.020  0.00  0.00    -0.064 S 
ATOM     17  C   UNL     1       6.223   0.649  -0.053  0.00  0.00    +0.173 A 
ATOM     18  N   UNL     1       6.702  -0.558  -0.063  0.00  0.00    -0.166 NA
BRANCH  17  19
ATOM     19  C   UNL     1       7.041   1.915  -0.055  0.00  0.00    +0.437 C 
ATOM     20  F   UNL     1       7.306   2.300   1.264  0.00  0.00    -0.164 F 
ATOM     21  F   UNL     1       8.247   1.689  -0.727  0.00  0.00    -0.164 F 
ATOM     22  F   UNL     1       6.329   2.929  -0.703  0.00  0.00    -0.164 F 
ENDBRANCH  17  19
ENDBRANCH   1  15
BRANCH   7  23
ATOM     23  C   UNL     1      -4.816   2.003   0.037  0.00  0.00    +0.182 C 
BRANCH  23  24
ATOM     24  C   UNL     1      -5.249   1.152  -1.129  0.00  0.00    -0.008 A 
ATOM     25  C   UNL     1      -5.644   1.750  -2.312  0.00  0.00    +0.008 A 
ATOM     26  C   UNL     1      -6.036   0.970  -3.383  0.00  0.00    +0.020 A 
ATOM     27  C   UNL     1      -6.044  -0.409  -3.270  0.00  0.00    +0.042 A 
ATOM     28  C   UNL     1      -5.654  -1.007  -2.085  0.00  0.00    +0.040 A 
ATOM     29  C   UNL     1      -5.256  -0.226  -1.014  0.00  0.00    +0.047 A 
ATOM     30 CL   UNL     1      -4.767  -0.976   0.473  0.00  0.00    -0.083 Cl
ATOM     31 CL   UNL     1      -6.543  -1.388  -4.613  0.00  0.00    -0.083 Cl
ENDBRANCH  23  24
ENDBRANCH   7  23
TORSDOF 4
