REMARK  Name = ZINC60426041
REMARK  11 active torsions:
REMARK  status: ('A' for Active; 'I' for Inactive)
REMARK    1  A    between atoms: C_1  and  C_2
REMARK    2  A    between atoms: N_7  and  C_8
REMARK    3  A    between atoms: C_8  and  C_9
REMARK    4  A    between atoms: C_12  and  C_15
REMARK    5  A    between atoms: C_15  and  N_16
REMARK    6  A    between atoms: C_17  and  C_19
REMARK    7  A    between atoms: C_19  and  C_20
REMARK    8  A    between atoms: C_19  and  N_24
REMARK    9  A    between atoms: C_20  and  C_21
REMARK   10  A    between atoms: C_21  and  C_22
REMARK   11  A    between atoms: C_21  and  C_23
REMARK                            x       y       z     vdW  Elec       q    Type
REMARK                         _______ _______ _______ _____ _____    ______ ____
ROOT
ATOM      1  C   UNL     1       4.439  -1.279   5.927  0.00  0.00    +0.139 C 
ENDROOT
BRANCH   1   5
ATOM      2  C   UNL     1       2.601  -0.279   2.203  0.00  0.00    -0.064 A 
ATOM      3  C   UNL     1       2.346   0.485   3.327  0.00  0.00    +0.002 A 
ATOM      4  C   UNL     1       2.941   0.161   4.532  0.00  0.00    +0.005 A 
ATOM      5  C   UNL     1       3.790  -0.927   4.614  0.00  0.00    -0.030 A 
ATOM      6  C   UNL     1       4.045  -1.691   3.490  0.00  0.00    +0.005 A 
ATOM      7  C   UNL     1       3.447  -1.369   2.286  0.00  0.00    +0.002 A 
BRANCH   2   8
ATOM      8  C   UNL     1       1.953   0.074   0.889  0.00  0.00    -0.043 C 
BRANCH   8  15
ATOM      9  C   UNL     1      -0.185   1.335  -0.423  0.00  0.00    -0.013 C 
ATOM     10  C   UNL     1      -0.020  -0.186  -0.447  0.00  0.00    -0.071 C 
ATOM     11  C   UNL     1      -1.397  -0.847  -0.528  0.00  0.00    -0.016 C 
ATOM     12  C   UNL     1      -1.226  -2.369  -0.552  0.00  0.00    -0.003 C 
ATOM     13  C   UNL     1      -0.446  -2.805   0.691  0.00  0.00    -0.019 C 
ATOM     14  C   UNL     1       0.896  -2.071   0.727  0.00  0.00    -0.078 C 
ATOM     15  N   UNL     1       0.665  -0.622   0.776  0.00  0.00    +0.384 N 
ATOM     16  H   UNL     1       0.093  -0.401   1.577  0.00  0.00    -0.081 HD
ENDBRANCH   8  15
ENDBRANCH   2   8
ENDBRANCH   1   5
BRANCH   1  17
ATOM     17  N   UNL     1       3.578  -2.207   6.664  0.00  0.00    -0.310 N 
ATOM     18  C   UNL     1       3.957  -2.663   7.875  0.00  0.00    +0.234 C 
ATOM     19  O   UNL     1       5.012  -2.304   8.354  0.00  0.00    -0.274 OA
ATOM     20  H   UNL     1       2.734  -2.494   6.281  0.00  0.00    +0.149 HD
BRANCH  18  21
ATOM     21  C   UNL     1       3.071  -3.617   8.633  0.00  0.00    +0.161 C 
BRANCH  21  22
ATOM     22  N   UNL     1       3.693  -3.946   9.917  0.00  0.00    -0.288 N 
ATOM     23  C   UNL     1       2.929  -4.336  10.956  0.00  0.00    +0.298 C 
ATOM     24  O   UNL     1       1.734  -4.502  10.803  0.00  0.00    -0.253 OA
ATOM     25  N   UNL     1       3.488  -4.543  12.165  0.00  0.00    -0.313 N 
ATOM     26  H   UNL     1       4.656  -3.882  10.020  0.00  0.00    +0.151 HD
ATOM     27  H   UNL     1       4.441  -4.411  12.287  0.00  0.00    +0.146 HD
ATOM     28  H   UNL     1       2.938  -4.824  12.912  0.00  0.00    +0.146 HD
ENDBRANCH  21  22
BRANCH  21  29
ATOM     29  C   UNL     1       2.882  -4.896   7.815  0.00  0.00    +0.034 C 
BRANCH  29  30
ATOM     30  C   UNL     1       4.220  -5.632   7.703  0.00  0.00    -0.015 C 
ATOM     31  C   UNL     1       3.994  -7.009   7.075  0.00  0.00    +0.007 C 
ATOM     32  C   UNL     1       5.175  -4.822   6.825  0.00  0.00    +0.007 C 
ENDBRANCH  29  30
ENDBRANCH  21  29
ENDBRANCH  18  21
ENDBRANCH   1  17
TORSDOF 8
