REMARK  Name = ZINC22240962
REMARK  8 active torsions:
REMARK  status: ('A' for Active; 'I' for Inactive)
REMARK    1  A    between atoms: C_6  and  C_7
REMARK    2  A    between atoms: C_10  and  C_12
REMARK    3  A    between atoms: C_12  and  C_13
REMARK    4  A    between atoms: C_13  and  C_14
REMARK    5  A    between atoms: N_16  and  C_17
REMARK    6  A    between atoms: C_20  and  S_23
REMARK    7  A    between atoms: S_23  and  C_26
REMARK    8  A    between atoms: C_29  and  N_32
REMARK                            x       y       z     vdW  Elec       q    Type
REMARK                         _______ _______ _______ _____ _____    ______ ____
ROOT
ATOM      1  C   UNL     1      -6.881  -0.977   1.495  0.00  0.00    +0.218 C 
ATOM      2  O   UNL     1      -7.492  -0.917   0.449  0.00  0.00    -0.275 OA
ATOM      3  N   UNL     1      -7.544  -0.924   2.667  0.00  0.00    -0.285 N 
ATOM      4  H   UNL     1      -7.063  -1.039   3.502  0.00  0.00    +0.155 HD
ENDROOT
BRANCH   3   5
ATOM      5  C   UNL     1      -8.925  -0.704   2.680  0.00  0.00    +0.033 A 
ATOM      6  C   UNL     1      -9.500   0.047   3.697  0.00  0.00    +0.025 A 
ATOM      7  C   UNL     1     -10.864   0.263   3.707  0.00  0.00    +0.029 A 
ATOM      8  C   UNL     1     -11.657  -0.267   2.706  0.00  0.00    +0.094 A 
ATOM      9  C   UNL     1     -11.088  -1.016   1.692  0.00  0.00    +0.029 A 
ATOM     10  C   UNL     1      -9.724  -1.230   1.673  0.00  0.00    +0.025 A 
BRANCH   8  11
ATOM     11  S   UNL     1     -13.397   0.011   2.723  0.00  0.00    +0.025 S 
ATOM     12  O   UNL     1     -13.985  -1.047   1.978  0.00  0.00    -0.164 OA
ATOM     13  O   UNL     1     -13.753   0.281   4.072  0.00  0.00    -0.164 OA
BRANCH  11  14
ATOM     14  C   UNL     1     -13.697   1.492   1.816  0.00  0.00    +0.094 A 
ATOM     15  C   UNL     1     -13.697   2.712   2.466  0.00  0.00    +0.029 A 
ATOM     16  C   UNL     1     -13.932   3.874   1.755  0.00  0.00    +0.034 A 
ATOM     17  C   UNL     1     -14.166   3.816   0.394  0.00  0.00    +0.126 A 
ATOM     18  C   UNL     1     -14.165   2.595  -0.256  0.00  0.00    +0.034 A 
ATOM     19  C   UNL     1     -13.926   1.434   0.454  0.00  0.00    +0.029 A 
BRANCH  17  20
ATOM     20  N   UNL     1     -14.419   5.059  -0.368  0.00  0.00    +0.056 N 
ATOM     21  O   UNL     1     -14.421   6.126   0.201  0.00  0.00    -0.126 OA
ATOM     22  O   UNL     1     -14.624   5.009  -1.558  0.00  0.00    -0.126 OA
ENDBRANCH  17  20
ENDBRANCH  11  14
ENDBRANCH   8  11
ENDBRANCH   3   5
BRANCH   1  23
ATOM     23  C   UNL     1      -5.380  -1.110   1.484  0.00  0.00    +0.105 C 
BRANCH  23  24
ATOM     24  C   UNL     1      -4.882  -1.147   0.037  0.00  0.00    +0.103 C 
BRANCH  24  28
ATOM     25  C   UNL     1      -1.264  -0.787   0.014  0.00  0.00    +0.153 A 
ATOM     26  C   UNL     1      -1.407  -2.137   0.007  0.00  0.00    +0.132 A 
ATOM     27  N   UNL     1      -2.721  -2.404   0.015  0.00  0.00    -0.333 N 
ATOM     28  C   UNL     1      -3.381  -1.280   0.026  0.00  0.00    +0.175 A 
ATOM     29  O   UNL     1      -2.509  -0.262   0.031  0.00  0.00    -0.442 OA
ATOM     30  H   UNL     1      -3.116  -3.290   0.012  0.00  0.00    +0.168 HD
BRANCH  25  36
ATOM     31  C   UNL     1      -0.002   1.361   0.024  0.00  0.00    +0.014 A 
ATOM     32  C   UNL     1       1.188   2.057   0.021  0.00  0.00    +0.039 A 
ATOM     33  C   UNL     1       2.393   1.374   0.002  0.00  0.00    +0.123 A 
ATOM     34  C   UNL     1       2.410  -0.011  -0.012  0.00  0.00    +0.039 A 
ATOM     35  C   UNL     1       1.226  -0.718  -0.008  0.00  0.00    +0.014 A 
ATOM     36  C   UNL     1       0.009  -0.035   0.010  0.00  0.00    +0.019 A 
ATOM     37  F   UNL     1       3.557   2.061  -0.002  0.00  0.00    -0.205 F 
ENDBRANCH  25  36
ENDBRANCH  24  28
ENDBRANCH  23  24
ENDBRANCH   1  23
TORSDOF 8
