REMARK  Name = ZINC35939613
REMARK  13 active torsions:
REMARK  status: ('A' for Active; 'I' for Inactive)
REMARK    1  A    between atoms: C_1  and  C_2
REMARK    2  A    between atoms: C_2  and  N_3
REMARK    3  A    between atoms: N_6  and  C_9
REMARK    4  A    between atoms: C_10  and  C_21
REMARK    5  A    between atoms: C_11  and  C_20
REMARK    6  A    between atoms: N_13  and  C_14
REMARK    7  A    between atoms: C_21  and  N_22
REMARK    8  A    between atoms: N_22  and  C_23
REMARK    9  A    between atoms: C_23  and  C_24
REMARK   10  A    between atoms: C_24  and  C_25
REMARK   11  A    between atoms: C_25  and  C_26
REMARK   12  A    between atoms: C_25  and  C_27
REMARK   13  A    between atoms: N_30  and  C_31
REMARK                            x       y       z     vdW  Elec       q    Type
REMARK                         _______ _______ _______ _____ _____    ______ ____
ROOT
ATOM      1  C   UNL     1       1.036  -2.723   5.108  0.00  0.00    +0.130 A 
ATOM      2  C   UNL     1       1.199  -4.069   4.982  0.00  0.00    +0.032 A 
ATOM      3  C   UNL     1       1.374  -4.602   6.262  0.00  0.00    +0.067 A 
ATOM      4  N   UNL     1       1.319  -3.624   7.130  0.00  0.00    -0.170 NA
ATOM      5  N   UNL     1       1.112  -2.426   6.434  0.00  0.00    -0.218 N 
ATOM      6  C   UNL     1       1.589  -6.057   6.588  0.00  0.00    +0.068 C 
ENDROOT
BRANCH   1  10
ATOM      7  N   UNL     1       0.315   0.592   2.752  0.00  0.00    +0.382 N 
ATOM      8  C   UNL     1       1.589   0.419   3.462  0.00  0.00    -0.060 C 
ATOM      9  C   UNL     1       1.958  -1.067   3.491  0.00  0.00    +0.088 C 
ATOM     10  N   UNL     1       0.833  -1.816   4.072  0.00  0.00    -0.318 N 
ATOM     11  C   UNL     1      -0.513  -1.579   3.526  0.00  0.00    +0.088 C 
ATOM     12  C   UNL     1      -0.765  -0.069   3.496  0.00  0.00    -0.060 C 
ATOM     13  H   UNL     1       0.387   0.184   1.832  0.00  0.00    -0.082 HD
BRANCH   7  15
ATOM     14  C   UNL     1       1.075   2.693   1.749  0.00  0.00    -0.017 C 
ATOM     15  C   UNL     1       0.016   2.025   2.629  0.00  0.00    -0.082 C 
ENDBRANCH   7  15
ENDBRANCH   1  10
BRANCH   5  16
ATOM     16  C   UNL     1       1.001  -1.149   7.003  0.00  0.00    +0.067 A 
ATOM     17  C   UNL     1       1.710  -0.084   6.464  0.00  0.00    +0.028 A 
ATOM     18  C   UNL     1       1.598   1.173   7.026  0.00  0.00    +0.002 A 
ATOM     19  C   UNL     1       0.781   1.370   8.124  0.00  0.00    +0.000 A 
ATOM     20  C   UNL     1       0.074   0.311   8.663  0.00  0.00    +0.002 A 
ATOM     21  C   UNL     1       0.178  -0.947   8.102  0.00  0.00    +0.028 A 
ENDBRANCH   5  16
BRANCH   2  22
ATOM     22  C   UNL     1       1.193  -4.845   3.690  0.00  0.00    +0.149 C 
BRANCH  22  23
ATOM     23  N   UNL     1       2.572  -5.085   3.257  0.00  0.00    -0.281 N 
ATOM     24  C   UNL     1       3.148  -4.263   2.358  0.00  0.00    +0.307 C 
ATOM     25  O   UNL     1       2.554  -3.277   1.968  0.00  0.00    -0.252 OA
ATOM     26  N   UNL     1       4.384  -4.535   1.893  0.00  0.00    -0.269 N 
ATOM     27  H   UNL     1       4.829  -5.357   2.150  0.00  0.00    +0.156 HD
BRANCH  26  28
ATOM     28  C   UNL     1       5.023  -3.630   1.038  0.00  0.00    +0.037 A 
ATOM     29  C   UNL     1       6.399  -3.454   1.114  0.00  0.00    +0.023 A 
ATOM     30  C   UNL     1       7.029  -2.561   0.270  0.00  0.00    +0.005 A 
ATOM     31  C   UNL     1       6.292  -1.841  -0.652  0.00  0.00    +0.038 A 
ATOM     32  C   UNL     1       4.920  -2.013  -0.732  0.00  0.00    +0.125 A 
ATOM     33  C   UNL     1       4.285  -2.911   0.108  0.00  0.00    +0.061 A 
ATOM     34  F   UNL     1       4.202  -1.308  -1.633  0.00  0.00    -0.205 F 
ENDBRANCH  26  28
BRANCH  23  35
ATOM     35  C   UNL     1       3.324  -6.218   3.802  0.00  0.00    +0.110 C 
BRANCH  35  36
ATOM     36  C   UNL     1       3.104  -7.448   2.919  0.00  0.00    +0.022 C 
BRANCH  36  37
ATOM     37  C   UNL     1       3.889  -8.631   3.488  0.00  0.00    -0.016 C 
ATOM     38  C   UNL     1       3.321  -9.010   4.857  0.00  0.00    +0.007 C 
ATOM     39  C   UNL     1       3.771  -9.826   2.539  0.00  0.00    +0.007 C 
ENDBRANCH  36  37
ENDBRANCH  35  36
ENDBRANCH  23  35
ENDBRANCH  22  23
ENDBRANCH   2  22
TORSDOF 9
