REMARK  Name = ZINC34970171
REMARK  9 active torsions:
REMARK  status: ('A' for Active; 'I' for Inactive)
REMARK    1  A    between atoms: C_1  and  C_2
REMARK    2  A    between atoms: C_2  and  C_3
REMARK    3  A    between atoms: C_3  and  C_5
REMARK    4  A    between atoms: C_3  and  C_6
REMARK    5  A    between atoms: C_6  and  C_8
REMARK    6  A    between atoms: C_6  and  N_20
REMARK    7  A    between atoms: N_10  and  C_11
REMARK    8  A    between atoms: N_23  and  C_24
REMARK    9  A    between atoms: C_27  and  N_30
REMARK                            x       y       z     vdW  Elec       q    Type
REMARK                         _______ _______ _______ _____ _____    ______ ____
ROOT
ATOM      1  C   UNL     1       0.495  -1.824  -1.093  0.00  0.00    +0.163 C 
ENDROOT
BRANCH   1   2
ATOM      2  N   UNL     1      -0.927  -2.026  -1.376  0.00  0.00    -0.288 N 
ATOM      3  C   UNL     1      -1.380  -1.947  -2.643  0.00  0.00    +0.304 C 
ATOM      4  O   UNL     1      -0.607  -1.708  -3.551  0.00  0.00    -0.252 OA
ATOM      5  N   UNL     1      -2.689  -2.134  -2.905  0.00  0.00    -0.269 N 
ATOM      6  H   UNL     1      -1.544  -2.217  -0.652  0.00  0.00    +0.151 HD
ATOM      7  H   UNL     1      -3.325  -2.197  -2.175  0.00  0.00    +0.156 HD
BRANCH   5   8
ATOM      8  C   UNL     1      -3.131  -2.235  -4.229  0.00  0.00    +0.035 A 
ATOM      9  C   UNL     1      -4.395  -1.778  -4.577  0.00  0.00    +0.025 A 
ATOM     10  C   UNL     1      -4.828  -1.879  -5.885  0.00  0.00    +0.034 A 
ATOM     11  C   UNL     1      -4.004  -2.435  -6.846  0.00  0.00    +0.126 A 
ATOM     12  C   UNL     1      -2.745  -2.891  -6.502  0.00  0.00    +0.034 A 
ATOM     13  C   UNL     1      -2.304  -2.788  -5.198  0.00  0.00    +0.025 A 
BRANCH  11  14
ATOM     14  N   UNL     1      -4.472  -2.542  -8.247  0.00  0.00    +0.056 N 
ATOM     15  O   UNL     1      -5.572  -2.144  -8.549  0.00  0.00    -0.126 OA
ATOM     16  O   UNL     1      -3.752  -3.027  -9.089  0.00  0.00    -0.126 OA
ENDBRANCH  11  14
ENDBRANCH   5   8
ENDBRANCH   1   2
BRANCH   1  17
ATOM     17  C   UNL     1       0.858  -2.533   0.187  0.00  0.00    +0.238 C 
ATOM     18  O   UNL     1      -0.014  -2.986   0.897  0.00  0.00    -0.273 OA
ATOM     19  N   UNL     1       2.152  -2.662   0.542  0.00  0.00    -0.284 N 
ATOM     20  H   UNL     1       2.853  -2.388  -0.070  0.00  0.00    +0.155 HD
BRANCH  19  21
ATOM     21  C   UNL     1       2.484  -3.194   1.793  0.00  0.00    +0.034 A 
ATOM     22  C   UNL     1       1.614  -4.067   2.433  0.00  0.00    +0.023 A 
ATOM     23  C   UNL     1       1.947  -4.588   3.666  0.00  0.00    +0.006 A 
ATOM     24  C   UNL     1       3.146  -4.245   4.269  0.00  0.00    -0.044 A 
ATOM     25  C   UNL     1       4.014  -3.376   3.635  0.00  0.00    -0.042 A 
ATOM     26  C   UNL     1       3.687  -2.855   2.396  0.00  0.00    +0.027 A 
ATOM     27  C   UNL     1       5.243  -3.163   4.494  0.00  0.00    +0.036 C 
ATOM     28  C   UNL     1       4.838  -3.644   5.904  0.00  0.00    +0.009 C 
ATOM     29  C   UNL     1       3.732  -4.675   5.598  0.00  0.00    +0.036 C 
ENDBRANCH  19  21
ENDBRANCH   1  17
BRANCH   1  30
ATOM     30  C   UNL     1       0.778  -0.328  -0.945  0.00  0.00    +0.015 C 
ATOM     31  C   UNL     1      -0.206   0.281   0.055  0.00  0.00    +0.010 C 
BRANCH  30  33
ATOM     32  C   UNL     1       1.019   1.830  -2.182  0.00  0.00    +0.004 C 
ATOM     33  C   UNL     1       0.616   0.359  -2.303  0.00  0.00    +0.002 C 
ENDBRANCH  30  33
ENDBRANCH   1  30
TORSDOF 7
