REMARK  Name = ZINC09524344
REMARK  7 active torsions:
REMARK  status: ('A' for Active; 'I' for Inactive)
REMARK    1  A    between atoms: C_1  and  C_2
REMARK    2  A    between atoms: C_5  and  C_8
REMARK    3  A    between atoms: C_8  and  S_9
REMARK    4  A    between atoms: S_9  and  C_10
REMARK    5  A    between atoms: C_17  and  C_29
REMARK    6  A    between atoms: C_22  and  C_26
REMARK    7  A    between atoms: C_22  and  C_27
REMARK                            x       y       z     vdW  Elec       q    Type
REMARK                         _______ _______ _______ _____ _____    ______ ____
ROOT
ATOM      1  C   UNL     1       1.632  -6.614  -0.043  0.00  0.00    +0.172 A 
ATOM      2  N   UNL     1       2.760  -7.379  -0.048  0.00  0.00    -0.322 N 
ATOM      3  C   UNL     1       2.662  -8.746  -0.053  0.00  0.00    +0.111 A 
ATOM      4  C   UNL     1       1.432  -9.326  -0.052  0.00  0.00    +0.069 A 
ATOM      5  C   UNL     1       0.289  -8.498  -0.052  0.00  0.00    +0.280 A 
ATOM      6  N   UNL     1       0.435  -7.164  -0.039  0.00  0.00    -0.185 NA
ATOM      7  O   UNL     1      -0.829  -8.993  -0.058  0.00  0.00    -0.265 OA
ATOM      8  C   UNL     1       1.283 -10.819  -0.045  0.00  0.00    +0.092 C 
ATOM      9  C   UNL     1       2.562 -11.499  -0.463  0.00  0.00    +0.024 C 
ATOM     10  C   UNL     1       2.494 -12.846  -0.860  0.00  0.00    +0.162 C 
ATOM     11  C   UNL     1       3.728 -13.603  -1.266  0.00  0.00    +0.086 C 
ATOM     12  C   UNL     1       4.939 -13.007  -0.540  0.00  0.00    -0.023 C 
ATOM     13  C   UNL     1       5.017 -11.515  -0.872  0.00  0.00    +0.058 C 
ATOM     14  C   UNL     1       3.737 -10.835  -0.452  0.00  0.00    +0.017 C 
ATOM     15  N   UNL     1       3.795  -9.525  -0.063  0.00  0.00    -0.304 N 
ATOM     16  C   UNL     1       4.774 -13.190   0.970  0.00  0.00    +0.011 C 
ATOM     17  C   UNL     1       6.216 -13.706  -1.011  0.00  0.00    +0.011 C 
ATOM     18  O   UNL     1       1.417 -13.409  -0.874  0.00  0.00    -0.292 OA
ATOM     19  H   UNL     1       4.644  -9.142   0.208  0.00  0.00    +0.153 HD
ATOM     20  H   UNL     1       3.632  -6.955  -0.048  0.00  0.00    +0.169 HD
ENDROOT
BRANCH   8  21
ATOM     21  C   UNL     1       0.916 -11.271   1.345  0.00  0.00    -0.032 A 
ATOM     22  C   UNL     1       1.753 -11.013   2.420  0.00  0.00    +0.024 A 
ATOM     23  C   UNL     1       1.383 -11.444   3.680  0.00  0.00    +0.111 A 
ATOM     24  N   UNL     1       0.250 -12.093   3.865  0.00  0.00    -0.263 NA
ATOM     25  C   UNL     1      -0.570 -12.356   2.867  0.00  0.00    +0.111 A 
ATOM     26  C   UNL     1      -0.270 -11.951   1.580  0.00  0.00    +0.024 A 
ENDBRANCH   8  21
BRANCH   1  27
ATOM     27  S   UNL     1       1.777  -4.858  -0.034  0.00  0.00    -0.083 S 
BRANCH  27  28
ATOM     28  C   UNL     1       0.059  -4.275  -0.021  0.00  0.00    +0.112 C 
BRANCH  28  33
ATOM     29  C   UNL     1      -0.018   1.503   0.010  0.00  0.00    +0.044 C 
ATOM     30  C   UNL     1       0.002  -0.004   0.002  0.00  0.00    -0.050 A 
ATOM     31  C   UNL     1       0.006  -0.689  -1.199  0.00  0.00    +0.003 A 
ATOM     32  C   UNL     1       0.025  -2.071  -1.206  0.00  0.00    +0.005 A 
ATOM     33  C   UNL     1       0.040  -2.768  -0.013  0.00  0.00    -0.037 A 
ATOM     34  C   UNL     1       0.037  -2.084   1.188  0.00  0.00    +0.005 A 
ATOM     35  C   UNL     1       0.023  -0.702   1.195  0.00  0.00    +0.003 A 
ENDBRANCH  28  33
ENDBRANCH  27  28
ENDBRANCH   1  27
TORSDOF 4
