REMARK  Name = ZINC08299482
REMARK  4 active torsions:
REMARK  status: ('A' for Active; 'I' for Inactive)
REMARK    1  A    between atoms: C_3  and  C_6
REMARK    2  A    between atoms: C_13  and  C_15
REMARK    3  A    between atoms: N_17  and  C_18
REMARK    4  A    between atoms: C_26  and  C_28
REMARK                            x       y       z     vdW  Elec       q    Type
REMARK                         _______ _______ _______ _____ _____    ______ ____
ROOT
ATOM      1  C   UNL     1      -3.696  -2.320  -0.204  0.00  0.00    +0.254 C 
ATOM      2  O   UNL     1      -3.096  -1.507  -0.883  0.00  0.00    -0.269 OA
ATOM      3  N   UNL     1      -3.936  -2.064   1.097  0.00  0.00    -0.283 N 
ATOM      4  C   UNL     1      -4.534  -3.090   1.963  0.00  0.00    +0.128 C 
ATOM      5  C   UNL     1      -5.796  -2.509   2.613  0.00  0.00    +0.126 C 
ATOM      6  N   UNL     1      -5.465  -1.199   3.192  0.00  0.00    -0.299 N 
ATOM      7  C   UNL     1      -4.865  -0.171   2.329  0.00  0.00    +0.139 C 
ATOM      8  C   UNL     1      -3.606  -0.754   1.676  0.00  0.00    +0.179 C 
ATOM      9  C   UNL     1      -5.705  -0.943   4.493  0.00  0.00    +0.202 C 
ATOM     10  O   UNL     1      -5.428   0.141   4.959  0.00  0.00    -0.277 OA
ENDROOT
BRANCH   9  11
ATOM     11  C   UNL     1      -6.319  -2.005   5.369  0.00  0.00    +0.027 C 
ATOM     12  C   UNL     1      -7.851  -2.044   5.131  0.00  0.00    +0.060 C 
ATOM     13  S   UNL     1      -8.459  -2.545   6.796  0.00  0.00    -0.181 S 
ATOM     14  C   UNL     1      -6.838  -2.583   7.675  0.00  0.00    -0.011 C 
ATOM     15  N   UNL     1      -6.024  -1.698   6.783  0.00  0.00    +0.393 N 
ATOM     16  H   UNL     1      -6.257  -0.716   6.974  0.00  0.00    -0.084 HD
ATOM     17  H   UNL     1      -5.026  -1.855   6.965  0.00  0.00    -0.084 HD
ENDBRANCH   9  11
BRANCH   1  20
ATOM     18  C   UNL     1      -4.293  -5.420  -2.257  0.00  0.00    +0.008 A 
ATOM     19  C   UNL     1      -3.667  -4.249  -1.909  0.00  0.00    +0.021 A 
ATOM     20  C   UNL     1      -4.158  -3.576  -0.802  0.00  0.00    +0.074 A 
ATOM     21  S   UNL     1      -5.495  -4.641  -0.289  0.00  0.00    -0.092 S 
ATOM     22  C   UNL     1      -5.345  -5.856  -1.516  0.00  0.00    +0.046 A 
ENDBRANCH   1  20
BRANCH   8  23
ATOM     23  C   UNL     1      -3.124   0.172   0.589  0.00  0.00    +0.236 C 
ATOM     24  O   UNL     1      -3.810   0.363  -0.393  0.00  0.00    -0.274 OA
ATOM     25  N   UNL     1      -1.931   0.787   0.707  0.00  0.00    -0.302 N 
ATOM     26  H   UNL     1      -1.382   0.634   1.492  0.00  0.00    +0.150 HD
BRANCH  25  27
ATOM     27  C   UNL     1      -1.463   1.688  -0.349  0.00  0.00    +0.159 C 
ATOM     28  C   UNL     1      -0.478   2.699   0.247  0.00  0.00    +0.033 C 
ATOM     29  C   UNL     1       0.199   3.449  -0.907  0.00  0.00    +0.021 C 
ATOM     30  C   UNL     1       1.093   2.470  -1.669  0.00  0.00    +0.104 C 
ATOM     31  N   UNL     1       0.350   1.265  -2.017  0.00  0.00    -0.314 N 
ATOM     32  C   UNL     1      -0.782   0.886  -1.422  0.00  0.00    +0.233 C 
ATOM     33  O   UNL     1      -1.291  -0.159  -1.768  0.00  0.00    -0.274 OA
ATOM     34  H   UNL     1       0.700   0.704  -2.726  0.00  0.00    +0.149 HD
ENDBRANCH  25  27
ENDBRANCH   8  23
TORSDOF 4
