REMARK  Name = ZINC16127320
REMARK  8 active torsions:
REMARK  status: ('A' for Active; 'I' for Inactive)
REMARK    1  A    between atoms: C_1  and  C_2
REMARK    2  A    between atoms: C_5  and  N_30
REMARK    3  A    between atoms: C_7  and  S_8
REMARK    4  A    between atoms: S_8  and  N_11
REMARK    5  A    between atoms: N_11  and  C_12
REMARK    6  A    between atoms: C_15  and  N_18
REMARK    7  A    between atoms: N_18  and  S_19
REMARK    8  A    between atoms: S_19  and  C_22
REMARK                            x       y       z     vdW  Elec       q    Type
REMARK                         _______ _______ _______ _____ _____    ______ ____
ROOT
ATOM      1  C   UNL     1       2.805   3.765   0.095  0.00  0.00    +0.048 A 
ATOM      2  C   UNL     1       1.597   3.956  -0.562  0.00  0.00    +0.026 A 
ATOM      3  C   UNL     1       0.522   3.136  -0.283  0.00  0.00    +0.026 A 
ATOM      4  C   UNL     1       0.649   2.120   0.655  0.00  0.00    +0.048 A 
ATOM      5  C   UNL     1       1.855   1.933   1.317  0.00  0.00    +0.026 A 
ATOM      6  C   UNL     1       2.932   2.749   1.033  0.00  0.00    +0.026 A 
ENDROOT
BRANCH   1   7
ATOM      7  N   UNL     1       3.896   4.596  -0.189  0.00  0.00    -0.216 N 
ATOM      8  H   UNL     1       4.129   4.792  -1.110  0.00  0.00    +0.174 HD
BRANCH   7   9
ATOM      9  S   UNL     1       4.786   5.245   1.047  0.00  0.00    +0.073 S 
ATOM     10  O   UNL     1       5.158   4.164   1.891  0.00  0.00    -0.150 OA
ATOM     11  O   UNL     1       5.743   6.109   0.449  0.00  0.00    -0.150 OA
BRANCH   9  18
ATOM     12  C   UNL     1       3.400   7.705  -0.039  0.00  0.00    +0.046 C 
ATOM     13  C   UNL     1       3.115   7.374   1.403  0.00  0.00    -0.024 A 
ATOM     14  C   UNL     1       2.261   8.173   2.140  0.00  0.00    +0.007 A 
ATOM     15  C   UNL     1       2.005   7.873   3.465  0.00  0.00    +0.033 A 
ATOM     16  C   UNL     1       2.597   6.770   4.051  0.00  0.00    +0.128 A 
ATOM     17  C   UNL     1       3.446   5.968   3.313  0.00  0.00    +0.061 A 
ATOM     18  C   UNL     1       3.703   6.268   1.988  0.00  0.00    +0.114 A 
BRANCH  16  19
ATOM     19  N   UNL     1       2.322   6.449   5.470  0.00  0.00    +0.056 N 
ATOM     20  O   UNL     1       2.844   5.477   5.986  0.00  0.00    -0.126 OA
ATOM     21  O   UNL     1       1.573   7.156   6.120  0.00  0.00    -0.126 OA
ENDBRANCH  16  19
ENDBRANCH   9  18
ENDBRANCH   7   9
ENDBRANCH   1   7
BRANCH   4  22
ATOM     22  N   UNL     1      -0.441   1.288   0.939  0.00  0.00    -0.216 N 
ATOM     23  H   UNL     1      -1.321   1.672   1.074  0.00  0.00    +0.174 HD
BRANCH  22  24
ATOM     24  S   UNL     1      -0.228  -0.351   1.036  0.00  0.00    +0.072 S 
ATOM     25  O   UNL     1       0.859  -0.567   1.926  0.00  0.00    -0.150 OA
ATOM     26  O   UNL     1      -1.514  -0.916   1.254  0.00  0.00    -0.150 OA
BRANCH  24  27
ATOM     27  C   UNL     1       0.303  -0.903  -0.551  0.00  0.00    +0.111 A 
ATOM     28  C   UNL     1      -0.631  -1.190  -1.530  0.00  0.00    +0.032 A 
ATOM     29  C   UNL     1      -0.217  -1.617  -2.777  0.00  0.00    +0.043 A 
ATOM     30  C   UNL     1       1.133  -1.770  -3.044  0.00  0.00    +0.159 A 
ATOM     31  C   UNL     1       2.069  -1.488  -2.060  0.00  0.00    +0.160 A 
ATOM     32  C   UNL     1       1.651  -1.055  -0.814  0.00  0.00    +0.070 A 
ATOM     33  F   UNL     1       3.386  -1.636  -2.318  0.00  0.00    -0.202 F 
ATOM     34  F   UNL     1       1.538  -2.193  -4.261  0.00  0.00    -0.202 F 
ENDBRANCH  24  27
ENDBRANCH  22  24
ENDBRANCH   4  22
TORSDOF 7
