REMARK  Name = ZINC13922160
REMARK  4 active torsions:
REMARK  status: ('A' for Active; 'I' for Inactive)
REMARK    1  A    between atoms: C_6  and  N_7
REMARK    2  A    between atoms: C_8  and  C_10
REMARK    3  A    between atoms: N_12  and  N_13
REMARK    4  A    between atoms: C_14  and  C_15
REMARK                            x       y       z     vdW  Elec       q    Type
REMARK                         _______ _______ _______ _____ _____    ______ ____
ROOT
ATOM      1  C   UNL     1       2.446   1.019   0.104  0.00  0.00    +0.318 C 
ATOM      2  O   UNL     1       2.504  -0.191   0.185  0.00  0.00    -0.263 OA
ATOM      3  N   UNL     1       3.578   1.750   0.103  0.00  0.00    -0.199 N 
ATOM      4  H   UNL     1       3.532   2.717   0.038  0.00  0.00    +0.178 HD
ENDROOT
BRANCH   1   6
ATOM      5  N   UNL     1      -0.011   0.966   0.007  0.00  0.00    -0.278 N 
ATOM      6  C   UNL     1       1.121   1.697   0.006  0.00  0.00    +0.305 C 
ATOM      7  O   UNL     1       1.063   2.907  -0.075  0.00  0.00    -0.265 OA
ATOM      8  H   UNL     1       0.037  -0.003   0.004  0.00  0.00    +0.155 HD
BRANCH   5  14
ATOM      9  C   UNL     1      -2.324   1.044   0.695  0.00  0.00    +0.025 A 
ATOM     10  C   UNL     1      -3.550   1.680   0.698  0.00  0.00    +0.023 A 
ATOM     11  C   UNL     1      -3.718   2.867   0.008  0.00  0.00    +0.059 A 
ATOM     12  C   UNL     1      -2.655   3.425  -0.684  0.00  0.00    +0.061 A 
ATOM     13  C   UNL     1      -1.425   2.796  -0.685  0.00  0.00    +0.044 A 
ATOM     14  C   UNL     1      -1.255   1.604   0.007  0.00  0.00    +0.035 A 
ATOM     15 CL   UNL     1      -2.869   4.915  -1.549  0.00  0.00    -0.082 Cl
ATOM     16 CL   UNL     1      -5.263   3.659   0.009  0.00  0.00    -0.082 Cl
ENDBRANCH   5  14
ENDBRANCH   1   6
BRANCH   3  17
ATOM     17  N   UNL     1       4.823   1.113   0.195  0.00  0.00    -0.187 NA
ATOM     18  C   UNL     1       5.914   1.818   0.194  0.00  0.00    +0.139 C 
BRANCH  18  19
ATOM     19  C   UNL     1       7.224   1.148   0.291  0.00  0.00    +0.013 A 
ATOM     20  C   UNL     1       8.400   1.903   0.290  0.00  0.00    +0.012 A 
ATOM     21  C   UNL     1       9.621   1.270   0.381  0.00  0.00    +0.021 A 
ATOM     22  C   UNL     1       9.685  -0.111   0.473  0.00  0.00    +0.042 A 
ATOM     23  C   UNL     1       8.525  -0.865   0.475  0.00  0.00    +0.040 A 
ATOM     24  C   UNL     1       7.295  -0.245   0.390  0.00  0.00    +0.051 A 
ATOM     25 CL   UNL     1       5.840  -1.192   0.400  0.00  0.00    -0.083 Cl
ATOM     26 CL   UNL     1      11.228  -0.898   0.588  0.00  0.00    -0.083 Cl
ENDBRANCH  18  19
ENDBRANCH   3  17
TORSDOF 4
