REMARK  Name = ZINC25663919
REMARK  12 active torsions:
REMARK  status: ('A' for Active; 'I' for Inactive)
REMARK    1  A    between atoms: C_1  and  C_2
REMARK    2  A    between atoms: C_5  and  C_31
REMARK    3  A    between atoms: C_7  and  N_8
REMARK    4  A    between atoms: C_9  and  C_11
REMARK    5  A    between atoms: C_11  and  O_12
REMARK    6  A    between atoms: O_12  and  C_13
REMARK    7  A    between atoms: C_13  and  C_15
REMARK    8  A    between atoms: C_16  and  C_30
REMARK    9  A    between atoms: C_18  and  C_20
REMARK   10  A    between atoms: C_23  and  C_26
REMARK   11  A    between atoms: C_31  and  O_33
REMARK   12  A    between atoms: O_33  and  C_34
REMARK                            x       y       z     vdW  Elec       q    Type
REMARK                         _______ _______ _______ _____ _____    ______ ____
ROOT
ATOM      1  C   UNL     1       4.451   8.225  -0.420  0.00  0.00    +0.348 C 
ATOM      2  O   UNL     1       5.577   7.764  -0.447  0.00  0.00    -0.244 OA
ENDROOT
BRANCH   1   3
ATOM      3  C   UNL     1       4.250   9.672  -0.513  0.00  0.00    +0.119 A 
ATOM      4  C   UNL     1       5.186  10.693  -0.635  0.00  0.00    +0.060 A 
ATOM      5  N   UNL     1       4.744  11.918  -0.700  0.00  0.00    -0.243 NA
ATOM      6  C   UNL     1       3.447  12.193  -0.652  0.00  0.00    +0.109 A 
ATOM      7  S   UNL     1       2.733  10.617  -0.508  0.00  0.00    -0.060 S 
ATOM      8  C   UNL     1       6.662  10.393  -0.691  0.00  0.00    +0.067 C 
BRANCH   6   9
ATOM      9  C   UNL     1       2.778  13.509  -0.712  0.00  0.00    +0.007 A 
ATOM     10  C   UNL     1       3.535  14.676  -0.830  0.00  0.00    +0.011 A 
ATOM     11  C   UNL     1       2.904  15.901  -0.891  0.00  0.00    +0.013 A 
ATOM     12  C   UNL     1       1.524  15.976  -0.824  0.00  0.00    +0.055 A 
ATOM     13  C   UNL     1       0.768  14.824  -0.701  0.00  0.00    +0.013 A 
ATOM     14  C   UNL     1       1.386  13.592  -0.645  0.00  0.00    +0.011 A 
BRANCH  12  15
ATOM     15  C   UNL     1       0.842  17.318  -0.886  0.00  0.00    +0.417 C 
ATOM     16  F   UNL     1       0.700  17.828   0.409  0.00  0.00    -0.166 F 
ATOM     17  F   UNL     1       1.613  18.199  -1.652  0.00  0.00    -0.166 F 
ATOM     18  F   UNL     1      -0.420  17.173  -1.471  0.00  0.00    -0.166 F 
ENDBRANCH  12  15
ENDBRANCH   6   9
ENDBRANCH   1   3
BRANCH   1  19
ATOM     19  O   UNL     1       3.388   7.402  -0.306  0.00  0.00    -0.451 OA
BRANCH  19  20
ATOM     20  C   UNL     1       3.663   5.979  -0.219  0.00  0.00    +0.328 C 
BRANCH  20  22
ATOM     21  N   UNL     1       2.373   3.879  -0.001  0.00  0.00    -0.282 N 
ATOM     22  C   UNL     1       2.364   5.224  -0.097  0.00  0.00    +0.255 C 
ATOM     23  O   UNL     1       1.311   5.826  -0.084  0.00  0.00    -0.272 OA
ATOM     24  H   UNL     1       3.328   3.340   0.079  0.00  0.00    +0.155 HD
BRANCH  21  31
ATOM     25  C   UNL     1       2.322   1.321   1.236  0.00  0.00    +0.045 C 
ATOM     26  C   UNL     1       1.097   1.915   0.590  0.00  0.00    -0.029 A 
ATOM     27  C   UNL     1      -0.092   1.210   0.589  0.00  0.00    +0.006 A 
ATOM     28  C   UNL     1      -1.216   1.744  -0.004  0.00  0.00    +0.015 A 
ATOM     29  C   UNL     1      -1.159   3.007  -0.599  0.00  0.00    +0.061 A 
ATOM     30  C   UNL     1       0.041   3.719  -0.598  0.00  0.00    +0.038 A 
ATOM     31  C   UNL     1       1.167   3.170  -0.004  0.00  0.00    +0.037 A 
BRANCH  29  32
ATOM     32  C   UNL     1      -2.363   3.585  -1.229  0.00  0.00    +0.339 C 
ATOM     33  O   UNL     1      -2.310   4.682  -1.749  0.00  0.00    -0.245 OA
BRANCH  32  34
ATOM     34  O   UNL     1      -3.521   2.896  -1.228  0.00  0.00    -0.464 OA
ATOM     35  C   UNL     1      -4.663   3.526  -1.866  0.00  0.00    +0.280 C 
ENDBRANCH  32  34
ENDBRANCH  29  32
ENDBRANCH  21  31
ENDBRANCH  20  22
ENDBRANCH  19  20
ENDBRANCH   1  19
TORSDOF 9
