REMARK  Name = ZINC20115464
REMARK  13 active torsions:
REMARK  status: ('A' for Active; 'I' for Inactive)
REMARK    1  A    between atoms: C_1  and  C_2
REMARK    2  A    between atoms: C_2  and  C_3
REMARK    3  A    between atoms: C_2  and  C_40
REMARK    4  A    between atoms: C_3  and  C_4
REMARK    5  A    between atoms: N_6  and  C_34
REMARK    6  A    between atoms: C_8  and  C_9
REMARK    7  A    between atoms: C_14  and  C_15
REMARK    8  A    between atoms: C_16  and  C_26
REMARK    9  A    between atoms: N_18  and  C_20
REMARK   10  A    between atoms: C_26  and  C_27
REMARK   11  A    between atoms: C_27  and  C_28
REMARK   12  A    between atoms: C_27  and  C_29
REMARK   13  A    between atoms: N_31  and  C_33
REMARK                            x       y       z     vdW  Elec       q    Type
REMARK                         _______ _______ _______ _____ _____    ______ ____
ROOT
ATOM      1  C   UNL     1       3.998  -2.178   0.669  0.00  0.00    +0.020 C 
ATOM      2  C   UNL     1       4.857  -2.980   0.002  0.00  0.00    +0.014 C 
ATOM      3  C   UNL     1       5.943  -2.433  -0.843  0.00  0.00    +0.188 C 
ATOM      4  O   UNL     1       6.570  -1.430  -0.546  0.00  0.00    -0.287 OA
ATOM      5  C   UNL     1       6.206  -3.207  -2.078  0.00  0.00    +0.014 C 
ATOM      6  C   UNL     1       6.534  -2.605  -3.243  0.00  0.00    +0.020 C 
ATOM      7  C   UNL     1       6.085  -4.713  -1.960  0.00  0.00    +0.123 C 
ATOM      8  N   UNL     1       4.818  -5.037  -1.289  0.00  0.00    -0.297 NA
ATOM      9  C   UNL     1       4.770  -4.491   0.080  0.00  0.00    +0.123 C 
ATOM     10  C   UNL     1       4.580  -6.487  -1.285  0.00  0.00    +0.105 C 
ENDROOT
BRANCH   1  15
ATOM     11  C   UNL     1       1.937  -2.149   2.212  0.00  0.00    +0.071 A 
ATOM     12  N   UNL     1       1.428  -2.960   3.099  0.00  0.00    -0.171 NA
ATOM     13  N   UNL     1       2.241  -4.095   3.198  0.00  0.00    -0.239 N 
ATOM     14  C   UNL     1       3.272  -3.957   2.341  0.00  0.00    +0.122 A 
ATOM     15  C   UNL     1       3.112  -2.744   1.696  0.00  0.00    +0.016 A 
BRANCH  13  16
ATOM     16  C   UNL     1       2.022  -5.188   4.046  0.00  0.00    +0.065 A 
ATOM     17  C   UNL     1       2.912  -6.253   4.052  0.00  0.00    +0.028 A 
ATOM     18  C   UNL     1       2.693  -7.330   4.889  0.00  0.00    +0.002 A 
ATOM     19  C   UNL     1       1.588  -7.348   5.720  0.00  0.00    +0.000 A 
ATOM     20  C   UNL     1       0.698  -6.289   5.715  0.00  0.00    +0.002 A 
ATOM     21  C   UNL     1       0.915  -5.207   4.885  0.00  0.00    +0.028 A 
ENDBRANCH  13  16
BRANCH  11  22
ATOM     22  C   UNL     1       1.368  -0.814   1.805  0.00  0.00    +0.061 C 
BRANCH  22  24
ATOM     23  C   UNL     1      -0.085   0.357   0.144  0.00  0.00    +0.007 C 
ATOM     24  C   UNL     1       0.397  -1.008   0.639  0.00  0.00    -0.011 C 
ATOM     25  C   UNL     1      -0.803  -1.834   1.107  0.00  0.00    +0.007 C 
ENDBRANCH  22  24
ENDBRANCH  11  22
ENDBRANCH   1  15
BRANCH   6  26
ATOM     26  C   UNL     1       6.971  -3.413  -4.389  0.00  0.00    +0.016 A 
ATOM     27  C   UNL     1       6.966  -3.016  -5.748  0.00  0.00    +0.071 A 
ATOM     28  N   UNL     1       7.426  -4.007  -6.461  0.00  0.00    -0.171 NA
ATOM     29  N   UNL     1       7.745  -5.071  -5.610  0.00  0.00    -0.239 N 
ATOM     30  C   UNL     1       7.470  -4.702  -4.344  0.00  0.00    +0.122 A 
BRANCH  29  31
ATOM     31  C   UNL     1       8.266  -6.309  -6.007  0.00  0.00    +0.065 A 
ATOM     32  C   UNL     1       8.534  -7.288  -5.059  0.00  0.00    +0.028 A 
ATOM     33  C   UNL     1       9.047  -8.508  -5.454  0.00  0.00    +0.002 A 
ATOM     34  C   UNL     1       9.294  -8.755  -6.792  0.00  0.00    +0.000 A 
ATOM     35  C   UNL     1       9.029  -7.783  -7.738  0.00  0.00    +0.002 A 
ATOM     36  C   UNL     1       8.510  -6.563  -7.350  0.00  0.00    +0.028 A 
ENDBRANCH  29  31
BRANCH  27  37
ATOM     37  C   UNL     1       6.508  -1.682  -6.278  0.00  0.00    +0.061 C 
BRANCH  37  38
ATOM     38  C   UNL     1       7.691  -0.713  -6.311  0.00  0.00    -0.011 C 
ATOM     39  C   UNL     1       7.257   0.601  -6.965  0.00  0.00    +0.007 C 
ATOM     40  C   UNL     1       8.167  -0.439  -4.883  0.00  0.00    +0.007 C 
ENDBRANCH  37  38
ENDBRANCH  27  37
ENDBRANCH   6  26
TORSDOF 8
