REMARK  Name = ZINC53112806
REMARK  6 active torsions:
REMARK  status: ('A' for Active; 'I' for Inactive)
REMARK    1  A    between atoms: C_2  and  N_21
REMARK    2  A    between atoms: C_5  and  S_8
REMARK    3  A    between atoms: S_8  and  N_11
REMARK    4  A    between atoms: N_11  and  C_12
REMARK    5  A    between atoms: C_12  and  C_18
REMARK    6  A    between atoms: C_18  and  O_19
REMARK                            x       y       z     vdW  Elec       q    Type
REMARK                         _______ _______ _______ _____ _____    ______ ____
ROOT
ATOM      1  S   UNL     1       1.466  -2.932   0.384  0.00  0.00    +0.061 S 
ATOM      2  O   UNL     1       2.806  -3.402   0.324  0.00  0.00    -0.153 OA
ATOM      3  O   UNL     1       1.096  -1.628  -0.042  0.00  0.00    -0.153 OA
ENDROOT
BRANCH   1   8
ATOM      4  C   UNL     1      -0.052  -6.315  -1.166  0.00  0.00    +0.040 A 
ATOM      5  C   UNL     1      -1.035  -5.841  -2.026  0.00  0.00    +0.027 A 
ATOM      6  C   UNL     1      -1.249  -4.474  -2.145  0.00  0.00    +0.040 A 
ATOM      7  C   UNL     1      -0.485  -3.589  -1.409  0.00  0.00    +0.047 A 
ATOM      8  C   UNL     1       0.493  -4.064  -0.553  0.00  0.00    +0.133 A 
ATOM      9  C   UNL     1       0.709  -5.425  -0.432  0.00  0.00    +0.047 A 
ATOM     10 BR   UNL     1       2.047  -6.069   0.739  0.00  0.00    -0.048 Br
ATOM     11 BR   UNL     1      -0.776  -1.728  -1.571  0.00  0.00    -0.048 Br
BRANCH   5  12
ATOM     12  N   UNL     1      -1.806  -6.738  -2.769  0.00  0.00    -0.358 N 
ATOM     13  H   UNL     1      -1.655  -7.692  -2.686  0.00  0.00    +0.142 HD
ATOM     14  H   UNL     1      -2.492  -6.406  -3.369  0.00  0.00    +0.142 HD
ENDBRANCH   5  12
ENDBRANCH   1   8
BRANCH   1  15
ATOM     15  N   UNL     1       0.988  -3.067   1.964  0.00  0.00    -0.182 NA
ATOM     16  H   UNL     1       1.586  -3.458   2.620  0.00  0.00    +0.149 HD
BRANCH  15  17
ATOM     17  C   UNL     1      -0.339  -2.598   2.370  0.00  0.00    +0.063 C 
ATOM     18  C   UNL     1      -1.403  -3.239   1.476  0.00  0.00    +0.026 C 
ATOM     19  C   UNL     1      -1.336  -4.761   1.615  0.00  0.00    +0.002 C 
ATOM     20  C   UNL     1      -1.591  -5.152   3.072  0.00  0.00    +0.000 C 
ATOM     21  C   UNL     1      -0.527  -4.511   3.966  0.00  0.00    +0.002 C 
ATOM     22  C   UNL     1      -0.594  -2.989   3.827  0.00  0.00    +0.026 C 
BRANCH  17  23
ATOM     23  C   UNL     1      -0.406  -1.075   2.231  0.00  0.00    +0.179 C 
BRANCH  23  24
ATOM     24  O   UNL     1      -0.518  -0.728   0.850  0.00  0.00    -0.393 OA
ATOM     25  H   UNL     1      -0.665   0.215   0.692  0.00  0.00    +0.209 HD
ENDBRANCH  23  24
ENDBRANCH  17  23
ENDBRANCH  15  17
ENDBRANCH   1  15
TORSDOF 6
