REMARK  Name = ZINC39865257
REMARK  7 active torsions:
REMARK  status: ('A' for Active; 'I' for Inactive)
REMARK    1  A    between atoms: C_1  and  C_2
REMARK    2  A    between atoms: C_2  and  N_3
REMARK    3  A    between atoms: C_7  and  C_8
REMARK    4  A    between atoms: C_12  and  O_14
REMARK    5  A    between atoms: O_14  and  C_15
REMARK    6  A    between atoms: N_18  and  C_19
REMARK    7  A    between atoms: C_21  and  C_24
REMARK                            x       y       z     vdW  Elec       q    Type
REMARK                         _______ _______ _______ _____ _____    ______ ____
ROOT
ATOM      1  N   UNL     1       0.484  -1.489  -1.051  0.00  0.00    -0.246 N 
ATOM      2  C   UNL     1      -0.143  -1.374  -2.210  0.00  0.00    +0.259 C 
ATOM      3  O   UNL     1      -1.337  -1.146  -2.267  0.00  0.00    -0.269 OA
ATOM      4  C   UNL     1       0.673  -1.534  -3.430  0.00  0.00    +0.078 C 
ATOM      5  C   UNL     1       0.297  -1.466  -4.732  0.00  0.00    +0.028 C 
ATOM      6  S   UNL     1       2.289  -1.839  -2.731  0.00  0.00    -0.049 S 
ATOM      7  C   UNL     1       1.837  -1.741  -1.007  0.00  0.00    +0.171 C 
ATOM      8  N   UNL     1       2.609  -1.879   0.051  0.00  0.00    -0.199 NA
ENDROOT
BRANCH   5   9
ATOM      9  C   UNL     1       1.252  -1.822  -5.792  0.00  0.00    -0.020 A 
ATOM     10  C   UNL     1       2.405  -2.553  -5.484  0.00  0.00    +0.008 A 
ATOM     11  C   UNL     1       3.296  -2.885  -6.481  0.00  0.00    +0.004 A 
ATOM     12  C   UNL     1       3.057  -2.497  -7.787  0.00  0.00    +0.045 A 
ATOM     13  C   UNL     1       1.916  -1.771  -8.105  0.00  0.00    +0.121 A 
ATOM     14  C   UNL     1       1.009  -1.437  -7.114  0.00  0.00    +0.053 A 
BRANCH  13  15
ATOM     15  O   UNL     1       1.687  -1.393  -9.390  0.00  0.00    -0.495 OA
ATOM     16  C   UNL     1       2.662  -1.777 -10.362  0.00  0.00    +0.277 C 
ENDBRANCH  13  15
ENDBRANCH   5   9
BRANCH   8  17
ATOM     17  C   UNL     1       3.936  -2.127  -0.104  0.00  0.00    +0.195 A 
ATOM     18  N   UNL     1       4.875  -2.302   0.820  0.00  0.00    -0.226 NA
ATOM     19  C   UNL     1       6.125  -2.536   0.481  0.00  0.00    +0.048 A 
ATOM     20  C   UNL     1       6.471  -2.601  -0.828  0.00  0.00    +0.071 A 
ATOM     21  S   UNL     1       4.887  -2.314  -1.606  0.00  0.00    -0.056 S 
ATOM     22  C   UNL     1       7.172  -2.730   1.548  0.00  0.00    +0.066 C 
ENDBRANCH   8  17
BRANCH   1  24
ATOM     23  C   UNL     1      -0.264   0.128   0.624  0.00  0.00    +0.025 C 
ATOM     24  C   UNL     1      -0.267  -1.342   0.198  0.00  0.00    +0.112 C 
ENDBRANCH   1  24
TORSDOF 4
