REMARK  Name = ZINC50397392
REMARK  3 active torsions:
REMARK  status: ('A' for Active; 'I' for Inactive)
REMARK    1  A    between atoms: C_2  and  N_21
REMARK    2  A    between atoms: C_3  and  N_12
REMARK    3  A    between atoms: N_12  and  C_13
REMARK                            x       y       z     vdW  Elec       q    Type
REMARK                         _______ _______ _______ _____ _____    ______ ____
ROOT
ATOM      1  C   UNL     1      -0.017   1.380   0.010  0.00  0.00    +0.072 A 
ATOM      2  C   UNL     1       1.176   2.088   0.002  0.00  0.00    +0.049 A 
ATOM      3  C   UNL     1       2.393   1.407  -0.013  0.00  0.00    +0.051 A 
ATOM      4  C   UNL     1       2.410   0.020  -0.020  0.00  0.00    +0.051 A 
ATOM      5  C   UNL     1       1.218  -0.685  -0.012  0.00  0.00    +0.078 A 
ATOM      6  C   UNL     1       0.002  -0.004   0.002  0.00  0.00    +0.144 A 
ATOM      7  O   UNL     1      -1.161  -0.712   0.007  0.00  0.00    -0.481 OA
ATOM      8  C   UNL     1      -1.158  -1.958  -0.695  0.00  0.00    +0.325 C 
ATOM      9  C   UNL     1       0.076  -2.742  -0.328  0.00  0.00    +0.255 C 
ATOM     10  O   UNL     1       0.044  -3.955  -0.311  0.00  0.00    -0.272 OA
ATOM     11  N   UNL     1       1.217  -2.090  -0.018  0.00  0.00    -0.280 N 
ATOM     12  H   UNL     1       2.024  -2.583   0.197  0.00  0.00    +0.155 HD
ENDROOT
BRANCH   2  13
ATOM     13  N   UNL     1       1.159   3.490   0.009  0.00  0.00    -0.356 N 
ATOM     14  H   UNL     1       0.313   3.965   0.020  0.00  0.00    +0.142 HD
ATOM     15  H   UNL     1       1.993   3.986   0.004  0.00  0.00    +0.142 HD
ENDBRANCH   2  13
BRANCH   3  16
ATOM     16  N   UNL     1       3.598   2.124  -0.022  0.00  0.00    -0.331 N 
ATOM     17  H   UNL     1       3.585   3.094  -0.018  0.00  0.00    +0.147 HD
BRANCH  16  18
ATOM     18  C   UNL     1       4.876   1.408  -0.038  0.00  0.00    +0.157 C 
ATOM     19  C   UNL     1       5.952   2.303  -0.659  0.00  0.00    +0.033 C 
ATOM     20  C   UNL     1       7.320   1.654  -0.418  0.00  0.00    +0.021 C 
ATOM     21  C   UNL     1       7.624   1.694   1.080  0.00  0.00    +0.104 C 
ATOM     22  N   UNL     1       6.502   1.161   1.843  0.00  0.00    -0.314 N 
ATOM     23  C   UNL     1       5.263   1.047   1.367  0.00  0.00    +0.233 C 
ATOM     24  O   UNL     1       4.401   0.627   2.110  0.00  0.00    -0.274 OA
ATOM     25  H   UNL     1       6.669   0.871   2.753  0.00  0.00    +0.149 HD
ENDBRANCH  16  18
ENDBRANCH   3  16
TORSDOF 3
