REMARK  Name = ZINC06197008
REMARK  8 active torsions:
REMARK  status: ('A' for Active; 'I' for Inactive)
REMARK    1  A    between atoms: C_1  and  C_2
REMARK    2  A    between atoms: C_2  and  O_3
REMARK    3  A    between atoms: O_3  and  C_4
REMARK    4  A    between atoms: C_11  and  C_16
REMARK    5  A    between atoms: C_16  and  C_18
REMARK    6  A    between atoms: C_16  and  N_74
REMARK    7  A    between atoms: N_22  and  C_23
REMARK    8  A    between atoms: C_23  and  C_24
REMARK                            x       y       z     vdW  Elec       q    Type
REMARK                         _______ _______ _______ _____ _____    ______ ____
ROOT
ATOM      1  C   UNL     1      -2.840   1.454  -2.452  0.00  0.00    +0.039 C 
ENDROOT
BRANCH   1   9
ATOM      2  C   UNL     1      -2.000   6.590  -5.820  0.00  0.00    +0.121 A 
ATOM      3  C   UNL     1      -2.496   7.476  -4.868  0.00  0.00    +0.047 A 
ATOM      4  C   UNL     1      -2.953   7.017  -3.652  0.00  0.00    +0.030 A 
ATOM      5  C   UNL     1      -2.922   5.656  -3.367  0.00  0.00    +0.049 A 
ATOM      6  C   UNL     1      -2.421   4.757  -4.327  0.00  0.00    +0.002 A 
ATOM      7  C   UNL     1      -1.960   5.235  -5.558  0.00  0.00    +0.055 A 
ATOM      8  C   UNL     1      -2.394   3.327  -4.014  0.00  0.00    +0.017 A 
ATOM      9  C   UNL     1      -2.854   2.919  -2.805  0.00  0.00    +0.011 A 
ATOM     10  C   UNL     1      -3.352   3.861  -1.880  0.00  0.00    +0.251 A 
ATOM     11  O   UNL     1      -3.766   3.472  -0.801  0.00  0.00    -0.268 OA
ATOM     12  N   UNL     1      -3.376   5.176  -2.155  0.00  0.00    -0.322 N 
ATOM     13  H   UNL     1      -3.727   5.816  -1.472  0.00  0.00    +0.169 HD
BRANCH   2  14
ATOM     14  O   UNL     1      -1.552   7.061  -7.015  0.00  0.00    -0.492 OA
BRANCH  14  16
ATOM     15  C   UNL     1      -1.078   8.811  -8.612  0.00  0.00    +0.048 C 
ATOM     16  C   UNL     1      -1.622   8.473  -7.222  0.00  0.00    +0.225 C 
ENDBRANCH  14  16
ENDBRANCH   2  14
ENDBRANCH   1   9
BRANCH   1  27
ATOM     17  C   UNL     1      -2.054  -0.161  -0.828  0.00  0.00    -0.077 C 
ATOM     18  C   UNL     1      -1.401  -0.310   0.548  0.00  0.00    -0.018 C 
ATOM     19  C   UNL     1       0.017   0.266   0.501  0.00  0.00    +0.003 C 
ATOM     20  C   UNL     1      -0.052   1.732   0.064  0.00  0.00    -0.044 C 
ATOM     21  C   UNL     1      -0.744   1.823  -1.298  0.00  0.00    -0.071 C 
ATOM     22  C   UNL     1      -0.847   2.534   1.095  0.00  0.00    +0.005 C 
ATOM     23  C   UNL     1      -0.915   4.000   0.662  0.00  0.00    +0.000 C 
ATOM     24  C   UNL     1       0.503   4.566   0.557  0.00  0.00    +0.000 C 
ATOM     25  C   UNL     1       1.297   3.765  -0.476  0.00  0.00    +0.000 C 
ATOM     26  C   UNL     1       1.365   2.299  -0.043  0.00  0.00    +0.005 C 
ATOM     27  N   UNL     1      -2.112   1.274  -1.179  0.00  0.00    +0.390 N 
ATOM     28  H   UNL     1      -2.610   1.779  -0.436  0.00  0.00    -0.080 HD
ENDBRANCH   1  27
BRANCH   1  29
ATOM     29  C   UNL     1      -4.255   0.966  -2.277  0.00  0.00    +0.143 A 
ATOM     30  N   UNL     1      -5.019   1.142  -1.227  0.00  0.00    -0.115 NA
ATOM     31  N   UNL     1      -6.155   0.580  -1.462  0.00  0.00    -0.023 NA
ATOM     32  N   UNL     1      -6.131   0.043  -2.632  0.00  0.00    -0.044 NA
ATOM     33  N   UNL     1      -4.977   0.259  -3.166  0.00  0.00    -0.226 N 
BRANCH  33  34
ATOM     34  C   UNL     1      -4.535  -0.182  -4.491  0.00  0.00    +0.182 C 
BRANCH  34  35
ATOM     35  C   UNL     1      -3.896  -1.543  -4.380  0.00  0.00    -0.026 A 
ATOM     36  C   UNL     1      -2.537  -1.651  -4.152  0.00  0.00    +0.008 A 
ATOM     37  C   UNL     1      -1.951  -2.898  -4.045  0.00  0.00    +0.038 A 
ATOM     38  C   UNL     1      -2.724  -4.039  -4.178  0.00  0.00    +0.123 A 
ATOM     39  C   UNL     1      -4.084  -3.930  -4.412  0.00  0.00    +0.038 A 
ATOM     40  C   UNL     1      -4.669  -2.682  -4.513  0.00  0.00    +0.008 A 
ATOM     41  F   UNL     1      -2.151  -5.259  -4.078  0.00  0.00    -0.205 F 
ENDBRANCH  34  35
ENDBRANCH  33  34
ENDBRANCH   1  29
TORSDOF 7
