REMARK  Name = ZINC08720144
REMARK  8 active torsions:
REMARK  status: ('A' for Active; 'I' for Inactive)
REMARK    1  A    between atoms: C_1  and  C_2
REMARK    2  A    between atoms: C_2  and  C_4
REMARK    3  A    between atoms: C_2  and  S_17
REMARK    4  A    between atoms: N_6  and  C_7
REMARK    5  A    between atoms: C_10  and  S_13
REMARK    6  A    between atoms: S_13  and  N_16
REMARK    7  A    between atoms: S_17  and  C_18
REMARK    8  A    between atoms: C_21  and  C_24
REMARK                            x       y       z     vdW  Elec       q    Type
REMARK                         _______ _______ _______ _____ _____    ______ ____
ROOT
ATOM      1  C   UNL     1      -3.618   2.846  -1.267  0.00  0.00    +0.029 C 
ATOM      2  C   UNL     1      -3.449   3.610   0.048  0.00  0.00    +0.137 C 
ENDROOT
BRANCH   2   3
ATOM      3  C   UNL     1      -4.568   4.609   0.196  0.00  0.00    +0.230 C 
ATOM      4  O   UNL     1      -4.405   5.758  -0.156  0.00  0.00    -0.274 OA
ATOM      5  N   UNL     1      -5.749   4.225   0.720  0.00  0.00    -0.285 N 
ATOM      6  H   UNL     1      -5.902   3.293   0.939  0.00  0.00    +0.155 HD
BRANCH   5   7
ATOM      7  C   UNL     1      -6.754   5.172   0.947  0.00  0.00    +0.034 A 
ATOM      8  C   UNL     1      -7.598   5.042   2.041  0.00  0.00    +0.025 A 
ATOM      9  C   UNL     1      -8.585   5.982   2.266  0.00  0.00    +0.030 A 
ATOM     10  C   UNL     1      -8.741   7.045   1.396  0.00  0.00    +0.105 A 
ATOM     11  C   UNL     1      -7.906   7.174   0.301  0.00  0.00    +0.030 A 
ATOM     12  C   UNL     1      -6.913   6.241   0.074  0.00  0.00    +0.025 A 
BRANCH  10  13
ATOM     13  S   UNL     1     -10.006   8.237   1.682  0.00  0.00    +0.056 S 
ATOM     14  O   UNL     1     -10.301   8.191   3.071  0.00  0.00    -0.153 OA
ATOM     15  O   UNL     1      -9.595   9.431   1.029  0.00  0.00    -0.153 OA
BRANCH  13  16
ATOM     16  N   UNL     1     -11.363   7.710   0.893  0.00  0.00    -0.204 NA
ATOM     17  H   UNL     1     -11.342   6.878   0.395  0.00  0.00    +0.144 HD
ATOM     18  H   UNL     1     -12.179   8.234   0.928  0.00  0.00    +0.144 HD
ENDBRANCH  13  16
ENDBRANCH  10  13
ENDBRANCH   5   7
ENDBRANCH   2   3
BRANCH   2  19
ATOM     19  S   UNL     1      -1.861   4.479   0.042  0.00  0.00    -0.075 S 
BRANCH  19  20
ATOM     20  C   UNL     1      -0.760   3.103   0.014  0.00  0.00    +0.167 A 
ATOM     21  N   UNL     1       0.599   3.175   0.001  0.00  0.00    -0.333 N 
ATOM     22  H   UNL     1       1.152   4.008   0.005  0.00  0.00    +0.168 HD
ATOM     23  C   UNL     1       1.070   1.873  -0.020  0.00  0.00    +0.067 A 
ATOM     24  C   UNL     1      -0.022   1.065  -0.018  0.00  0.00    +0.139 A 
ATOM     25  N   UNL     1      -1.115   1.838  -0.004  0.00  0.00    -0.230 NA
BRANCH  23  26
ATOM     26  C   UNL     1       2.485   1.446  -0.040  0.00  0.00    -0.000 A 
ATOM     27  C   UNL     1       3.505   2.400  -0.044  0.00  0.00    +0.011 A 
ATOM     28  C   UNL     1       4.823   1.994  -0.057  0.00  0.00    +0.016 A 
ATOM     29  C   UNL     1       5.136   0.646  -0.078  0.00  0.00    +0.018 A 
ATOM     30  C   UNL     1       4.129  -0.304  -0.079  0.00  0.00    +0.016 A 
ATOM     31  C   UNL     1       2.807   0.088  -0.060  0.00  0.00    +0.011 A 
ATOM     32 BR   UNL     1       6.946   0.100  -0.104  0.00  0.00    -0.050 Br
ENDBRANCH  23  26
ENDBRANCH  19  20
ENDBRANCH   2  19
TORSDOF 7
