REMARK  Name = ZINC37037319
REMARK  8 active torsions:
REMARK  status: ('A' for Active; 'I' for Inactive)
REMARK    1  A    between atoms: C_1  and  C_2
REMARK    2  A    between atoms: C_2  and  C_3
REMARK    3  A    between atoms: C_2  and  C_4
REMARK    4  A    between atoms: C_4  and  N_5
REMARK    5  A    between atoms: C_9  and  C_11
REMARK    6  A    between atoms: C_11  and  S_12
REMARK    7  A    between atoms: S_12  and  C_13
REMARK    8  A    between atoms: C_18  and  N_19
REMARK                            x       y       z     vdW  Elec       q    Type
REMARK                         _______ _______ _______ _____ _____    ______ ____
ROOT
ATOM      1  N   UNL     1      -0.008  -0.140   2.444  0.00  0.00    -0.299 N 
ATOM      2  C   UNL     1       0.457  -0.484   3.661  0.00  0.00    +0.306 C 
ATOM      3  O   UNL     1       1.498  -1.102   3.761  0.00  0.00    -0.252 OA
ATOM      4  N   UNL     1      -0.234  -0.143   4.767  0.00  0.00    -0.240 N 
ATOM      5  C   UNL     1       0.231  -0.487   5.985  0.00  0.00    +0.231 C 
ATOM      6  O   UNL     1       1.270  -1.103   6.085  0.00  0.00    -0.274 OA
ATOM      7  H   UNL     1      -0.840   0.353   2.364  0.00  0.00    +0.150 HD
ATOM      8  H   UNL     1      -1.065   0.350   4.687  0.00  0.00    +0.159 HD
ENDROOT
BRANCH   1   9
ATOM      9  C   UNL     1       0.742  -0.511   1.242  0.00  0.00    +0.108 C 
BRANCH   9  11
ATOM     10  C   UNL     1      -0.019   1.526   0.010  0.00  0.00    +0.009 C 
ATOM     11  C   UNL     1       0.002  -0.004   0.002  0.00  0.00    -0.000 C 
ATOM     12  C   UNL     1       0.718  -0.497  -1.257  0.00  0.00    +0.009 C 
ENDBRANCH   9  11
ENDBRANCH   1   9
BRANCH   5  13
ATOM     13  C   UNL     1      -0.540  -0.105   7.222  0.00  0.00    +0.170 C 
BRANCH  13  14
ATOM     14  S   UNL     1       0.337  -0.706   8.691  0.00  0.00    -0.114 S 
BRANCH  14  15
ATOM     15  C   UNL     1      -0.678  -0.188  10.035  0.00  0.00    +0.029 A 
ATOM     16  C   UNL     1      -1.852   0.509   9.791  0.00  0.00    +0.018 A 
ATOM     17  C   UNL     1      -2.647   0.914  10.847  0.00  0.00    +0.021 A 
ATOM     18  C   UNL     1      -2.276   0.627  12.149  0.00  0.00    +0.043 A 
ATOM     19  C   UNL     1      -1.106  -0.068  12.400  0.00  0.00    +0.043 A 
ATOM     20  C   UNL     1      -0.306  -0.483  11.347  0.00  0.00    +0.040 A 
ATOM     21 CL   UNL     1      -3.279   1.141  13.469  0.00  0.00    -0.083 Cl
BRANCH  20  22
ATOM     22  N   UNL     1       0.875  -1.192  11.599  0.00  0.00    -0.357 N 
ATOM     23  H   UNL     1       1.436  -1.478  10.861  0.00  0.00    +0.142 HD
ATOM     24  H   UNL     1       1.133  -1.396  12.512  0.00  0.00    +0.142 HD
ENDBRANCH  20  22
ENDBRANCH  14  15
ENDBRANCH  13  14
ENDBRANCH   5  13
TORSDOF 6
