REMARK  Name = ZINC02099075
REMARK  6 active torsions:
REMARK  status: ('A' for Active; 'I' for Inactive)
REMARK    1  A    between atoms: C_1  and  C_2
REMARK    2  A    between atoms: C_8  and  C_37
REMARK    3  A    between atoms: C_9  and  O_36
REMARK    4  A    between atoms: C_19  and  C_21
REMARK    5  A    between atoms: C_21  and  N_22
REMARK    6  A    between atoms: N_25  and  C_28
REMARK                            x       y       z     vdW  Elec       q    Type
REMARK                         _______ _______ _______ _____ _____    ______ ____
ROOT
ATOM      1  C   UNL     1       0.545   0.948  -0.433  0.00  0.00    +0.008 C 
ATOM      2  C   UNL     1       0.389  -0.524  -0.039  0.00  0.00    -0.001 C 
ATOM      3  C   UNL     1       1.222  -1.380  -0.994  0.00  0.00    +0.008 C 
ATOM      4  C   UNL     1       0.983  -2.854  -0.650  0.00  0.00    +0.027 C 
ATOM      5  C   UNL     1       1.325  -3.064   0.798  0.00  0.00    -0.027 C 
ATOM      6  C   UNL     1       1.269  -2.118   1.688  0.00  0.00    -0.061 C 
ATOM      7  C   UNL     1       0.859  -0.701   1.403  0.00  0.00    +0.018 C 
ATOM      8  C   UNL     1      -0.255  -0.297   2.361  0.00  0.00    +0.132 C 
ATOM      9  C   UNL     1      -0.163  -0.770   3.772  0.00  0.00    +0.071 C 
ATOM     10  C   UNL     1       0.437  -2.159   4.027  0.00  0.00    +0.187 C 
ATOM     11  C   UNL     1       1.635  -2.446   3.118  0.00  0.00    +0.076 C 
ATOM     12  O   UNL     1       0.990  -2.053   5.368  0.00  0.00    -0.460 OA
ATOM     13  C   UNL     1       1.470  -0.797   5.505  0.00  0.00    +0.309 C 
ATOM     14  O   UNL     1       2.495  -0.463   6.035  0.00  0.00    -0.251 OA
ATOM     15  C   UNL     1       0.442   0.120   4.850  0.00  0.00    +0.090 C 
ATOM     16  C   UNL     1       2.080   0.205   1.589  0.00  0.00    +0.018 C 
ENDROOT
BRANCH   8  17
ATOM     17  O   UNL     1      -1.505  -0.786   1.833  0.00  0.00    -0.391 OA
ATOM     18  H   UNL     1      -2.273  -0.574   2.381  0.00  0.00    +0.210 HD
ENDBRANCH   8  17
BRANCH  15  19
ATOM     19  C   UNL     1       1.083   1.408   4.361  0.00  0.00    -0.064 C 
BRANCH  19  20
ATOM     20  N   UNL     1       0.033   2.369   3.996  0.00  0.00    +0.382 N 
ATOM     21  C   UNL     1      -0.704   2.767   5.202  0.00  0.00    -0.060 C 
ATOM     22  C   UNL     1      -1.870   3.680   4.808  0.00  0.00    +0.086 C 
ATOM     23  N   UNL     1      -1.338   4.804   4.023  0.00  0.00    -0.333 N 
ATOM     24  C   UNL     1      -0.452   4.500   2.889  0.00  0.00    +0.086 C 
ATOM     25  C   UNL     1       0.647   3.549   3.373  0.00  0.00    -0.060 C 
ATOM     26  H   UNL     1      -0.603   1.938   3.342  0.00  0.00    -0.082 HD
BRANCH  23  27
ATOM     27  C   UNL     1      -1.665   6.124   4.346  0.00  0.00    +0.031 A 
ATOM     28  C   UNL     1      -1.064   7.176   3.665  0.00  0.00    +0.024 A 
ATOM     29  C   UNL     1      -1.388   8.479   3.986  0.00  0.00    +0.023 A 
ATOM     30  C   UNL     1      -2.310   8.739   4.984  0.00  0.00    +0.059 A 
ATOM     31  C   UNL     1      -2.910   7.693   5.665  0.00  0.00    +0.061 A 
ATOM     32  C   UNL     1      -2.594   6.387   5.343  0.00  0.00    +0.044 A 
ATOM     33 CL   UNL     1      -4.066   8.023   6.917  0.00  0.00    -0.082 Cl
ATOM     34 CL   UNL     1      -2.715  10.379   5.384  0.00  0.00    -0.082 Cl
ENDBRANCH  23  27
ENDBRANCH  19  20
ENDBRANCH  15  19
TORSDOF 4
