REMARK  Name = ZINC39655743
REMARK  6 active torsions:
REMARK  status: ('A' for Active; 'I' for Inactive)
REMARK    1  A    between atoms: C_1  and  C_2
REMARK    2  A    between atoms: C_8  and  C_11
REMARK    3  A    between atoms: C_11  and  C_12
REMARK    4  A    between atoms: C_12  and  N_13
REMARK    5  A    between atoms: C_14  and  C_16
REMARK    6  A    between atoms: C_27  and  C_29
REMARK                            x       y       z     vdW  Elec       q    Type
REMARK                         _______ _______ _______ _____ _____    ______ ____
ROOT
ATOM      1  C   UNL     1       4.136  -0.459  -7.273  0.00  0.00    +0.100 C 
ATOM      2  C   UNL     1       5.228   0.127  -6.350  0.00  0.00    +0.121 C 
ATOM      3  N   UNL     1       5.907  -1.057  -5.774  0.00  0.00    -0.296 N 
ATOM      4  C   UNL     1       5.984  -2.021  -6.898  0.00  0.00    +0.115 C 
ATOM      5  C   UNL     1       4.638  -1.867  -7.634  0.00  0.00    -0.004 C 
ATOM      6  C   UNL     1       4.843  -1.985  -9.141  0.00  0.00    -0.010 C 
ATOM      7  C   UNL     1       5.285  -3.411  -9.481  0.00  0.00    -0.082 C 
ATOM      8  N   UNL     1       4.264  -4.364  -9.030  0.00  0.00    +0.379 N 
ATOM      9  C   UNL     1       4.139  -4.309  -7.568  0.00  0.00    -0.082 C 
ATOM     10  C   UNL     1       3.648  -2.921  -7.147  0.00  0.00    -0.010 C 
ATOM     11  C   UNL     1       6.354  -1.222  -4.513  0.00  0.00    +0.248 C 
ATOM     12  O   UNL     1       6.979  -2.221  -4.215  0.00  0.00    -0.270 OA
ATOM     13  H   UNL     1       3.377  -4.128  -9.450  0.00  0.00    -0.086 HD
ATOM     14  H   UNL     1       4.529  -5.296  -9.309  0.00  0.00    -0.086 HD
ENDROOT
BRANCH  11  15
ATOM     15  C   UNL     1       6.083  -0.188  -3.493  0.00  0.00    +0.055 A 
ATOM     16  C   UNL     1       6.073   1.162  -3.848  0.00  0.00    +0.014 A 
ATOM     17  C   UNL     1       5.819   2.122  -2.891  0.00  0.00    +0.001 A 
ATOM     18  C   UNL     1       5.575   1.751  -1.580  0.00  0.00    +0.001 A 
ATOM     19  C   UNL     1       5.583   0.416  -1.220  0.00  0.00    +0.021 A 
ATOM     20  C   UNL     1       5.830  -0.557  -2.170  0.00  0.00    +0.053 A 
ATOM     21 CL   UNL     1       5.833  -2.233  -1.718  0.00  0.00    -0.083 Cl
ENDBRANCH  11  15
BRANCH   1  23
ATOM     22  N   UNL     1       1.663  -0.484  -7.230  0.00  0.00    -0.315 N 
ATOM     23  C   UNL     1       2.821  -0.541  -6.543  0.00  0.00    +0.218 C 
ATOM     24  O   UNL     1       2.804  -0.660  -5.336  0.00  0.00    -0.275 OA
ATOM     25  H   UNL     1       1.677  -0.389  -8.196  0.00  0.00    +0.149 HD
BRANCH  22  26
ATOM     26  C   UNL     1       0.385  -0.564  -6.520  0.00  0.00    +0.109 C 
BRANCH  26  27
ATOM     27  C   UNL     1      -0.764  -0.476  -7.527  0.00  0.00    +0.056 C 
BRANCH  27  35
ATOM     28  C   UNL     1      -3.179   4.190  -5.244  0.00  0.00    +0.044 C 
ATOM     29  C   UNL     1      -3.447   2.713  -5.381  0.00  0.00    -0.050 A 
ATOM     30  C   UNL     1      -4.600   2.169  -4.832  0.00  0.00    +0.005 A 
ATOM     31  C   UNL     1      -4.864   0.822  -4.946  0.00  0.00    +0.026 A 
ATOM     32  C   UNL     1      -3.968  -0.004  -5.616  0.00  0.00    +0.047 A 
ATOM     33  N   UNL     1      -3.945  -1.353  -5.892  0.00  0.00    -0.360 N 
ATOM     34  C   UNL     1      -2.813  -1.664  -6.596  0.00  0.00    +0.087 A 
ATOM     35  C   UNL     1      -2.080  -0.558  -6.796  0.00  0.00    -0.021 A 
ATOM     36  C   UNL     1      -2.800   0.553  -6.171  0.00  0.00    +0.003 A 
ATOM     37  C   UNL     1      -2.556   1.922  -6.048  0.00  0.00    +0.013 A 
ATOM     38  H   UNL     1      -4.629  -1.987  -5.627  0.00  0.00    +0.165 HD
ENDBRANCH  27  35
ENDBRANCH  26  27
ENDBRANCH  22  26
ENDBRANCH   1  23
TORSDOF 5
