REMARK  Name = ZINC35564776
REMARK  6 active torsions:
REMARK  status: ('A' for Active; 'I' for Inactive)
REMARK    1  A    between atoms: C_4  and  N_35
REMARK    2  A    between atoms: C_5  and  C_7
REMARK    3  A    between atoms: C_7  and  N_8
REMARK    4  A    between atoms: C_20  and  C_22
REMARK    5  A    between atoms: C_22  and  N_23
REMARK    6  A    between atoms: N_26  and  C_29
REMARK                            x       y       z     vdW  Elec       q    Type
REMARK                         _______ _______ _______ _____ _____    ______ ____
ROOT
ATOM      1  N   UNL     1       0.655  -2.214   2.795  0.00  0.00    +0.384 N 
ATOM      2  C   UNL     1       0.515  -3.675   2.847  0.00  0.00    -0.059 C 
ATOM      3  C   UNL     1       1.732  -4.327   2.182  0.00  0.00    +0.089 C 
ATOM      4  N   UNL     1       2.949  -3.811   2.827  0.00  0.00    -0.305 N 
ATOM      5  C   UNL     1       3.095  -2.353   2.964  0.00  0.00    +0.089 C 
ATOM      6  C   UNL     1       1.815  -1.794   3.592  0.00  0.00    -0.059 C 
ATOM      7  C   UNL     1       3.918  -4.662   3.286  0.00  0.00    +0.198 A 
ATOM      8  N   UNL     1       3.706  -6.005   3.236  0.00  0.00    -0.295 N 
ATOM      9  H   UNL     1       2.875  -6.353   2.878  0.00  0.00    +0.172 HD
ATOM     10  C   UNL     1       4.657  -6.850   3.687  0.00  0.00    +0.253 A 
ATOM     11  O   UNL     1       4.484  -8.058   3.649  0.00  0.00    -0.268 OA
ATOM     12  C   UNL     1       5.851  -6.313   4.200  0.00  0.00    +0.094 A 
ATOM     13  C   UNL     1       6.008  -4.958   4.225  0.00  0.00    +0.064 A 
ATOM     14  N   UNL     1       5.042  -4.166   3.764  0.00  0.00    -0.219 NA
ATOM     15  H   UNL     1       0.785  -1.925   1.837  0.00  0.00    -0.081 HD
ENDROOT
BRANCH   1  16
ATOM     16  C   UNL     1      -0.560  -1.588   3.333  0.00  0.00    -0.041 C 
BRANCH  16  21
ATOM     17  C   UNL     1      -3.738  -3.113   1.983  0.00  0.00    +0.000 A 
ATOM     18  C   UNL     1      -3.864  -2.462   0.770  0.00  0.00    +0.002 A 
ATOM     19  C   UNL     1      -2.920  -1.527   0.387  0.00  0.00    +0.033 A 
ATOM     20  C   UNL     1      -1.851  -1.244   1.216  0.00  0.00    +0.128 A 
ATOM     21  C   UNL     1      -1.726  -1.895   2.429  0.00  0.00    -0.034 A 
ATOM     22  C   UNL     1      -2.669  -2.831   2.812  0.00  0.00    +0.004 A 
BRANCH  20  23
ATOM     23  N   UNL     1      -0.839  -0.245   0.805  0.00  0.00    +0.057 N 
ATOM     24  O   UNL     1      -0.895   0.255  -0.294  0.00  0.00    -0.126 OA
ATOM     25  O   UNL     1       0.043   0.072   1.569  0.00  0.00    -0.126 OA
ENDBRANCH  20  23
ENDBRANCH  16  21
ENDBRANCH   1  16
BRANCH  13  26
ATOM     26  C   UNL     1       7.278  -4.357   4.769  0.00  0.00    +0.140 C 
BRANCH  26  27
ATOM     27  N   UNL     1       7.993  -3.663   3.690  0.00  0.00    -0.300 NA
ATOM     28  C   UNL     1       8.470  -4.615   2.677  0.00  0.00    +0.066 C 
ATOM     29  C   UNL     1       9.155  -3.848   1.544  0.00  0.00    -0.063 C 
ATOM     30  N   UNL     1      10.283  -3.078   2.086  0.00  0.00    +0.383 N 
ATOM     31  C   UNL     1       9.788  -2.115   3.078  0.00  0.00    -0.063 C 
ATOM     32  C   UNL     1       9.107  -2.867   4.224  0.00  0.00    +0.066 C 
ATOM     33  H   UNL     1      10.939  -3.706   2.525  0.00  0.00    -0.081 HD
BRANCH  30  34
ATOM     34  C   UNL     1      10.952  -2.357   0.995  0.00  0.00    -0.068 C 
ATOM     35  C   UNL     1      11.469  -3.360  -0.038  0.00  0.00    -0.015 C 
ATOM     36  C   UNL     1      12.165  -2.608  -1.175  0.00  0.00    -0.002 C 
ATOM     37  C   UNL     1      13.340  -1.806  -0.611  0.00  0.00    -0.000 C 
ATOM     38  C   UNL     1      12.823  -0.803   0.423  0.00  0.00    -0.002 C 
ATOM     39  C   UNL     1      12.126  -1.554   1.559  0.00  0.00    -0.015 C 
ENDBRANCH  30  34
ENDBRANCH  26  27
ENDBRANCH  13  26
TORSDOF 6
