REMARK  Name = ZINC41584863
REMARK  8 active torsions:
REMARK  status: ('A' for Active; 'I' for Inactive)
REMARK    1  A    between atoms: C_1  and  C_2
REMARK    2  A    between atoms: C_4  and  O_35
REMARK    3  A    between atoms: C_5  and  C_21
REMARK    4  A    between atoms: C_11  and  C_12
REMARK    5  A    between atoms: C_13  and  C_14
REMARK    6  A    between atoms: C_21  and  N_22
REMARK    7  A    between atoms: N_25  and  C_28
REMARK    8  A    between atoms: C_28  and  C_29
REMARK                            x       y       z     vdW  Elec       q    Type
REMARK                         _______ _______ _______ _____ _____    ______ ____
ROOT
ATOM      1  C   UNL     1      -0.018   1.503   0.010  0.00  0.00    +0.045 C 
ATOM      2  C   UNL     1       0.002  -0.004   0.002  0.00  0.00    -0.033 A 
ATOM      3  C   UNL     1       0.006  -0.682  -1.185  0.00  0.00    +0.050 A 
ATOM      4  C   UNL     1       0.025  -2.074  -1.195  0.00  0.00    +0.122 A 
ATOM      5  C   UNL     1       0.040  -2.787  -0.007  0.00  0.00    +0.020 A 
ATOM      6  C   UNL     1       0.037  -2.114   1.208  0.00  0.00    +0.145 A 
ATOM      7  C   UNL     1       0.023  -0.709   1.206  0.00  0.00    +0.071 A 
ATOM      8  C   UNL     1       0.030  -0.292   2.619  0.00  0.00    +0.232 C 
ATOM      9  O   UNL     1       0.018   0.845   3.062  0.00  0.00    -0.283 OA
ATOM     10  C   UNL     1       0.054  -1.550   3.375  0.00  0.00    +0.176 C 
ATOM     11  C   UNL     1       0.068  -1.673   4.734  0.00  0.00    +0.050 C 
ATOM     12  O   UNL     1       0.049  -2.565   2.481  0.00  0.00    -0.451 OA
ENDROOT
BRANCH  11  13
ATOM     13  C   UNL     1       0.091  -2.951   5.325  0.00  0.00    +0.004 C 
ATOM     14  C   UNL     1       0.104  -3.073   6.674  0.00  0.00    +0.008 C 
BRANCH  14  15
ATOM     15  C   UNL     1       0.129  -4.407   7.291  0.00  0.00    -0.025 A 
ATOM     16  C   UNL     1       0.144  -5.553   6.488  0.00  0.00    +0.008 A 
ATOM     17  C   UNL     1       0.167  -6.801   7.075  0.00  0.00    +0.001 A 
ATOM     18  C   UNL     1       0.175  -6.921   8.454  0.00  0.00    +0.000 A 
ATOM     19  C   UNL     1       0.159  -5.793   9.255  0.00  0.00    +0.001 A 
ATOM     20  C   UNL     1       0.142  -4.538   8.685  0.00  0.00    +0.008 A 
ENDBRANCH  14  15
ENDBRANCH  11  13
BRANCH   4  21
ATOM     21  O   UNL     1       0.028  -2.738  -2.378  0.00  0.00    -0.506 OA
ATOM     22  H   UNL     1       0.912  -2.918  -2.726  0.00  0.00    +0.292 HD
ENDBRANCH   4  21
BRANCH   5  23
ATOM     23  C   UNL     1       0.059  -4.294  -0.033  0.00  0.00    -0.035 C 
BRANCH  23  24
ATOM     24  N   UNL     1       1.450  -4.766  -0.048  0.00  0.00    +0.384 N 
ATOM     25  C   UNL     1       2.096  -4.345  -1.299  0.00  0.00    -0.063 C 
ATOM     26  C   UNL     1       3.550  -4.820  -1.308  0.00  0.00    +0.066 C 
ATOM     27  N   UNL     1       3.585  -6.284  -1.186  0.00  0.00    -0.302 NA
ATOM     28  C   UNL     1       2.921  -6.722   0.050  0.00  0.00    +0.066 C 
ATOM     29  C   UNL     1       1.471  -6.231   0.047  0.00  0.00    -0.063 C 
ATOM     30  H   UNL     1       1.948  -4.370   0.736  0.00  0.00    -0.081 HD
BRANCH  27  31
ATOM     31  C   UNL     1       4.965  -6.785  -1.247  0.00  0.00    +0.119 C 
BRANCH  31  32
ATOM     32  C   UNL     1       4.950  -8.287  -1.367  0.00  0.00    -0.033 A 
ATOM     33  C   UNL     1       4.955  -9.071  -0.229  0.00  0.00    +0.005 A 
ATOM     34  C   UNL     1       4.941 -10.449  -0.338  0.00  0.00    +0.000 A 
ATOM     35  C   UNL     1       4.921 -11.043  -1.587  0.00  0.00    +0.000 A 
ATOM     36  C   UNL     1       4.915 -10.258  -2.725  0.00  0.00    +0.000 A 
ATOM     37  C   UNL     1       4.925  -8.881  -2.615  0.00  0.00    +0.005 A 
ENDBRANCH  31  32
ENDBRANCH  27  31
ENDBRANCH  23  24
ENDBRANCH   5  23
TORSDOF 7
