REMARK  Name = ZINC36448968
REMARK  4 active torsions:
REMARK  status: ('A' for Active; 'I' for Inactive)
REMARK    1  A    between atoms: C_1  and  C_2
REMARK    2  A    between atoms: C_2  and  C_3
REMARK    3  A    between atoms: C_9  and  O_16
REMARK    4  A    between atoms: C_11  and  O_15
REMARK                            x       y       z     vdW  Elec       q    Type
REMARK                         _______ _______ _______ _____ _____    ______ ____
ROOT
ATOM      1  C   UNL     1       0.742  -0.511   1.242  0.00  0.00    +0.015 C 
ATOM      2  C   UNL     1       0.659  -2.039   1.298  0.00  0.00    +0.011 C 
ATOM      3  C   UNL     1       1.468  -2.539   2.499  0.00  0.00    +0.065 C 
ATOM      4  C   UNL     1       2.909  -2.040   2.377  0.00  0.00    +0.172 C 
ATOM      5  C   UNL     1       3.544  -2.624   1.112  0.00  0.00    +0.099 C 
ATOM      6  C   UNL     1       5.006  -2.175   1.028  0.00  0.00    +0.150 C 
ATOM      7  C   UNL     1       5.737  -2.612   2.302  0.00  0.00    +0.169 C 
ATOM      8  C   UNL     1       5.018  -2.026   3.520  0.00  0.00    +0.197 C 
ATOM      9  O   UNL     1       3.656  -2.458   3.521  0.00  0.00    -0.346 OA
ATOM     10  O   UNL     1       2.914  -0.614   2.297  0.00  0.00    -0.348 OA
ATOM     11  C   UNL     1       2.212  -0.089   1.168  0.00  0.00    +0.166 C 
ENDROOT
BRANCH   1  13
ATOM     12  C   UNL     1      -0.019   1.526   0.010  0.00  0.00    +0.004 C 
ATOM     13  C   UNL     1       0.002  -0.004   0.002  0.00  0.00    +0.002 C 
ENDBRANCH   1  13
BRANCH   7  14
ATOM     14  O   UNL     1       5.737  -4.038   2.386  0.00  0.00    -0.387 OA
ATOM     15  H   UNL     1       6.184  -4.386   3.170  0.00  0.00    +0.210 HD
ENDBRANCH   7  14
BRANCH   6  16
ATOM     16  O   UNL     1       5.626  -2.774  -0.111  0.00  0.00    -0.389 OA
ATOM     17  H   UNL     1       6.555  -2.532  -0.226  0.00  0.00    +0.210 HD
ENDBRANCH   6  16
TORSDOF 3
