REMARK  Name = ZINC02286063
REMARK  10 active torsions:
REMARK  status: ('A' for Active; 'I' for Inactive)
REMARK    1  A    between atoms: C_4  and  C_7
REMARK    2  A    between atoms: C_8  and  C_22
REMARK    3  A    between atoms: C_9  and  O_21
REMARK    4  A    between atoms: N_10  and  C_12
REMARK    5  A    between atoms: C_15  and  N_18
REMARK    6  A    between atoms: N_23  and  C_24
REMARK    7  A    between atoms: C_24  and  C_25
REMARK    8  A    between atoms: C_25  and  C_26
REMARK    9  A    between atoms: C_26  and  C_27
REMARK   10  A    between atoms: C_26  and  C_33
REMARK                            x       y       z     vdW  Elec       q    Type
REMARK                         _______ _______ _______ _____ _____    ______ ____
ROOT
ATOM      1  C   UNL     1       3.502   0.035   3.156  0.00  0.00    +0.105 A 
ATOM      2  C   UNL     1       3.809  -1.390   3.326  0.00  0.00    +0.080 A 
ATOM      3  C   UNL     1       5.191  -1.503   3.249  0.00  0.00    +0.225 A 
ATOM      4  N   UNL     1       5.691  -0.265   3.050  0.00  0.00    -0.199 N 
ATOM      5  N   UNL     1       4.646   0.660   2.991  0.00  0.00    -0.163 NA
ENDROOT
BRANCH   1   9
ATOM      6  C   UNL     1      -0.362   1.806   3.178  0.00  0.00    +0.000 A 
ATOM      7  C   UNL     1       0.715   2.496   3.705  0.00  0.00    +0.001 A 
ATOM      8  C   UNL     1       1.972   1.926   3.701  0.00  0.00    +0.010 A 
ATOM      9  C   UNL     1       2.155   0.652   3.164  0.00  0.00    +0.003 A 
ATOM     10  C   UNL     1       1.066  -0.038   2.635  0.00  0.00    +0.010 A 
ATOM     11  C   UNL     1      -0.186   0.542   2.644  0.00  0.00    +0.001 A 
ENDBRANCH   1   9
BRANCH   4  12
ATOM     12  C   UNL     1       7.051   0.044   2.918  0.00  0.00    +0.069 A 
ATOM     13  C   UNL     1       8.000  -0.667   3.643  0.00  0.00    +0.030 A 
ATOM     14  C   UNL     1       9.340  -0.360   3.511  0.00  0.00    +0.035 A 
ATOM     15  C   UNL     1       9.738   0.654   2.659  0.00  0.00    +0.126 A 
ATOM     16  C   UNL     1       8.796   1.364   1.936  0.00  0.00    +0.035 A 
ATOM     17  C   UNL     1       7.455   1.058   2.059  0.00  0.00    +0.030 A 
BRANCH  15  18
ATOM     18  N   UNL     1      11.175   0.981   2.520  0.00  0.00    +0.056 N 
ATOM     19  O   UNL     1      11.999   0.362   3.152  0.00  0.00    -0.126 OA
ATOM     20  O   UNL     1      11.524   1.867   1.776  0.00  0.00    -0.126 OA
ENDBRANCH  15  18
ENDBRANCH   4  12
BRANCH   2  21
ATOM     21  C   UNL     1       2.847  -2.478   3.536  0.00  0.00    +0.093 C 
ATOM     22  N   UNL     1       3.267  -3.698   3.671  0.00  0.00    -0.389 N 
ATOM     23  H   UNL     1       4.217  -3.891   3.632  0.00  0.00    +0.159 HD
BRANCH  22  24
ATOM     24  C   UNL     1       2.307  -4.785   3.880  0.00  0.00    +0.113 C 
BRANCH  24  25
ATOM     25  C   UNL     1       2.345  -5.737   2.683  0.00  0.00    +0.033 C 
BRANCH  25  26
ATOM     26  C   UNL     1       1.342  -6.871   2.902  0.00  0.00    +0.051 C 
BRANCH  26  27
ATOM     27  C   UNL     1      -0.056  -6.309   2.921  0.00  0.00    -0.040 A 
ATOM     28  C   UNL     1      -0.901  -6.594   3.977  0.00  0.00    +0.004 A 
ATOM     29  C   UNL     1      -2.184  -6.078   3.995  0.00  0.00    +0.000 A 
ATOM     30  C   UNL     1      -2.621  -5.278   2.956  0.00  0.00    +0.000 A 
ATOM     31  C   UNL     1      -1.776  -4.993   1.900  0.00  0.00    +0.000 A 
ATOM     32  C   UNL     1      -0.492  -5.505   1.884  0.00  0.00    +0.004 A 
ENDBRANCH  26  27
BRANCH  26  33
ATOM     33  C   UNL     1       1.465  -7.873   1.783  0.00  0.00    -0.040 A 
ATOM     34  C   UNL     1       1.415  -7.451   0.468  0.00  0.00    +0.004 A 
ATOM     35  C   UNL     1       1.528  -8.370  -0.558  0.00  0.00    +0.000 A 
ATOM     36  C   UNL     1       1.692  -9.712  -0.269  0.00  0.00    +0.000 A 
ATOM     37  C   UNL     1       1.744 -10.134   1.046  0.00  0.00    +0.000 A 
ATOM     38  C   UNL     1       1.635  -9.215   2.072  0.00  0.00    +0.004 A 
ENDBRANCH  26  33
ENDBRANCH  25  26
ENDBRANCH  24  25
ENDBRANCH  22  24
ENDBRANCH   2  21
BRANCH   3  39
ATOM     39  O   UNL     1       5.906  -2.647   3.354  0.00  0.00    -0.492 OA
ATOM     40  H   UNL     1       6.056  -3.097   2.511  0.00  0.00    +0.294 HD
ENDBRANCH   3  39
TORSDOF 10
