REMARK  Name = ZINC40341576
REMARK  15 active torsions:
REMARK  status: ('A' for Active; 'I' for Inactive)
REMARK    1  A    between atoms: C_1  and  C_2
REMARK    2  A    between atoms: C_2  and  C_3
REMARK    3  A    between atoms: C_3  and  C_4
REMARK    4  A    between atoms: C_4  and  O_5
REMARK    5  A    between atoms: O_5  and  C_6
REMARK    6  A    between atoms: C_9  and  C_15
REMARK    7  A    between atoms: C_11  and  O_12
REMARK    8  A    between atoms: O_12  and  C_13
REMARK    9  A    between atoms: C_13  and  C_14
REMARK   10  A    between atoms: C_18  and  C_34
REMARK   11  A    between atoms: N_25  and  C_26
REMARK   12  A    between atoms: C_26  and  C_27
REMARK   13  A    between atoms: C_27  and  C_28
REMARK   14  A    between atoms: C_28  and  N_29
REMARK   15  A    between atoms: C_37  and  C_40
REMARK                            x       y       z     vdW  Elec       q    Type
REMARK                         _______ _______ _______ _____ _____    ______ ____
ROOT
ATOM      1  C   UNL     1      -3.411  -8.156  -0.009  0.00  0.00    +0.141 C 
ATOM      2  C   UNL     1      -3.180  -8.697  -1.393  0.00  0.00    +0.035 A 
ATOM      3  C   UNL     1      -3.557  -8.709  -2.698  0.00  0.00    +0.072 A 
ATOM      4  N   UNL     1      -2.717  -9.574  -3.340  0.00  0.00    -0.276 N 
ATOM      5  N   UNL     1      -1.875 -10.069  -2.504  0.00  0.00    -0.168 NA
ATOM      6  H   UNL     1      -2.751  -9.783  -4.286  0.00  0.00    +0.189 HD
ATOM      7  C   UNL     1      -2.087  -9.587  -1.296  0.00  0.00    +0.153 A 
ATOM      8  C   UNL     1      -1.643  -9.606   0.110  0.00  0.00    +0.268 C 
ATOM      9  O   UNL     1      -0.720 -10.272   0.537  0.00  0.00    -0.268 OA
ATOM     10  N   UNL     1      -2.404  -8.784   0.855  0.00  0.00    -0.285 N 
ENDROOT
BRANCH   3  11
ATOM     11  C   UNL     1      -4.663  -7.937  -3.305  0.00  0.00    +0.000 A 
ATOM     12  C   UNL     1      -5.902  -7.868  -2.668  0.00  0.00    +0.010 A 
ATOM     13  C   UNL     1      -6.930  -7.146  -3.239  0.00  0.00    +0.004 A 
ATOM     14  C   UNL     1      -6.734  -6.491  -4.442  0.00  0.00    -0.050 A 
ATOM     15  C   UNL     1      -5.508  -6.556  -5.080  0.00  0.00    +0.004 A 
ATOM     16  C   UNL     1      -4.470  -7.270  -4.515  0.00  0.00    +0.010 A 
ATOM     17  C   UNL     1      -7.860  -5.704  -5.061  0.00  0.00    +0.044 C 
ENDBRANCH   3  11
BRANCH   1  21
ATOM     18  C   UNL     1      -2.913  -3.909   0.009  0.00  0.00    +0.162 A 
ATOM     19  C   UNL     1      -1.804  -4.739  -0.000  0.00  0.00    +0.050 A 
ATOM     20  C   UNL     1      -1.968  -6.112  -0.006  0.00  0.00    +0.009 A 
ATOM     21  C   UNL     1      -3.238  -6.659  -0.002  0.00  0.00    -0.019 A 
ATOM     22  C   UNL     1      -4.348  -5.836   0.006  0.00  0.00    +0.055 A 
ATOM     23  C   UNL     1      -4.191  -4.460   0.018  0.00  0.00    +0.162 A 
BRANCH  18  24
ATOM     24  O   UNL     1      -2.753  -2.558   0.015  0.00  0.00    -0.488 OA
BRANCH  24  25
ATOM     25  C   UNL     1      -1.413  -2.063   0.004  0.00  0.00    +0.229 C 
BRANCH  25  26
ATOM     26  C   UNL     1      -1.433  -0.534   0.013  0.00  0.00    +0.041 C 
BRANCH  26  28
ATOM     27  C   UNL     1      -0.019   1.526   0.010  0.00  0.00    +0.004 C 
ATOM     28  C   UNL     1       0.002  -0.004   0.002  0.00  0.00    -0.000 C 
ENDBRANCH  26  28
ENDBRANCH  25  26
ENDBRANCH  24  25
ENDBRANCH  18  24
BRANCH  23  29
ATOM     29  O   UNL     1      -5.282  -3.649   0.033  0.00  0.00    -0.489 OA
BRANCH  29  30
ATOM     30  C   UNL     1      -6.562  -4.284   0.042  0.00  0.00    +0.226 C 
ATOM     31  C   UNL     1      -7.660  -3.219   0.058  0.00  0.00    +0.048 C 
ENDBRANCH  29  30
ENDBRANCH  23  29
ENDBRANCH   1  21
BRANCH  10  32
ATOM     32  C   UNL     1      -2.251  -8.551   2.293  0.00  0.00    +0.111 C 
BRANCH  32  33
ATOM     33  C   UNL     1      -3.108  -9.556   3.066  0.00  0.00    +0.040 C 
BRANCH  33  34
ATOM     34  C   UNL     1      -2.949  -9.313   4.568  0.00  0.00    +0.124 C 
BRANCH  34  35
ATOM     35  N   UNL     1      -3.769 -10.275   5.308  0.00  0.00    -0.338 N 
ATOM     36  C   UNL     1      -5.073 -10.107   5.689  0.00  0.00    +0.104 A 
ATOM     37  C   UNL     1      -5.436 -11.228   6.341  0.00  0.00    +0.101 A 
ATOM     38  N   UNL     1      -4.382 -12.058   6.358  0.00  0.00    -0.352 N 
ATOM     39  C   UNL     1      -3.382 -11.495   5.736  0.00  0.00    +0.173 A 
ATOM     40  H   UNL     1      -4.367 -12.938   6.764  0.00  0.00    +0.166 HD
ENDBRANCH  34  35
ENDBRANCH  33  34
ENDBRANCH  32  33
ENDBRANCH  10  32
TORSDOF 12
