REMARK  Name = ZINC38958851
REMARK  5 active torsions:
REMARK  status: ('A' for Active; 'I' for Inactive)
REMARK    1  A    between atoms: C_1  and  C_2
REMARK    2  A    between atoms: C_6  and  N_8
REMARK    3  A    between atoms: C_9  and  O_33
REMARK    4  A    between atoms: C_12  and  O_32
REMARK    5  A    between atoms: C_13  and  C_17
REMARK                            x       y       z     vdW  Elec       q    Type
REMARK                         _______ _______ _______ _____ _____    ______ ____
ROOT
ATOM      1  N   UNL     1       0.052  -2.797   2.393  0.00  0.00    -0.225 N 
ATOM      2  C   UNL     1       0.153  -2.052   3.639  0.00  0.00    +0.338 C 
ATOM      3  N   UNL     1      -0.308  -2.828   4.779  0.00  0.00    -0.204 NA
ATOM      4  C   UNL     1      -0.398  -4.101   4.792  0.00  0.00    +0.200 C 
ATOM      5  C   UNL     1      -0.037  -4.955   3.612  0.00  0.00    +0.183 C 
ATOM      6  C   UNL     1      -0.032  -4.133   2.355  0.00  0.00    +0.237 C 
ATOM      7  O   UNL     1      -0.102  -4.693   1.281  0.00  0.00    -0.274 OA
ENDROOT
BRANCH   5   8
ATOM      8  C   UNL     1       1.353  -5.557   3.830  0.00  0.00    +0.122 C 
ATOM      9  C   UNL     1       1.321  -6.491   5.017  0.00  0.00    +0.039 A 
ATOM     10  H   UNL     1      -0.432  -7.592   4.783  0.00  0.00    +0.166 HD
ATOM     11  C   UNL     1       2.287  -6.513   5.963  0.00  0.00    -0.016 A 
ATOM     12  C   UNL     1       1.916  -7.523   6.929  0.00  0.00    +0.003 A 
ATOM     13  C   UNL     1       2.520  -7.983   8.103  0.00  0.00    +0.010 A 
ATOM     14  C   UNL     1       1.869  -8.980   8.787  0.00  0.00    +0.001 A 
ATOM     15  C   UNL     1       0.670  -9.514   8.346  0.00  0.00    +0.002 A 
ATOM     16  C   UNL     1       0.050  -9.079   7.187  0.00  0.00    +0.026 A 
ATOM     17  C   UNL     1       0.687  -8.067   6.472  0.00  0.00    +0.047 A 
ATOM     18  N   UNL     1       0.361  -7.420   5.314  0.00  0.00    -0.356 N 
ATOM     19  C   UNL     1       3.498  -5.616   5.936  0.00  0.00    +0.052 C 
ATOM     20  C   UNL     1       3.620  -5.025   4.525  0.00  0.00    +0.086 C 
ATOM     21  N   UNL     1       2.320  -4.482   4.103  0.00  0.00    -0.307 NA
ATOM     22  H   UNL     1       2.421  -3.874   3.304  0.00  0.00    +0.123 HD
ENDBRANCH   5   8
BRANCH   1  28
ATOM     23  C   UNL     1      -2.484  -0.454  -1.107  0.00  0.00    +0.044 C 
ATOM     24  C   UNL     1      -1.178  -0.942  -0.534  0.00  0.00    -0.049 A 
ATOM     25  C   UNL     1       0.007  -0.689  -1.200  0.00  0.00    +0.003 A 
ATOM     26  C   UNL     1       1.206  -1.134  -0.677  0.00  0.00    +0.002 A 
ATOM     27  C   UNL     1       1.225  -1.834   0.514  0.00  0.00    +0.023 A 
ATOM     28  C   UNL     1       0.037  -2.089   1.186  0.00  0.00    +0.041 A 
ATOM     29  C   UNL     1      -1.166  -1.636   0.660  0.00  0.00    +0.027 A 
ENDBRANCH   1  28
BRANCH   4  30
ATOM     30  O   UNL     1      -0.837  -4.705   5.915  0.00  0.00    -0.495 OA
ATOM     31  H   UNL     1      -1.051  -4.093   6.633  0.00  0.00    +0.293 HD
ENDBRANCH   4  30
BRANCH   2  32
ATOM     32  O   UNL     1       1.518  -1.685   3.851  0.00  0.00    -0.356 OA
ATOM     33  H   UNL     1       1.669  -1.184   4.664  0.00  0.00    +0.214 HD
ENDBRANCH   2  32
TORSDOF 4
