REMARK  Name = ZINC48818800
REMARK  4 active torsions:
REMARK  status: ('A' for Active; 'I' for Inactive)
REMARK    1  A    between atoms: C_3  and  N_17
REMARK    2  A    between atoms: C_6  and  C_7
REMARK    3  A    between atoms: C_7  and  N_8
REMARK    4  A    between atoms: C_9  and  C_11
REMARK                            x       y       z     vdW  Elec       q    Type
REMARK                         _______ _______ _______ _____ _____    ______ ____
ROOT
ATOM      1  C   UNL     1      -0.013   1.376  -0.181  0.00  0.00    +0.007 A 
ATOM      2  C   UNL     1       1.175   2.082  -0.183  0.00  0.00    +0.023 A 
ATOM      3  C   UNL     1       2.379   1.411  -0.019  0.00  0.00    +0.035 A 
ATOM      4  C   UNL     1       2.386   0.033   0.147  0.00  0.00    +0.023 A 
ATOM      5  C   UNL     1       1.196  -0.667   0.148  0.00  0.00    +0.007 A 
ATOM      6  C   UNL     1      -0.002   0.003  -0.016  0.00  0.00    -0.030 A 
ENDROOT
BRANCH   3   7
ATOM      7  N   UNL     1       3.584   2.124  -0.021  0.00  0.00    -0.270 N 
ATOM      8  C   UNL     1       3.628   3.375   0.478  0.00  0.00    +0.301 C 
ATOM      9  O   UNL     1       2.647   3.849   1.017  0.00  0.00    -0.253 OA
ATOM     10  N   UNL     1       4.760   4.100   0.379  0.00  0.00    -0.313 N 
ATOM     11  H   UNL     1       4.387   1.717  -0.382  0.00  0.00    +0.156 HD
ATOM     12  H   UNL     1       5.542   3.722  -0.051  0.00  0.00    +0.146 HD
ATOM     13  H   UNL     1       4.791   5.001   0.739  0.00  0.00    +0.146 HD
ENDBRANCH   3   7
BRANCH   6  14
ATOM     14  C   UNL     1      -1.300  -0.764  -0.014  0.00  0.00    +0.139 C 
BRANCH  14  15
ATOM     15  N   UNL     1      -1.625  -1.176  -1.381  0.00  0.00    -0.307 N 
ATOM     16  C   UNL     1      -2.749  -1.880  -1.623  0.00  0.00    +0.252 C 
ATOM     17  O   UNL     1      -3.493  -2.173  -0.706  0.00  0.00    -0.270 OA
ATOM     18  H   UNL     1      -1.032  -0.943  -2.112  0.00  0.00    +0.149 HD
BRANCH  16  19
ATOM     19  C   UNL     1      -3.075  -2.292  -2.990  0.00  0.00    +0.088 A 
ATOM     20  C   UNL     1      -4.171  -3.008  -3.450  0.00  0.00    +0.037 A 
ATOM     21  C   UNL     1      -4.202  -3.246  -4.805  0.00  0.00    +0.023 A 
ATOM     22  C   UNL     1      -3.191  -2.781  -5.579  0.00  0.00    +0.047 A 
ATOM     23  S   UNL     1      -2.170  -1.999  -4.498  0.00  0.00    -0.091 S 
ATOM     24 BR   UNL     1      -5.534  -3.617  -2.290  0.00  0.00    -0.049 Br
ENDBRANCH  16  19
ENDBRANCH  14  15
ENDBRANCH   6  14
TORSDOF 4
