REMARK  Name = ZINC38490291
REMARK  9 active torsions:
REMARK  status: ('A' for Active; 'I' for Inactive)
REMARK    1  A    between atoms: C_4  and  C_7
REMARK    2  A    between atoms: C_7  and  C_8
REMARK    3  A    between atoms: C_8  and  C_9
REMARK    4  A    between atoms: C_9  and  N_10
REMARK    5  A    between atoms: C_11  and  C_13
REMARK    6  A    between atoms: C_14  and  C_25
REMARK    7  A    between atoms: N_15  and  C_18
REMARK    8  A    between atoms: C_25  and  S_26
REMARK    9  A    between atoms: S_26  and  C_27
REMARK                            x       y       z     vdW  Elec       q    Type
REMARK                         _______ _______ _______ _____ _____    ______ ____
ROOT
ATOM      1  C   UNL     1       7.550  -2.850   4.372  0.00  0.00    +0.171 A 
ATOM      2  C   UNL     1       8.701  -3.488   4.741  0.00  0.00    +0.087 A 
ATOM      3  N   UNL     1       8.725  -3.502   6.091  0.00  0.00    -0.215 N 
ATOM      4  N   UNL     1       7.557  -2.856   6.523  0.00  0.00    -0.060 NA
ATOM      5  N   UNL     1       6.893  -2.482   5.486  0.00  0.00    -0.124 NA
ENDROOT
BRANCH   3   6
ATOM      6  C   UNL     1       9.723  -4.056   6.904  0.00  0.00    +0.067 A 
ATOM      7  C   UNL     1      10.388  -5.207   6.503  0.00  0.00    +0.029 A 
ATOM      8  C   UNL     1      11.372  -5.750   7.305  0.00  0.00    +0.017 A 
ATOM      9  C   UNL     1      11.695  -5.149   8.509  0.00  0.00    +0.018 A 
ATOM     10  C   UNL     1      11.034  -4.002   8.912  0.00  0.00    +0.017 A 
ATOM     11  C   UNL     1      10.053  -3.451   8.110  0.00  0.00    +0.029 A 
ATOM     12 BR   UNL     1      13.042  -5.896   9.606  0.00  0.00    -0.050 Br
ENDBRANCH   3   6
BRANCH   1  14
ATOM     13  N   UNL     1       5.947  -1.955   2.757  0.00  0.00    -0.310 N 
ATOM     14  C   UNL     1       7.106  -2.603   2.988  0.00  0.00    +0.266 C 
ATOM     15  O   UNL     1       7.786  -2.985   2.054  0.00  0.00    -0.268 OA
ATOM     16  H   UNL     1       5.405  -1.651   3.501  0.00  0.00    +0.149 HD
BRANCH  13  17
ATOM     17  C   UNL     1       5.507  -1.710   1.381  0.00  0.00    +0.105 C 
BRANCH  17  18
ATOM     18  C   UNL     1       4.171  -0.963   1.399  0.00  0.00    +0.023 C 
BRANCH  18  19
ATOM     19  C   UNL     1       3.711  -0.707  -0.038  0.00  0.00    +0.036 C 
BRANCH  19  23
ATOM     20  C   UNL     1      -0.017   1.378   0.010  0.00  0.00    +0.000 A 
ATOM     21  C   UNL     1       1.171   2.086   0.002  0.00  0.00    +0.000 A 
ATOM     22  C   UNL     1       2.377   1.411  -0.013  0.00  0.00    +0.003 A 
ATOM     23  C   UNL     1       2.396   0.029  -0.020  0.00  0.00    -0.047 A 
ATOM     24  C   UNL     1       1.208  -0.679  -0.012  0.00  0.00    +0.003 A 
ATOM     25  C   UNL     1       0.002  -0.004   0.002  0.00  0.00    +0.000 A 
ENDBRANCH  19  23
ENDBRANCH  18  19
ENDBRANCH  17  18
ENDBRANCH  13  17
ENDBRANCH   1  14
BRANCH   2  26
ATOM     26  C   UNL     1       9.743  -4.064   3.818  0.00  0.00    +0.135 C 
BRANCH  26  27
ATOM     27  S   UNL     1       9.333  -5.792   3.446  0.00  0.00    -0.080 S 
BRANCH  27  28
ATOM     28  C   UNL     1      10.627  -6.316   2.372  0.00  0.00    +0.189 A 
ATOM     29  N   UNL     1      11.588  -5.461   2.050  0.00  0.00    -0.230 NA
ATOM     30  C   UNL     1      12.574  -5.823   1.247  0.00  0.00    +0.115 A 
ATOM     31  C   UNL     1      12.595  -7.113   0.741  0.00  0.00    +0.039 A 
ATOM     32  C   UNL     1      11.576  -7.982   1.098  0.00  0.00    +0.115 A 
ATOM     33  N   UNL     1      10.621  -7.559   1.910  0.00  0.00    -0.230 NA
ENDBRANCH  27  28
ENDBRANCH  26  27
ENDBRANCH   2  26
TORSDOF 9
