REMARK  Name = ZINC08636830
REMARK  6 active torsions:
REMARK  status: ('A' for Active; 'I' for Inactive)
REMARK    1  A    between atoms: C_4  and  N_7
REMARK    2  A    between atoms: C_9  and  C_17
REMARK    3  A    between atoms: C_10  and  C_12
REMARK    4  A    between atoms: N_18  and  N_19
REMARK    5  A    between atoms: C_20  and  C_22
REMARK    6  A    between atoms: C_22  and  N_23
REMARK                            x       y       z     vdW  Elec       q    Type
REMARK                         _______ _______ _______ _____ _____    ______ ____
ROOT
ATOM      1  N   UNL     1      -3.270  -1.651   0.454  0.00  0.00    -0.206 N 
ATOM      2  C   UNL     1      -2.215  -0.990  -0.062  0.00  0.00    +0.250 C 
ATOM      3  O   UNL     1      -2.245  -0.601  -1.211  0.00  0.00    -0.272 OA
ATOM      4  H   UNL     1      -3.245  -1.962   1.372  0.00  0.00    +0.177 HD
ENDROOT
BRANCH   1   6
ATOM      5  C   UNL     1      -5.418  -2.525   0.161  0.00  0.00    +0.142 C 
ATOM      6  N   UNL     1      -4.402  -1.889  -0.336  0.00  0.00    -0.188 NA
BRANCH   5   9
ATOM      7  N   UNL     1      -8.594  -3.443  -1.339  0.00  0.00    -0.239 N 
ATOM      8  C   UNL     1      -7.749  -3.427  -0.288  0.00  0.00    +0.124 A 
ATOM      9  C   UNL     1      -6.609  -2.775  -0.669  0.00  0.00    +0.041 A 
ATOM     10  C   UNL     1      -6.806  -2.368  -2.065  0.00  0.00    +0.108 A 
ATOM     11  N   UNL     1      -8.000  -2.792  -2.425  0.00  0.00    -0.165 NA
BRANCH   7  15
ATOM     12  C   UNL     1     -12.390  -5.163  -1.350  0.00  0.00    +0.000 A 
ATOM     13  C   UNL     1     -11.909  -4.545  -2.490  0.00  0.00    +0.002 A 
ATOM     14  C   UNL     1     -10.651  -3.974  -2.490  0.00  0.00    +0.028 A 
ATOM     15  C   UNL     1      -9.869  -4.021  -1.343  0.00  0.00    +0.065 A 
ATOM     16  C   UNL     1     -10.353  -4.647  -0.201  0.00  0.00    +0.028 A 
ATOM     17  C   UNL     1     -11.614  -5.210  -0.206  0.00  0.00    +0.002 A 
ENDBRANCH   7  15
BRANCH  10  18
ATOM     18  C   UNL     1      -5.845  -1.627  -2.907  0.00  0.00    +0.040 A 
ATOM     19  C   UNL     1      -5.606  -1.745  -4.251  0.00  0.00    +0.018 A 
ATOM     20  C   UNL     1      -4.650  -0.936  -4.826  0.00  0.00    +0.008 A 
ATOM     21  C   UNL     1      -3.977  -0.051  -4.047  0.00  0.00    +0.046 A 
ATOM     22  S   UNL     1      -4.699  -0.340  -2.441  0.00  0.00    -0.095 S 
ENDBRANCH  10  18
ENDBRANCH   5   9
ENDBRANCH   1   6
BRANCH   2  23
ATOM     23  C   UNL     1      -0.997  -0.734   0.787  0.00  0.00    +0.208 C 
BRANCH  23  24
ATOM     24  N   UNL     1       0.002  -0.004   0.002  0.00  0.00    -0.289 N 
ATOM     25  C   UNL     1      -0.017   1.395   0.010  0.00  0.00    +0.048 A 
ATOM     26  C   UNL     1      -1.223   2.078   0.019  0.00  0.00    +0.024 A 
ATOM     27  C   UNL     1      -1.234   3.462   0.030  0.00  0.00    +0.002 A 
ATOM     28  C   UNL     1      -0.049   4.171   0.022  0.00  0.00    +0.001 A 
ATOM     29  C   UNL     1       1.163   3.499   0.008  0.00  0.00    +0.017 A 
ATOM     30  C   UNL     1       1.179   2.117   0.002  0.00  0.00    +0.034 A 
ATOM     31  S   UNL     1       2.707   1.233  -0.015  0.00  0.00    -0.086 S 
ATOM     32  C   UNL     1       2.264  -0.268  -0.834  0.00  0.00    +0.034 A 
ATOM     33  C   UNL     1       0.948  -0.726  -0.734  0.00  0.00    +0.048 A 
ATOM     34  C   UNL     1       0.588  -1.902  -1.373  0.00  0.00    +0.024 A 
ATOM     35  C   UNL     1       1.528  -2.610  -2.100  0.00  0.00    +0.002 A 
ATOM     36  C   UNL     1       2.829  -2.153  -2.195  0.00  0.00    +0.001 A 
ATOM     37  C   UNL     1       3.200  -0.979  -1.561  0.00  0.00    +0.017 A 
ENDBRANCH  23  24
ENDBRANCH   2  23
TORSDOF 6
