REMARK  Name = ZINC02124402
REMARK  7 active torsions:
REMARK  status: ('A' for Active; 'I' for Inactive)
REMARK    1  A    between atoms: C_1  and  C_2
REMARK    2  A    between atoms: C_2  and  C_3
REMARK    3  A    between atoms: C_3  and  C_4
REMARK    4  A    between atoms: C_4  and  N_5
REMARK    5  A    between atoms: N_16  and  C_21
REMARK    6  A    between atoms: C_25  and  C_28
REMARK    7  A    between atoms: C_26  and  C_27
REMARK                            x       y       z     vdW  Elec       q    Type
REMARK                         _______ _______ _______ _____ _____    ______ ____
ROOT
ATOM      1  N   UNL     1      -0.020   1.094   2.454  0.00  0.00    -0.259 N 
ATOM      2  C   UNL     1       0.969   1.845   2.991  0.00  0.00    +0.266 A 
ATOM      3  O   UNL     1       1.284   2.917   2.510  0.00  0.00    -0.267 OA
ATOM      4  C   UNL     1       1.647   1.310   4.183  0.00  0.00    +0.083 A 
ATOM      5  C   UNL     1       2.669   1.987   4.817  0.00  0.00    +0.027 A 
ATOM      6  C   UNL     1       3.269   1.402   5.958  0.00  0.00    -0.000 A 
ATOM      7  C   UNL     1       4.312   2.067   6.624  0.00  0.00    +0.010 A 
ATOM      8  C   UNL     1       4.886   1.500   7.723  0.00  0.00    +0.001 A 
ATOM      9  C   UNL     1       4.449   0.267   8.193  0.00  0.00    +0.002 A 
ATOM     10  C   UNL     1       3.429  -0.405   7.558  0.00  0.00    +0.027 A 
ATOM     11  C   UNL     1       2.824   0.152   6.432  0.00  0.00    +0.056 A 
ATOM     12  N   UNL     1       1.801  -0.523   5.798  0.00  0.00    -0.293 N 
ATOM     13  C   UNL     1       1.202   0.010   4.695  0.00  0.00    +0.156 A 
ATOM     14  N   UNL     1       0.217  -0.614   4.062  0.00  0.00    -0.174 NA
ATOM     15  C   UNL     1      -0.366  -0.084   2.992  0.00  0.00    +0.353 A 
ATOM     16  O   UNL     1      -1.269  -0.711   2.464  0.00  0.00    -0.244 OA
ENDROOT
BRANCH  12  17
ATOM     17  C   UNL     1       1.378  -1.763   6.288  0.00  0.00    +0.052 A 
ATOM     18  C   UNL     1       0.365  -1.827   7.237  0.00  0.00    +0.026 A 
ATOM     19  C   UNL     1      -0.051  -3.052   7.719  0.00  0.00    +0.002 A 
ATOM     20  C   UNL     1       0.539  -4.215   7.259  0.00  0.00    +0.004 A 
ATOM     21  C   UNL     1       1.548  -4.155   6.315  0.00  0.00    -0.046 A 
ATOM     22  C   UNL     1       1.965  -2.933   5.824  0.00  0.00    -0.024 A 
ATOM     23  C   UNL     1       3.060  -2.869   4.790  0.00  0.00    +0.046 C 
ATOM     24  C   UNL     1       2.190  -5.424   5.817  0.00  0.00    +0.044 C 
ENDBRANCH  12  17
BRANCH   1  25
ATOM     25  C   UNL     1      -0.729   1.579   1.267  0.00  0.00    +0.130 C 
BRANCH  25  26
ATOM     26  C   UNL     1      -0.013   1.086   0.008  0.00  0.00    +0.022 C 
BRANCH  26  28
ATOM     27  C   UNL     1      -0.037   1.099  -2.490  0.00  0.00    +0.004 C 
ATOM     28  C   UNL     1      -0.753   1.593  -1.232  0.00  0.00    -0.002 C 
ENDBRANCH  26  28
ENDBRANCH  25  26
ENDBRANCH   1  25
TORSDOF 4
