REMARK  Name = ZINC39708903
REMARK  7 active torsions:
REMARK  status: ('A' for Active; 'I' for Inactive)
REMARK    1  A    between atoms: C_7  and  N_22
REMARK    2  A    between atoms: C_9  and  C_12
REMARK    3  A    between atoms: N_14  and  C_15
REMARK    4  A    between atoms: C_23  and  C_25
REMARK    5  A    between atoms: N_27  and  C_28
REMARK    6  A    between atoms: C_28  and  C_29
REMARK    7  A    between atoms: C_29  and  C_30
REMARK                            x       y       z     vdW  Elec       q    Type
REMARK                         _______ _______ _______ _____ _____    ______ ____
ROOT
ATOM      1  C   UNL     1      -0.024   1.362   0.034  0.00  0.00    +0.001 A 
ATOM      2  C   UNL     1       1.164   2.070   0.021  0.00  0.00    +0.004 A 
ATOM      3  C   UNL     1       2.372   1.405   0.002  0.00  0.00    +0.046 A 
ATOM      4  C   UNL     1       2.406   0.012  -0.006  0.00  0.00    +0.127 A 
ATOM      5  C   UNL     1       1.206  -0.688  -0.000  0.00  0.00    +0.019 A 
ATOM      6  C   UNL     1       0.001  -0.021   0.024  0.00  0.00    +0.009 A 
ATOM      7  C   UNL     1       1.553  -2.164  -0.036  0.00  0.00    +0.157 C 
ATOM      8  C   UNL     1       3.041  -2.133  -0.459  0.00  0.00    +0.283 C 
ATOM      9  O   UNL     1       3.471  -0.835  -0.013  0.00  0.00    -0.477 OA
ENDROOT
BRANCH   8  10
ATOM     10  C   UNL     1       3.174  -2.259  -1.954  0.00  0.00    +0.260 C 
ATOM     11  O   UNL     1       3.626  -1.339  -2.603  0.00  0.00    -0.271 OA
ATOM     12  N   UNL     1       2.791  -3.394  -2.571  0.00  0.00    -0.282 N 
ATOM     13  H   UNL     1       2.493  -4.154  -2.047  0.00  0.00    +0.155 HD
BRANCH  12  14
ATOM     14  C   UNL     1       2.823  -3.477  -3.968  0.00  0.00    +0.036 A 
ATOM     15  C   UNL     1       1.851  -4.202  -4.645  0.00  0.00    +0.023 A 
ATOM     16  C   UNL     1       1.884  -4.282  -6.023  0.00  0.00    +0.005 A 
ATOM     17  C   UNL     1       2.884  -3.642  -6.731  0.00  0.00    +0.038 A 
ATOM     18  C   UNL     1       3.856  -2.918  -6.060  0.00  0.00    +0.125 A 
ATOM     19  C   UNL     1       3.824  -2.830  -4.680  0.00  0.00    +0.061 A 
ATOM     20  F   UNL     1       4.832  -2.293  -6.754  0.00  0.00    -0.205 F 
ENDBRANCH  12  14
ENDBRANCH   8  10
BRANCH   7  21
ATOM     21  N   UNL     1       1.397  -2.770   1.288  0.00  0.00    -0.297 N 
ATOM     22  C   UNL     1       0.195  -3.240   1.677  0.00  0.00    +0.300 C 
ATOM     23  O   UNL     1      -0.758  -3.161   0.929  0.00  0.00    -0.265 OA
ATOM     24  H   UNL     1       2.159  -2.834   1.886  0.00  0.00    +0.150 HD
BRANCH  22  25
ATOM     25  C   UNL     1       0.035  -3.859   3.028  0.00  0.00    +0.299 C 
ATOM     26  O   UNL     1       0.988  -3.938   3.775  0.00  0.00    -0.265 OA
ATOM     27  N   UNL     1      -1.167  -4.329   3.416  0.00  0.00    -0.307 N 
ATOM     28  H   UNL     1      -1.928  -4.266   2.819  0.00  0.00    +0.149 HD
BRANCH  27  29
ATOM     29  C   UNL     1      -1.323  -4.936   4.740  0.00  0.00    +0.109 C 
BRANCH  29  30
ATOM     30  C   UNL     1      -2.774  -5.383   4.929  0.00  0.00    +0.056 C 
BRANCH  30  31
ATOM     31  C   UNL     1      -2.935  -6.007   6.291  0.00  0.00    -0.021 A 
ATOM     32  C   UNL     1      -3.193  -5.300   7.548  0.00  0.00    +0.003 A 
ATOM     33  C   UNL     1      -3.363  -3.957   7.889  0.00  0.00    +0.010 A 
ATOM     34  C   UNL     1      -3.599  -3.612   9.190  0.00  0.00    +0.001 A 
ATOM     35  C   UNL     1      -3.669  -4.587  10.176  0.00  0.00    +0.002 A 
ATOM     36  C   UNL     1      -3.505  -5.918   9.861  0.00  0.00    +0.026 A 
ATOM     37  C   UNL     1      -3.265  -6.292   8.543  0.00  0.00    +0.047 A 
ATOM     38  N   UNL     1      -3.062  -7.505   7.924  0.00  0.00    -0.360 N 
ATOM     39  C   UNL     1      -2.873  -7.316   6.582  0.00  0.00    +0.087 A 
ATOM     40  H   UNL     1      -3.059  -8.365   8.371  0.00  0.00    +0.165 HD
ENDBRANCH  30  31
ENDBRANCH  29  30
ENDBRANCH  27  29
ENDBRANCH  22  25
ENDBRANCH   7  21
TORSDOF 7
