REMARK  Name = ZINC35130519
REMARK  14 active torsions:
REMARK  status: ('A' for Active; 'I' for Inactive)
REMARK    1  A    between atoms: C_1  and  C_2
REMARK    2  A    between atoms: C_2  and  N_3
REMARK    3  A    between atoms: N_3  and  C_4
REMARK    4  A    between atoms: C_4  and  C_5
REMARK    5  A    between atoms: N_7  and  C_8
REMARK    6  A    between atoms: C_10  and  C_20
REMARK    7  A    between atoms: N_12  and  C_13
REMARK    8  A    between atoms: C_18  and  C_19
REMARK    9  A    between atoms: C_20  and  C_21
REMARK   10  A    between atoms: C_20  and  C_22
REMARK   11  A    between atoms: C_20  and  C_23
REMARK   12  A    between atoms: N_26  and  C_27
REMARK   13  A    between atoms: C_31  and  C_34
REMARK   14  A    between atoms: C_32  and  C_33
REMARK                            x       y       z     vdW  Elec       q    Type
REMARK                         _______ _______ _______ _____ _____    ______ ____
ROOT
ATOM      1  C   UNL     1      -1.202  -2.033  -1.908  0.00  0.00    +0.236 C 
ATOM      2  O   UNL     1      -0.755  -2.793  -1.075  0.00  0.00    -0.274 OA
ATOM      3  N   UNL     1      -1.800  -2.520  -3.013  0.00  0.00    -0.269 N 
ATOM      4  H   UNL     1      -2.157  -1.912  -3.679  0.00  0.00    +0.156 HD
ENDROOT
BRANCH   3   5
ATOM      5  C   UNL     1      -1.907  -3.898  -3.198  0.00  0.00    +0.129 A 
ATOM      6  C   UNL     1      -1.358  -4.861  -2.408  0.00  0.00    +0.069 A 
ATOM      7  C   UNL     1      -1.705  -6.104  -2.945  0.00  0.00    +0.071 A 
ATOM      8  N   UNL     1      -2.434  -5.907  -4.014  0.00  0.00    -0.169 NA
ATOM      9  N   UNL     1      -2.584  -4.526  -4.197  0.00  0.00    -0.218 N 
BRANCH   9  10
ATOM     10  C   UNL     1      -3.301  -3.903  -5.228  0.00  0.00    +0.070 A 
ATOM     11  C   UNL     1      -4.202  -2.887  -4.933  0.00  0.00    +0.028 A 
ATOM     12  C   UNL     1      -4.906  -2.275  -5.951  0.00  0.00    +0.002 A 
ATOM     13  C   UNL     1      -4.717  -2.673  -7.262  0.00  0.00    +0.000 A 
ATOM     14  C   UNL     1      -3.822  -3.684  -7.558  0.00  0.00    +0.005 A 
ATOM     15  C   UNL     1      -3.109  -4.296  -6.545  0.00  0.00    -0.025 A 
ATOM     16  C   UNL     1      -2.129  -5.394  -6.869  0.00  0.00    +0.046 C 
ENDBRANCH   9  10
BRANCH   7  17
ATOM     17  C   UNL     1      -1.308  -7.447  -2.386  0.00  0.00    +0.006 C 
ATOM     18  C   UNL     1      -2.140  -7.747  -1.138  0.00  0.00    +0.017 C 
ATOM     19  C   UNL     1      -1.555  -8.530  -3.437  0.00  0.00    +0.017 C 
ATOM     20  C   UNL     1       0.177  -7.425  -2.016  0.00  0.00    +0.017 C 
ENDBRANCH   7  17
ENDBRANCH   3   5
BRANCH   1  21
ATOM     21  C   UNL     1      -1.086  -0.543  -1.708  0.00  0.00    +0.205 C 
BRANCH  21  22
ATOM     22  N   UNL     1      -0.401  -0.272  -0.442  0.00  0.00    -0.277 N 
ATOM     23  C   UNL     1      -1.113  -0.142   0.695  0.00  0.00    +0.307 C 
ATOM     24  O   UNL     1      -2.324  -0.250   0.670  0.00  0.00    -0.252 OA
ATOM     25  N   UNL     1      -0.483   0.107   1.860  0.00  0.00    -0.269 N 
ATOM     26  H   UNL     1       0.486   0.115   1.895  0.00  0.00    +0.156 HD
BRANCH  25  27
ATOM     27  C   UNL     1      -1.227   0.355   3.019  0.00  0.00    +0.038 A 
ATOM     28  C   UNL     1      -2.542   0.791   2.922  0.00  0.00    +0.023 A 
ATOM     29  C   UNL     1      -3.273   1.035   4.068  0.00  0.00    +0.002 A 
ATOM     30  C   UNL     1      -2.698   0.844   5.311  0.00  0.00    +0.004 A 
ATOM     31  C   UNL     1      -1.389   0.409   5.411  0.00  0.00    -0.046 A 
ATOM     32  C   UNL     1      -0.654   0.159   4.269  0.00  0.00    -0.026 A 
ATOM     33  C   UNL     1       0.770  -0.321   4.379  0.00  0.00    +0.046 C 
ATOM     34  C   UNL     1      -0.766   0.204   6.768  0.00  0.00    +0.044 C 
ENDBRANCH  25  27
BRANCH  22  36
ATOM     35  C   UNL     1       1.444   1.320  -0.638  0.00  0.00    +0.024 C 
ATOM     36  C   UNL     1       1.058  -0.142  -0.411  0.00  0.00    +0.106 C 
ENDBRANCH  22  36
ENDBRANCH  21  22
ENDBRANCH   1  21
TORSDOF 7
