REMARK  Name = ZINC66908716
REMARK  9 active torsions:
REMARK  status: ('A' for Active; 'I' for Inactive)
REMARK    1  A    between atoms: C_1  and  C_2
REMARK    2  A    between atoms: C_2  and  N_3
REMARK    3  A    between atoms: C_4  and  C_6
REMARK    4  A    between atoms: C_6  and  C_8
REMARK    5  A    between atoms: C_6  and  N_9
REMARK    6  A    between atoms: N_12  and  C_13
REMARK    7  A    between atoms: C_13  and  C_14
REMARK    8  A    between atoms: C_17  and  C_20
REMARK    9  A    between atoms: C_20  and  N_21
REMARK                            x       y       z     vdW  Elec       q    Type
REMARK                         _______ _______ _______ _____ _____    ______ ____
ROOT
ATOM      1  C   UNL     1       1.777  -7.971  -4.850  0.00  0.00    -0.030 A 
ATOM      2  C   UNL     1       2.970  -8.634  -4.629  0.00  0.00    +0.005 A 
ATOM      3  C   UNL     1       2.969  -9.995  -4.385  0.00  0.00    +0.002 A 
ATOM      4  C   UNL     1       1.775 -10.692  -4.361  0.00  0.00    -0.064 A 
ATOM      5  C   UNL     1       0.582 -10.028  -4.581  0.00  0.00    +0.002 A 
ATOM      6  C   UNL     1       0.583  -8.667  -4.821  0.00  0.00    +0.005 A 
ENDROOT
BRANCH   1   7
ATOM      7  C   UNL     1       1.778  -6.487  -5.117  0.00  0.00    +0.141 C 
BRANCH   7  11
ATOM      8  N   UNL     1       1.552  -3.749  -2.673  0.00  0.00    -0.288 N 
ATOM      9  C   UNL     1       1.652  -4.416  -3.840  0.00  0.00    +0.300 C 
ATOM     10  O   UNL     1       1.725  -3.801  -4.887  0.00  0.00    -0.253 OA
ATOM     11  N   UNL     1       1.670  -5.763  -3.848  0.00  0.00    -0.295 N 
ATOM     12  H   UNL     1       1.493  -4.240  -1.838  0.00  0.00    +0.151 HD
ATOM     13  H   UNL     1       1.611  -6.254  -3.013  0.00  0.00    +0.151 HD
BRANCH   8  14
ATOM     14  C   UNL     1       1.532  -2.285  -2.665  0.00  0.00    +0.157 C 
ATOM     15  C   UNL     1       2.968  -1.755  -2.676  0.00  0.00    +0.038 C 
BRANCH  14  17
ATOM     16  N   UNL     1       0.688  -0.476  -1.203  0.00  0.00    -0.314 N 
ATOM     17  C   UNL     1       0.827  -1.799  -1.425  0.00  0.00    +0.233 C 
ATOM     18  O   UNL     1       0.384  -2.597  -0.627  0.00  0.00    -0.274 OA
ATOM     19  H   UNL     1       1.042   0.162  -1.842  0.00  0.00    +0.149 HD
BRANCH  16  21
ATOM     20  C   UNL     1      -0.019   1.526   0.010  0.00  0.00    +0.024 C 
ATOM     21  C   UNL     1       0.002  -0.004   0.002  0.00  0.00    +0.101 C 
ENDBRANCH  16  21
ENDBRANCH  14  17
ENDBRANCH   8  14
ENDBRANCH   7  11
ENDBRANCH   1   7
BRANCH   4  22
ATOM     22  C   UNL     1       1.774 -12.175  -4.096  0.00  0.00    -0.043 C 
BRANCH  22  23
ATOM     23  N   UNL     1       1.659 -12.414  -2.651  0.00  0.00    +0.382 N 
ATOM     24  C   UNL     1       0.357 -11.923  -2.177  0.00  0.00    -0.078 C 
ATOM     25  C   UNL     1       0.051 -12.485  -0.790  0.00  0.00    -0.019 C 
ATOM     26  C   UNL     1       0.866 -11.723   0.261  0.00  0.00    -0.002 C 
ATOM     27  C   UNL     1       2.321 -12.186   0.181  0.00  0.00    -0.000 C 
ATOM     28  C   UNL     1       2.355 -13.709   0.043  0.00  0.00    -0.002 C 
ATOM     29  C   UNL     1       2.878 -14.087  -1.341  0.00  0.00    -0.019 C 
ATOM     30  C   UNL     1       1.778 -13.854  -2.383  0.00  0.00    -0.078 C 
ATOM     31  H   UNL     1       2.397 -11.922  -2.170  0.00  0.00    -0.081 HD
ENDBRANCH  22  23
ENDBRANCH   4  22
TORSDOF 7
