REMARK  Name = ZINC05848985
REMARK  12 active torsions:
REMARK  status: ('A' for Active; 'I' for Inactive)
REMARK    1  A    between atoms: C_1  and  C_2
REMARK    2  A    between atoms: C_2  and  C_3
REMARK    3  A    between atoms: C_2  and  C_4
REMARK    4  A    between atoms: C_2  and  C_5
REMARK    5  A    between atoms: C_8  and  N_11
REMARK    6  A    between atoms: C_12  and  C_14
REMARK    7  A    between atoms: C_14  and  S_15
REMARK    8  A    between atoms: S_15  and  C_16
REMARK    9  A    between atoms: C_19  and  C_22
REMARK   10  A    between atoms: N_20  and  C_21
REMARK   11  A    between atoms: C_25  and  O_28
REMARK   12  A    between atoms: O_28  and  C_29
REMARK                            x       y       z     vdW  Elec       q    Type
REMARK                         _______ _______ _______ _____ _____    ______ ____
ROOT
ATOM      1  C   UNL     1       2.445  -4.219  -0.386  0.00  0.00    +0.173 C 
ENDROOT
BRANCH   1   3
ATOM      2  N   UNL     1       1.275  -2.049  -0.180  0.00  0.00    -0.285 N 
ATOM      3  C   UNL     1       2.430  -2.712  -0.385  0.00  0.00    +0.227 C 
ATOM      4  O   UNL     1       3.458  -2.095  -0.570  0.00  0.00    -0.275 OA
ATOM      5  H   UNL     1       0.467  -2.539   0.042  0.00  0.00    +0.155 HD
BRANCH   2   9
ATOM      6  C   UNL     1       1.169   2.103  -0.500  0.00  0.00    -0.042 A 
ATOM      7  C   UNL     1       2.113   1.381  -1.206  0.00  0.00    +0.006 A 
ATOM      8  C   UNL     1       2.151   0.004  -1.102  0.00  0.00    +0.023 A 
ATOM      9  C   UNL     1       1.239  -0.654  -0.287  0.00  0.00    +0.033 A 
ATOM     10  C   UNL     1       0.292   0.074   0.421  0.00  0.00    +0.023 A 
ATOM     11  C   UNL     1       0.260   1.451   0.312  0.00  0.00    +0.006 A 
BRANCH   6  13
ATOM     12  C   UNL     1       0.884   3.998  -2.074  0.00  0.00    +0.015 C 
ATOM     13  C   UNL     1       1.131   3.605  -0.616  0.00  0.00    -0.013 C 
ATOM     14  C   UNL     1       0.002   4.156   0.259  0.00  0.00    +0.015 C 
ATOM     15  C   UNL     1       2.467   4.187  -0.150  0.00  0.00    +0.015 C 
ENDBRANCH   6  13
ENDBRANCH   2   9
ENDBRANCH   1   3
BRANCH   1  16
ATOM     16  S   UNL     1       4.130  -4.806  -0.686  0.00  0.00    -0.077 S 
BRANCH  16  17
ATOM     17  C   UNL     1       3.862  -6.546  -0.635  0.00  0.00    +0.192 A 
ATOM     18  N   UNL     1       2.715  -7.152  -0.424  0.00  0.00    -0.122 NA
ATOM     19  N   UNL     1       2.877  -8.427  -0.456  0.00  0.00    -0.128 NA
ATOM     20  C   UNL     1       4.138  -8.713  -0.681  0.00  0.00    +0.165 A 
ATOM     21  N   UNL     1       4.808  -7.518  -0.803  0.00  0.00    -0.305 N 
ATOM     22  C   UNL     1       6.237  -7.326  -1.059  0.00  0.00    +0.153 C 
BRANCH  20  23
ATOM     23  C   UNL     1       4.727 -10.065  -0.783  0.00  0.00    +0.019 A 
ATOM     24  C   UNL     1       3.906 -11.171  -1.007  0.00  0.00    +0.015 A 
ATOM     25  C   UNL     1       4.460 -12.430  -1.107  0.00  0.00    +0.046 A 
ATOM     26  C   UNL     1       5.832 -12.599  -0.975  0.00  0.00    +0.120 A 
ATOM     27  C   UNL     1       6.652 -11.502  -0.747  0.00  0.00    +0.046 A 
ATOM     28  C   UNL     1       6.106 -10.239  -0.651  0.00  0.00    +0.015 A 
BRANCH  26  29
ATOM     29  O   UNL     1       6.373 -13.841  -1.068  0.00  0.00    -0.495 OA
ATOM     30  C   UNL     1       5.473 -14.926  -1.303  0.00  0.00    +0.277 C 
ENDBRANCH  26  29
ENDBRANCH  20  23
ENDBRANCH  16  17
ENDBRANCH   1  16
TORSDOF 7
