REMARK  Name = ZINC13066249
REMARK  7 active torsions:
REMARK  status: ('A' for Active; 'I' for Inactive)
REMARK    1  A    between atoms: C_3  and  C_22
REMARK    2  A    between atoms: C_6  and  C_7
REMARK    3  A    between atoms: C_7  and  S_8
REMARK    4  A    between atoms: S_8  and  C_9
REMARK    5  A    between atoms: C_9  and  C_10
REMARK    6  A    between atoms: N_12  and  C_13
REMARK    7  A    between atoms: C_16  and  C_19
REMARK                            x       y       z     vdW  Elec       q    Type
REMARK                         _______ _______ _______ _____ _____    ______ ____
ROOT
ATOM      1  C   UNL     1      -1.424  -0.534  -0.158  0.00  0.00    +0.227 C 
ATOM      2  O   UNL     1      -2.362   0.221  -0.303  0.00  0.00    -0.275 OA
ATOM      3  N   UNL     1      -1.640  -1.854   0.008  0.00  0.00    -0.285 N 
ATOM      4  H   UNL     1      -0.889  -2.467   0.047  0.00  0.00    +0.155 HD
ENDROOT
BRANCH   3   5
ATOM      5  C   UNL     1      -2.943  -2.338   0.123  0.00  0.00    +0.033 A 
ATOM      6  C   UNL     1      -3.917  -1.567   0.749  0.00  0.00    +0.024 A 
ATOM      7  C   UNL     1      -5.205  -2.040   0.860  0.00  0.00    +0.015 A 
ATOM      8  C   UNL     1      -5.531  -3.300   0.352  0.00  0.00    +0.037 A 
ATOM      9  C   UNL     1      -4.549  -4.074  -0.271  0.00  0.00    +0.015 A 
ATOM     10  C   UNL     1      -3.264  -3.593  -0.384  0.00  0.00    +0.024 A 
BRANCH   8  11
ATOM     11  C   UNL     1      -6.910  -3.812   0.474  0.00  0.00    +0.242 C 
ATOM     12  O   UNL     1      -7.192  -4.909   0.032  0.00  0.00    -0.270 OA
ATOM     13  N   UNL     1      -7.856  -3.065   1.076  0.00  0.00    -0.325 N 
ATOM     14  H   UNL     1      -7.631  -2.190   1.429  0.00  0.00    +0.145 HD
ATOM     15  H   UNL     1      -8.762  -3.401   1.156  0.00  0.00    +0.145 HD
ENDBRANCH   8  11
ENDBRANCH   3   5
BRANCH   1  16
ATOM     16  C   UNL     1      -0.016   0.004  -0.163  0.00  0.00    +0.165 C 
BRANCH  16  17
ATOM     17  S   UNL     1      -0.057   1.801  -0.405  0.00  0.00    -0.147 S 
BRANCH  17  18
ATOM     18  C   UNL     1       1.691   2.286  -0.387  0.00  0.00    +0.104 C 
BRANCH  18  24
ATOM     19  C   UNL     1       1.913   4.299  -1.857  0.00  0.00    +0.005 A 
ATOM     20  C   UNL     1       2.010   5.662  -2.042  0.00  0.00    +0.015 A 
ATOM     21  C   UNL     1       2.004   6.516  -0.937  0.00  0.00    +0.063 A 
ATOM     22  C   UNL     1       1.896   5.982   0.348  0.00  0.00    +0.015 A 
ATOM     23  C   UNL     1       1.795   4.616   0.519  0.00  0.00    +0.005 A 
ATOM     24  C   UNL     1       1.801   3.777  -0.581  0.00  0.00    -0.038 A 
BRANCH  21  25
ATOM     25  C   UNL     1       2.112   7.976  -1.127  0.00  0.00    +0.387 C 
ATOM     26  O   UNL     1       2.106   8.716  -0.164  0.00  0.00    -0.241 OA
ATOM     27  O   UNL     1       2.216   8.489  -2.369  0.00  0.00    -0.241 OA
ENDBRANCH  21  25
ENDBRANCH  18  24
ENDBRANCH  17  18
ENDBRANCH  16  17
ENDBRANCH   1  16
TORSDOF 7
