REMARK  Name = ZINC63526755
REMARK  13 active torsions:
REMARK  status: ('A' for Active; 'I' for Inactive)
REMARK    1  A    between atoms: C_1  and  C_2
REMARK    2  A    between atoms: C_2  and  O_3
REMARK    3  A    between atoms: O_3  and  C_4
REMARK    4  A    between atoms: C_9  and  S_14
REMARK    5  A    between atoms: S_14  and  C_15
REMARK    6  A    between atoms: C_15  and  C_16
REMARK    7  A    between atoms: C_19  and  C_38
REMARK    8  A    between atoms: N_22  and  S_28
REMARK    9  A    between atoms: C_23  and  C_25
REMARK   10  A    between atoms: C_25  and  C_26
REMARK   11  A    between atoms: C_25  and  C_27
REMARK   12  A    between atoms: S_28  and  C_31
REMARK   13  A    between atoms: C_34  and  C_37
REMARK                            x       y       z     vdW  Elec       q    Type
REMARK                         _______ _______ _______ _____ _____    ______ ____
ROOT
ATOM      1  C   UNL     1       6.600  -6.099  -2.234  0.00  0.00    +0.227 C 
ATOM      2  O   UNL     1       6.971  -5.713  -3.322  0.00  0.00    -0.275 OA
ATOM      3  N   UNL     1       7.505  -6.437  -1.294  0.00  0.00    -0.279 N 
ATOM      4  C   UNL     1       7.275  -7.286  -0.109  0.00  0.00    +0.090 C 
ATOM      5  C   UNL     1       8.299  -6.775   0.924  0.00  0.00    +0.133 C 
ATOM      6  N   UNL     1       9.412  -6.237   0.123  0.00  0.00    -0.154 NA
ATOM      7  C   UNL     1       8.918  -6.038  -1.247  0.00  0.00    +0.171 C 
ATOM      8  C   UNL     1       5.848  -7.105   0.412  0.00  0.00    +0.029 C 
ENDROOT
BRANCH   7   9
ATOM      9  C   UNL     1       9.050  -4.563  -1.632  0.00  0.00    +0.020 C 
ATOM     10  C   UNL     1      10.478  -4.090  -1.354  0.00  0.00    +0.010 C 
ATOM     11  C   UNL     1       8.737  -4.394  -3.119  0.00  0.00    +0.010 C 
ENDBRANCH   7   9
BRANCH   6  12
ATOM     12  S   UNL     1      10.944  -5.921   0.666  0.00  0.00    +0.063 S 
ATOM     13  O   UNL     1      11.787  -5.913  -0.478  0.00  0.00    -0.153 OA
ATOM     14  O   UNL     1      10.842  -4.808   1.544  0.00  0.00    -0.153 OA
BRANCH  12  15
ATOM     15  C   UNL     1      11.442  -7.295   1.650  0.00  0.00    +0.106 A 
ATOM     16  C   UNL     1      11.179  -7.305   3.007  0.00  0.00    +0.029 A 
ATOM     17  C   UNL     1      11.570  -8.383   3.779  0.00  0.00    +0.005 A 
ATOM     18  C   UNL     1      12.224  -9.451   3.194  0.00  0.00    -0.050 A 
ATOM     19  C   UNL     1      12.487  -9.441   1.837  0.00  0.00    +0.005 A 
ATOM     20  C   UNL     1      12.092  -8.365   1.064  0.00  0.00    +0.029 A 
ATOM     21  C   UNL     1      12.651 -10.626   4.036  0.00  0.00    +0.044 C 
ENDBRANCH  12  15
ENDBRANCH   6  12
BRANCH   1  22
ATOM     22  C   UNL     1       5.127  -6.202  -1.933  0.00  0.00    +0.168 C 
BRANCH  22  23
ATOM     23  S   UNL     1       4.184  -5.348  -3.227  0.00  0.00    -0.106 S 
BRANCH  23  29
ATOM     24  C   UNL     1       1.112  -7.178   1.375  0.00  0.00    +0.123 A 
ATOM     25  C   UNL     1       1.043  -8.413   0.605  0.00  0.00    +0.048 A 
ATOM     26  C   UNL     1       1.355  -8.454  -0.703  0.00  0.00    +0.031 A 
ATOM     27  C   UNL     1       1.780  -7.226  -1.392  0.00  0.00    +0.061 A 
ATOM     28  N   UNL     1       2.132  -6.990  -2.623  0.00  0.00    -0.355 N 
ATOM     29  C   UNL     1       2.455  -5.562  -2.724  0.00  0.00    +0.236 C 
ATOM     30  N   UNL     1       2.245  -4.994  -1.387  0.00  0.00    -0.355 N 
ATOM     31  C   UNL     1       1.851  -5.964  -0.608  0.00  0.00    +0.064 A 
ATOM     32  C   UNL     1       1.489  -6.005   0.811  0.00  0.00    +0.073 A 
ATOM     33  H   UNL     1       2.174  -7.639  -3.342  0.00  0.00    +0.162 HD
ATOM     34  H   UNL     1       2.374  -4.067  -1.129  0.00  0.00    +0.162 HD
BRANCH  24  35
ATOM     35  O   UNL     1       0.784  -7.202   2.691  0.00  0.00    -0.492 OA
BRANCH  35  37
ATOM     36  C   UNL     1       0.064  -8.292   4.724  0.00  0.00    +0.048 C 
ATOM     37  C   UNL     1       0.393  -8.462   3.240  0.00  0.00    +0.225 C 
ENDBRANCH  35  37
ENDBRANCH  24  35
ENDBRANCH  23  29
ENDBRANCH  22  23
ENDBRANCH   1  22
TORSDOF 8
