REMARK  Name = ZINC30513469
REMARK  8 active torsions:
REMARK  status: ('A' for Active; 'I' for Inactive)
REMARK    1  A    between atoms: C_3  and  C_12
REMARK    2  A    between atoms: C_6  and  C_7
REMARK    3  A    between atoms: C_7  and  N_8
REMARK    4  A    between atoms: N_14  and  C_15
REMARK    5  A    between atoms: C_15  and  C_16
REMARK    6  A    between atoms: C_16  and  S_17
REMARK    7  A    between atoms: S_17  and  C_18
REMARK    8  A    between atoms: C_18  and  C_19
REMARK                            x       y       z     vdW  Elec       q    Type
REMARK                         _______ _______ _______ _____ _____    ______ ____
ROOT
ATOM      1  C   UNL     1      -2.949   0.242  -1.183  0.00  0.00    +0.006 A 
ATOM      2  C   UNL     1      -3.982  -0.672  -1.190  0.00  0.00    +0.013 A 
ATOM      3  C   UNL     1      -4.502  -1.141   0.017  0.00  0.00    +0.037 A 
ATOM      4  C   UNL     1      -3.970  -0.685   1.224  0.00  0.00    +0.013 A 
ATOM      5  C   UNL     1      -2.933   0.225   1.217  0.00  0.00    +0.006 A 
ATOM      6  C   UNL     1      -2.422   0.686   0.017  0.00  0.00    -0.030 A 
ENDROOT
BRANCH   3   7
ATOM      7  C   UNL     1      -5.613  -2.117   0.017  0.00  0.00    +0.244 C 
ATOM      8  O   UNL     1      -6.064  -2.524   1.070  0.00  0.00    -0.270 OA
ATOM      9  N   UNL     1      -6.125  -2.555  -1.150  0.00  0.00    -0.311 N 
ATOM     10  H   UNL     1      -5.717  -2.186  -2.103  0.00  0.00    +0.149 HD
BRANCH   9  11
ATOM     11  C   UNL     1      -7.226  -3.522  -1.150  0.00  0.00    +0.115 C 
BRANCH  11  12
ATOM     12  C   UNL     1      -7.616  -3.850  -2.592  0.00  0.00    +0.088 C 
BRANCH  12  13
ATOM     13  S   UNL     1      -8.979  -5.048  -2.593  0.00  0.00    -0.154 S 
BRANCH  13  14
ATOM     14  C   UNL     1      -9.317  -5.327  -4.353  0.00  0.00    +0.111 C 
BRANCH  14  15
ATOM     15  C   UNL     1     -10.445  -6.317  -4.496  0.00  0.00    +0.001 A 
ATOM     16  C   UNL     1     -11.778  -6.086  -4.570  0.00  0.00    +0.013 A 
ATOM     17  C   UNL     1     -12.638  -7.160  -4.701  0.00  0.00    +0.023 A 
ATOM     18  C   UNL     1     -12.122  -8.414  -4.753  0.00  0.00    +0.055 A 
ATOM     19  S   UNL     1     -10.370  -8.096  -4.622  0.00  0.00    -0.086 S 
ATOM     20 BR   UNL     1     -13.023 -10.067  -4.928  0.00  0.00    -0.043 Br
ENDBRANCH  14  15
ENDBRANCH  13  14
ENDBRANCH  12  13
ENDBRANCH  11  12
ENDBRANCH   9  11
ENDBRANCH   3   7
BRANCH   6  21
ATOM     21  C   UNL     1      -1.290   1.681   0.017  0.00  0.00    +0.141 C 
BRANCH  21  22
ATOM     22  N   UNL     1      -0.011   0.966   0.007  0.00  0.00    -0.295 N 
ATOM     23  C   UNL     1       1.147   1.655   0.000  0.00  0.00    +0.297 C 
ATOM     24  O   UNL     1       1.130   2.871   0.007  0.00  0.00    -0.253 OA
ATOM     25  N   UNL     1       2.323   0.998  -0.015  0.00  0.00    -0.313 N 
ATOM     26  H   UNL     1       0.004  -0.134   0.006  0.00  0.00    +0.151 HD
ATOM     27  H   UNL     1       3.268   1.560  -0.021  0.00  0.00    +0.146 HD
ATOM     28  H   UNL     1       2.338  -0.102  -0.021  0.00  0.00    +0.146 HD
ENDBRANCH  21  22
ENDBRANCH   6  21
TORSDOF 8
