REMARK  Name = ZINC12832838
REMARK  9 active torsions:
REMARK  status: ('A' for Active; 'I' for Inactive)
REMARK    1  A    between atoms: C_1  and  C_2
REMARK    2  A    between atoms: C_7  and  C_14
REMARK    3  A    between atoms: C_14  and  N_63
REMARK    4  A    between atoms: C_15  and  C_16
REMARK    5  A    between atoms: C_15  and  N_63
REMARK    6  A    between atoms: C_25  and  C_26
REMARK    7  A    between atoms: C_25  and  N_63
REMARK    8  A    between atoms: N_30  and  C_31
REMARK    9  A    between atoms: C_31  and  C_32
REMARK                            x       y       z     vdW  Elec       q    Type
REMARK                         _______ _______ _______ _____ _____    ______ ____
ROOT
ATOM      1  N   UNL     1       5.931  -1.117   1.127  0.00  0.00    +0.390 N 
ATOM      2  H   UNL     1       5.992  -0.592   0.246  0.00  0.00    -0.080 HD
ENDROOT
BRANCH   1   3
ATOM      3  C   UNL     1       5.621  -2.530   0.822  0.00  0.00    -0.036 C 
BRANCH   3  10
ATOM      4  C   UNL     1      10.939  -5.356  -4.408  0.00  0.00    +0.044 C 
ATOM      5  C   UNL     1      10.074  -4.913  -3.256  0.00  0.00    -0.048 A 
ATOM      6  C   UNL     1      10.455  -5.214  -1.956  0.00  0.00    +0.004 A 
ATOM      7  C   UNL     1       9.685  -4.822  -0.898  0.00  0.00    +0.010 A 
ATOM      8  C   UNL     1       8.502  -4.112  -1.126  0.00  0.00    -0.001 A 
ATOM      9  C   UNL     1       7.653  -3.677  -0.016  0.00  0.00    +0.017 A 
ATOM     10  C   UNL     1       6.517  -2.992  -0.298  0.00  0.00    +0.001 A 
ATOM     11  C   UNL     1       6.168  -2.715  -1.638  0.00  0.00    +0.251 A 
ATOM     12  O   UNL     1       5.141  -2.102  -1.869  0.00  0.00    -0.268 OA
ATOM     13  N   UNL     1       6.945  -3.106  -2.664  0.00  0.00    -0.322 N 
ATOM     14  H   UNL     1       6.678  -2.895  -3.572  0.00  0.00    +0.169 HD
ATOM     15  C   UNL     1       8.112  -3.805  -2.444  0.00  0.00    +0.049 A 
ATOM     16  C   UNL     1       8.912  -4.215  -3.505  0.00  0.00    +0.029 A 
ENDBRANCH   3  10
ENDBRANCH   1   3
BRANCH   1  17
ATOM     17  C   UNL     1       4.860  -0.534   1.961  0.00  0.00    -0.042 C 
BRANCH  17  18
ATOM     18  C   UNL     1       3.599  -0.444   1.141  0.00  0.00    -0.060 A 
ATOM     19  C   UNL     1       2.640  -1.435   1.240  0.00  0.00    +0.005 A 
ATOM     20  C   UNL     1       1.482  -1.357   0.490  0.00  0.00    +0.050 A 
ATOM     21  C   UNL     1       1.279  -0.285  -0.364  0.00  0.00    +0.166 A 
ATOM     22  C   UNL     1       2.244   0.714  -0.463  0.00  0.00    +0.166 A 
ATOM     23  C   UNL     1       3.403   0.630   0.293  0.00  0.00    +0.051 A 
ATOM     24  O   UNL     1       1.815   1.649  -1.359  0.00  0.00    -0.453 OA
ATOM     25  C   UNL     1       0.400   1.424  -1.500  0.00  0.00    +0.466 C 
ATOM     26  O   UNL     1       0.244   0.025  -1.198  0.00  0.00    -0.453 OA
ENDBRANCH  17  18
ENDBRANCH   1  17
BRANCH   1  27
ATOM     27  C   UNL     1       7.227  -1.026   1.831  0.00  0.00    +0.001 C 
BRANCH  27  28
ATOM     28  C   UNL     1       7.624   0.425   1.933  0.00  0.00    +0.135 A 
ATOM     29  N   UNL     1       8.325   1.107   1.061  0.00  0.00    -0.115 NA
ATOM     30  N   UNL     1       8.450   2.310   1.505  0.00  0.00    -0.023 NA
ATOM     31  N   UNL     1       7.853   2.411   2.641  0.00  0.00    -0.044 NA
ATOM     32  N   UNL     1       7.330   1.269   2.939  0.00  0.00    -0.227 N 
BRANCH  32  33
ATOM     33  C   UNL     1       6.563   0.952   4.146  0.00  0.00    +0.182 C 
BRANCH  33  34
ATOM     34  C   UNL     1       7.498   0.468   5.223  0.00  0.00    -0.026 A 
ATOM     35  C   UNL     1       7.784  -0.880   5.337  0.00  0.00    +0.005 A 
ATOM     36  C   UNL     1       8.645  -1.324   6.322  0.00  0.00    +0.000 A 
ATOM     37  C   UNL     1       9.214  -0.421   7.201  0.00  0.00    +0.000 A 
ATOM     38  C   UNL     1       8.924   0.926   7.091  0.00  0.00    +0.000 A 
ATOM     39  C   UNL     1       8.066   1.371   6.102  0.00  0.00    +0.005 A 
ENDBRANCH  33  34
ENDBRANCH  32  33
ENDBRANCH  27  28
ENDBRANCH   1  27
TORSDOF 8
