REMARK  Name = ZINC41804847
REMARK  8 active torsions:
REMARK  status: ('A' for Active; 'I' for Inactive)
REMARK    1  A    between atoms: C_1  and  C_2
REMARK    2  A    between atoms: C_2  and  C_3
REMARK    3  A    between atoms: C_3  and  C_4
REMARK    4  A    between atoms: C_3  and  C_11
REMARK    5  A    between atoms: C_3  and  N_14
REMARK    6  A    between atoms: N_14  and  C_15
REMARK    7  A    between atoms: C_15  and  C_17
REMARK    8  A    between atoms: C_15  and  C_18
REMARK                            x       y       z     vdW  Elec       q    Type
REMARK                         _______ _______ _______ _____ _____    ______ ____
ROOT
ATOM      1  C   UNL     1       0.550  -0.397  -1.625  0.00  0.00    +0.062 C 
ENDROOT
BRANCH   1   2
ATOM      2  C   UNL     1       1.067   0.324  -2.843  0.00  0.00    -0.048 A 
ATOM      3  C   UNL     1       0.179   0.911  -3.726  0.00  0.00    +0.004 A 
ATOM      4  C   UNL     1       0.652   1.573  -4.843  0.00  0.00    +0.015 A 
ATOM      5  C   UNL     1       2.014   1.648  -5.078  0.00  0.00    +0.018 A 
ATOM      6  C   UNL     1       2.901   1.061  -4.194  0.00  0.00    +0.015 A 
ATOM      7  C   UNL     1       2.427   0.404  -3.074  0.00  0.00    +0.004 A 
ATOM      8 BR   UNL     1       2.661   2.553  -6.607  0.00  0.00    -0.050 Br
ENDBRANCH   1   2
BRANCH   1   9
ATOM      9  C   UNL     1       0.997  -1.835  -1.665  0.00  0.00    +0.350 C 
ATOM     10  O   UNL     1       0.406  -2.638  -2.368  0.00  0.00    -0.248 OA
ATOM     11  O   UNL     1       1.950  -2.197  -0.996  0.00  0.00    -0.248 OA
ENDBRANCH   1   9
BRANCH   1  12
ATOM     12  N   UNL     1      -0.917  -0.340  -1.607  0.00  0.00    +0.400 N 
ATOM     13  H   UNL     1      -1.218   0.621  -1.675  0.00  0.00    -0.083 HD
ATOM     14  H   UNL     1      -1.284  -0.863  -2.389  0.00  0.00    -0.083 HD
BRANCH  12  15
ATOM     15  C   UNL     1      -1.415  -0.922  -0.353  0.00  0.00    +0.015 C 
ATOM     16  C   UNL     1      -1.143  -2.427  -0.346  0.00  0.00    -0.004 C 
BRANCH  15  17
ATOM     17  C   UNL     1      -2.898  -0.678  -0.241  0.00  0.00    +0.196 C 
ATOM     18  O   UNL     1      -3.483  -0.080  -1.119  0.00  0.00    -0.278 OA
ATOM     19  N   UNL     1      -3.575  -1.126   0.835  0.00  0.00    -0.331 N 
ATOM     20  H   UNL     1      -3.107  -1.605   1.538  0.00  0.00    +0.145 HD
ATOM     21  H   UNL     1      -4.529  -0.970   0.908  0.00  0.00    +0.145 HD
ENDBRANCH  15  17
ENDBRANCH  12  15
ENDBRANCH   1  12
BRANCH   1  23
ATOM     22  C   UNL     1       0.547   1.695  -0.258  0.00  0.00    +0.003 C 
ATOM     23  C   UNL     1       1.101   0.273  -0.364  0.00  0.00    +0.000 C 
ENDBRANCH   1  23
TORSDOF 6
