REMARK  Name = ZINC36051128
REMARK  15 active torsions:
REMARK  status: ('A' for Active; 'I' for Inactive)
REMARK    1  A    between atoms: C_1  and  C_2
REMARK    2  A    between atoms: C_5  and  N_8
REMARK    3  A    between atoms: C_10  and  C_28
REMARK    4  A    between atoms: C_14  and  C_16
REMARK    5  A    between atoms: C_16  and  N_17
REMARK    6  A    between atoms: N_17  and  C_18
REMARK    7  A    between atoms: C_18  and  C_19
REMARK    8  A    between atoms: C_19  and  O_20
REMARK    9  A    between atoms: O_20  and  C_21
REMARK   10  A    between atoms: C_22  and  C_24
REMARK   11  A    between atoms: C_24  and  C_25
REMARK   12  A    between atoms: C_25  and  C_26
REMARK   13  A    between atoms: C_25  and  C_27
REMARK   14  A    between atoms: C_31  and  O_34
REMARK   15  A    between atoms: O_34  and  C_35
REMARK                            x       y       z     vdW  Elec       q    Type
REMARK                         _______ _______ _______ _____ _____    ______ ____
ROOT
ATOM      1  N   UNL     1       0.059  -4.172  -0.021  0.00  0.00    -0.287 N 
ATOM      2  C   UNL     1      -0.778  -4.995  -0.737  0.00  0.00    +0.122 A 
ATOM      3  C   UNL     1      -0.412  -6.270  -0.451  0.00  0.00    +0.091 A 
ATOM      4  N   UNL     1       0.622  -6.224   0.416  0.00  0.00    -0.214 NA
ATOM      5  C   UNL     1       0.913  -4.974   0.675  0.00  0.00    +0.207 A 
ATOM      6  N   UNL     1       1.924  -4.538   1.522  0.00  0.00    -0.254 N 
ATOM      7  C   UNL     1       2.706  -5.434   2.156  0.00  0.00    +0.237 C 
ATOM      8  O   UNL     1       2.527  -6.621   1.988  0.00  0.00    -0.274 OA
ATOM      9  H   UNL     1       2.067  -3.588   1.657  0.00  0.00    +0.158 HD
ENDROOT
BRANCH   1  14
ATOM     10  C   UNL     1      -0.018   1.503   0.010  0.00  0.00    +0.044 C 
ATOM     11  C   UNL     1       0.002  -0.004   0.002  0.00  0.00    -0.050 A 
ATOM     12  C   UNL     1       0.006  -0.688  -1.200  0.00  0.00    +0.005 A 
ATOM     13  C   UNL     1       0.025  -2.068  -1.211  0.00  0.00    +0.026 A 
ATOM     14  C   UNL     1       0.040  -2.771  -0.013  0.00  0.00    +0.049 A 
ATOM     15  C   UNL     1       0.037  -2.082   1.192  0.00  0.00    +0.026 A 
ATOM     16  C   UNL     1       0.023  -0.700   1.196  0.00  0.00    +0.005 A 
ENDBRANCH   1  14
BRANCH   3  17
ATOM     17  C   UNL     1      -1.038  -7.500  -0.997  0.00  0.00    +0.002 A 
ATOM     18  C   UNL     1      -2.100  -7.403  -1.895  0.00  0.00    +0.013 A 
ATOM     19  C   UNL     1      -2.680  -8.548  -2.400  0.00  0.00    +0.046 A 
ATOM     20  C   UNL     1      -2.207  -9.795  -2.017  0.00  0.00    +0.120 A 
ATOM     21  C   UNL     1      -1.149  -9.895  -1.123  0.00  0.00    +0.046 A 
ATOM     22  C   UNL     1      -0.561  -8.753  -0.619  0.00  0.00    +0.013 A 
BRANCH  20  23
ATOM     23  O   UNL     1      -2.780 -10.921  -2.517  0.00  0.00    -0.495 OA
ATOM     24  C   UNL     1      -2.244 -12.171  -2.080  0.00  0.00    +0.277 C 
ENDBRANCH  20  23
ENDBRANCH   3  17
BRANCH   7  25
ATOM     25  C   UNL     1       3.802  -4.960   3.075  0.00  0.00    +0.203 C 
BRANCH  25  26
ATOM     26  N   UNL     1       4.503  -6.118   3.637  0.00  0.00    -0.290 N 
ATOM     27  C   UNL     1       4.079  -6.665   4.793  0.00  0.00    +0.216 C 
ATOM     28  O   UNL     1       4.659  -7.624   5.259  0.00  0.00    -0.276 OA
BRANCH  26  29
ATOM     29  C   UNL     1       5.663  -6.680   2.942  0.00  0.00    +0.136 C 
BRANCH  29  30
ATOM     30  C   UNL     1       6.937  -5.992   3.437  0.00  0.00    +0.178 C 
BRANCH  30  31
ATOM     31  O   UNL     1       7.138  -6.299   4.818  0.00  0.00    -0.381 OA
ATOM     32  C   UNL     1       8.307  -5.702   5.382  0.00  0.00    +0.194 C 
ENDBRANCH  30  31
ENDBRANCH  29  30
ENDBRANCH  26  29
BRANCH  27  33
ATOM     33  C   UNL     1       2.885  -6.087   5.508  0.00  0.00    +0.099 C 
BRANCH  33  34
ATOM     34  C   UNL     1       2.618  -6.888   6.784  0.00  0.00    -0.008 C 
ATOM     35  C   UNL     1       1.485  -6.227   7.573  0.00  0.00    +0.008 C 
ATOM     36  C   UNL     1       2.215  -8.317   6.414  0.00  0.00    +0.008 C 
ENDBRANCH  33  34
ENDBRANCH  27  33
ENDBRANCH  25  26
ENDBRANCH   7  25
TORSDOF 10
