REMARK  Name = ZINC17248158
REMARK  8 active torsions:
REMARK  status: ('A' for Active; 'I' for Inactive)
REMARK    1  A    between atoms: C_1  and  C_2
REMARK    2  A    between atoms: C_8  and  C_27
REMARK    3  A    between atoms: C_10  and  N_12
REMARK    4  A    between atoms: N_15  and  C_16
REMARK    5  A    between atoms: C_16  and  N_18
REMARK    6  A    between atoms: N_18  and  C_19
REMARK    7  A    between atoms: C_22  and  C_26
REMARK    8  A    between atoms: C_23  and  C_25
REMARK                            x       y       z     vdW  Elec       q    Type
REMARK                         _______ _______ _______ _____ _____    ______ ____
ROOT
ATOM      1  N   UNL     1      -0.680  -5.626   1.362  0.00  0.00    -0.179 NA
ATOM      2  C   UNL     1      -0.975  -6.246   0.240  0.00  0.00    +0.195 C 
ATOM      3  N   UNL     1      -1.065  -5.539  -0.929  0.00  0.00    -0.371 N 
ATOM      4  N   UNL     1      -1.192  -7.603   0.240  0.00  0.00    -0.268 N 
ATOM      5  H   UNL     1      -0.485  -4.777  -1.080  0.00  0.00    +0.159 HD
ATOM      6  H   UNL     1      -1.433  -8.056  -0.583  0.00  0.00    +0.157 HD
ATOM      7  H   UNL     1      -1.708  -5.801  -1.605  0.00  0.00    +0.159 HD
ENDROOT
BRANCH   1  17
ATOM      8  C   UNL     1      -0.701   2.022   0.398  0.00  0.00    +0.044 C 
ATOM      9  C   UNL     1      -0.750   0.516   0.376  0.00  0.00    -0.050 A 
ATOM     10  C   UNL     1      -1.065  -0.143  -0.810  0.00  0.00    +0.005 A 
ATOM     11  C   UNL     1      -1.118  -1.504  -0.865  0.00  0.00    +0.029 A 
ATOM     12  C   UNL     1      -0.852  -2.255   0.289  0.00  0.00    +0.077 A 
ATOM     13  C   UNL     1      -0.531  -1.582   1.497  0.00  0.00    +0.022 A 
ATOM     14  C   UNL     1      -0.480  -0.181   1.516  0.00  0.00    +0.015 A 
ATOM     15  C   UNL     1      -0.266  -2.353   2.645  0.00  0.00    +0.051 A 
ATOM     16  N   UNL     1      -0.327  -3.664   2.550  0.00  0.00    -0.215 NA
ATOM     17  C   UNL     1      -0.632  -4.267   1.397  0.00  0.00    +0.254 A 
ATOM     18  N   UNL     1      -0.890  -3.592   0.287  0.00  0.00    -0.211 NA
ATOM     19  C   UNL     1       0.080  -1.692   3.954  0.00  0.00    +0.066 C 
ENDBRANCH   1  17
BRANCH   4  20
ATOM     20  C   UNL     1      -1.072  -8.304   1.385  0.00  0.00    +0.141 C 
ATOM     21  S   UNL     1      -0.787  -7.488   2.863  0.00  0.00    -0.018 S 
BRANCH  20  22
ATOM     22  N   UNL     1      -1.175  -9.648   1.366  0.00  0.00    -0.297 N 
ATOM     23  H   UNL     1      -1.246 -10.117   0.520  0.00  0.00    +0.154 HD
BRANCH  22  24
ATOM     24  C   UNL     1      -1.179 -10.366   2.566  0.00  0.00    +0.033 A 
ATOM     25  C   UNL     1      -1.870  -9.876   3.668  0.00  0.00    +0.023 A 
ATOM     26  C   UNL     1      -1.872 -10.588   4.851  0.00  0.00    +0.005 A 
ATOM     27  C   UNL     1      -1.188 -11.786   4.941  0.00  0.00    -0.047 A 
ATOM     28  C   UNL     1      -0.500 -12.276   3.847  0.00  0.00    -0.046 A 
ATOM     29  C   UNL     1      -0.498 -11.573   2.658  0.00  0.00    +0.027 A 
ATOM     30  C   UNL     1       0.245 -13.583   3.949  0.00  0.00    +0.044 C 
ATOM     31  C   UNL     1      -1.192 -12.559   6.235  0.00  0.00    +0.044 C 
ENDBRANCH  22  24
ENDBRANCH  20  22
ENDBRANCH   4  20
TORSDOF 4
