REMARK  Name = ZINC43726297
REMARK  8 active torsions:
REMARK  status: ('A' for Active; 'I' for Inactive)
REMARK    1  A    between atoms: C_1  and  C_2
REMARK    2  A    between atoms: C_7  and  O_33
REMARK    3  A    between atoms: C_11  and  C_32
REMARK    4  A    between atoms: C_12  and  O_31
REMARK    5  A    between atoms: C_16  and  C_29
REMARK    6  A    between atoms: C_16  and  C_30
REMARK    7  A    between atoms: C_20  and  O_28
REMARK    8  A    between atoms: C_23  and  O_25
REMARK                            x       y       z     vdW  Elec       q    Type
REMARK                         _______ _______ _______ _____ _____    ______ ____
ROOT
ATOM      1  C   UNL     1      -0.042   1.730   0.081  0.00  0.00    +0.016 C 
ATOM      2  C   UNL     1      -0.071   0.209   0.027  0.00  0.00    +0.059 C 
ATOM      3  C   UNL     1       0.613  -0.361  -1.228  0.00  0.00    +0.031 C 
ATOM      4  C   UNL     1       1.907   0.366  -1.550  0.00  0.00    +0.038 C 
ATOM      5  C   UNL     1       2.914   0.421  -0.414  0.00  0.00    +0.120 C 
ATOM      6  C   UNL     1       2.967  -0.751   0.541  0.00  0.00    +0.044 C 
ATOM      7  C   UNL     1       4.214  -1.615   0.534  0.00  0.00    +0.004 C 
ATOM      8  C   UNL     1       5.379  -0.880   1.220  0.00  0.00    +0.121 C 
ATOM      9  C   UNL     1       6.652  -1.720   1.109  0.00  0.00    +0.032 C 
ATOM     10  C   UNL     1       6.505  -3.011   1.900  0.00  0.00    +0.009 C 
ATOM     11  C   UNL     1       5.221  -3.768   1.570  0.00  0.00    -0.031 C 
ATOM     12  C   UNL     1       4.025  -2.859   1.409  0.00  0.00    +0.006 C 
ATOM     13  C   UNL     1       2.751  -3.609   1.049  0.00  0.00    +0.037 C 
ATOM     14  C   UNL     1       1.583  -2.704   1.476  0.00  0.00    +0.131 C 
ATOM     15  C   UNL     1       1.620  -1.444   0.633  0.00  0.00    +0.087 C 
ATOM     16  C   UNL     1       1.032  -1.783  -0.753  0.00  0.00    +0.134 C 
ATOM     17  C   UNL     1       0.659  -0.405   1.209  0.00  0.00    +0.148 C 
ATOM     18  O   UNL     1       0.514  -0.131   2.377  0.00  0.00    -0.296 OA
ATOM     19  C   UNL     1       4.952  -4.706   2.779  0.00  0.00    +0.011 C 
ATOM     20  C   UNL     1       5.453  -4.676   0.363  0.00  0.00    +0.011 C 
ATOM     21  C   UNL     1       4.610  -1.982  -0.891  0.00  0.00    +0.014 C 
ENDROOT
BRANCH  16  22
ATOM     22  O   UNL     1       1.947  -2.395  -1.649  0.00  0.00    -0.390 OA
ATOM     23  H   UNL     1       1.594  -2.529  -2.540  0.00  0.00    +0.210 HD
ENDBRANCH  16  22
BRANCH  14  24
ATOM     24  O   UNL     1       1.698  -2.386   2.859  0.00  0.00    -0.391 OA
ATOM     25  H   UNL     1       1.684  -3.157   3.442  0.00  0.00    +0.210 HD
ENDBRANCH  14  24
BRANCH   8  26
ATOM     26  O   UNL     1       5.623   0.424   0.728  0.00  0.00    -0.391 OA
ATOM     27  H   UNL     1       6.357   0.878   1.165  0.00  0.00    +0.210 HD
ENDBRANCH   8  26
BRANCH   5  28
ATOM     28  O   UNL     1       4.177   0.720  -1.009  0.00  0.00    -0.391 OA
ATOM     29  H   UNL     1       4.198   1.561  -1.487  0.00  0.00    +0.210 HD
ENDBRANCH   5  28
TORSDOF 4
