REMARK  Name = ZINC16958654
REMARK  15 active torsions:
REMARK  status: ('A' for Active; 'I' for Inactive)
REMARK    1  A    between atoms: C_1  and  N_70
REMARK    2  A    between atoms: C_4  and  C_5
REMARK    3  A    between atoms: C_7  and  O_15
REMARK    4  A    between atoms: C_8  and  O_13
REMARK    5  A    between atoms: C_9  and  O_11
REMARK    6  A    between atoms: O_11  and  C_12
REMARK    7  A    between atoms: O_13  and  C_14
REMARK    8  A    between atoms: O_15  and  C_16
REMARK    9  A    between atoms: C_20  and  C_26
REMARK   10  A    between atoms: C_28  and  O_36
REMARK   11  A    between atoms: C_29  and  O_34
REMARK   12  A    between atoms: C_30  and  O_32
REMARK   13  A    between atoms: O_32  and  C_33
REMARK   14  A    between atoms: O_34  and  C_35
REMARK   15  A    between atoms: O_36  and  C_37
REMARK                            x       y       z     vdW  Elec       q    Type
REMARK                         _______ _______ _______ _____ _____    ______ ____
ROOT
ATOM      1  C   UNL     1      -7.350   4.407   0.722  0.00  0.00    -0.095 C 
ATOM      2  C   UNL     1      -6.734   2.061   0.720  0.00  0.00    -0.041 C 
ATOM      3  C   UNL     1      -7.019   0.771   1.461  0.00  0.00    -0.042 C 
ATOM      4  C   UNL     1      -6.021  -0.036   1.864  0.00  0.00    +0.011 C 
ATOM      5  C   UNL     1      -8.432   0.430   1.720  0.00  0.00    +0.033 C 
ATOM      6  C   UNL     1      -9.388   1.337   1.498  0.00  0.00    -0.040 C 
ATOM      7  C   UNL     1      -9.051   2.708   0.963  0.00  0.00    -0.043 C 
ATOM      8  C   UNL     1     -10.835   1.017   1.768  0.00  0.00    +0.129 C 
ATOM      9  N   UNL     1     -11.020  -0.333   2.270  0.00  0.00    -0.316 N 
ATOM     10  C   UNL     1     -10.010  -1.188   2.468  0.00  0.00    +0.135 C 
ATOM     11  S   UNL     1     -10.345  -2.759   3.061  0.00  0.00    -0.019 S 
ATOM     12  N   UNL     1      -8.739  -0.840   2.211  0.00  0.00    -0.297 N 
ATOM     13  H   UNL     1     -11.921  -0.629   2.473  0.00  0.00    +0.149 HD
ATOM     14  H   UNL     1      -8.027  -1.480   2.364  0.00  0.00    +0.154 HD
ATOM     15  N   UNL     1      -7.661   3.071   1.279  0.00  0.00    +0.383 N 
ATOM     16  H   UNL     1      -7.546   3.100   2.299  0.00  0.00    -0.081 HD
ENDROOT
BRANCH   4  17
ATOM     17  C   UNL     1      -4.637   0.237   1.443  0.00  0.00    -0.018 A 
ATOM     18  C   UNL     1      -4.385   0.814   0.194  0.00  0.00    +0.057 A 
ATOM     19  C   UNL     1      -3.084   1.068  -0.199  0.00  0.00    +0.166 A 
ATOM     20  C   UNL     1      -2.025   0.750   0.647  0.00  0.00    +0.204 A 
ATOM     21  C   UNL     1      -2.272   0.171   1.888  0.00  0.00    +0.166 A 
ATOM     22  C   UNL     1      -3.571  -0.081   2.290  0.00  0.00    +0.057 A 
BRANCH  21  23
ATOM     23  O   UNL     1      -1.234  -0.143   2.709  0.00  0.00    -0.491 OA
ATOM     24  C   UNL     1      -1.559  -0.736   3.968  0.00  0.00    +0.277 C 
ENDBRANCH  21  23
BRANCH  20  25
ATOM     25  O   UNL     1      -0.747   1.002   0.257  0.00  0.00    -0.488 OA
ATOM     26  C   UNL     1      -0.206   2.281   0.594  0.00  0.00    +0.277 C 
ENDBRANCH  20  25
BRANCH  19  27
ATOM     27  O   UNL     1      -2.839   1.630  -1.413  0.00  0.00    -0.491 OA
ATOM     28  C   UNL     1      -3.972   1.930  -2.229  0.00  0.00    +0.277 C 
ENDBRANCH  19  27
ENDBRANCH   4  17
BRANCH   8  29
ATOM     29  C   UNL     1     -11.616   1.173   0.489  0.00  0.00    -0.016 A 
ATOM     30  C   UNL     1     -11.593   0.168  -0.460  0.00  0.00    +0.055 A 
ATOM     31  C   UNL     1     -12.315   0.305  -1.636  0.00  0.00    +0.165 A 
ATOM     32  C   UNL     1     -13.053   1.460  -1.865  0.00  0.00    +0.204 A 
ATOM     33  C   UNL     1     -13.070   2.471  -0.911  0.00  0.00    +0.165 A 
ATOM     34  C   UNL     1     -12.350   2.323   0.265  0.00  0.00    +0.055 A 
BRANCH  33  35
ATOM     35  O   UNL     1     -13.791   3.603  -1.130  0.00  0.00    -0.491 OA
ATOM     36  C   UNL     1     -13.762   4.599  -0.106  0.00  0.00    +0.277 C 
ENDBRANCH  33  35
BRANCH  32  37
ATOM     37  O   UNL     1     -13.759   1.601  -3.020  0.00  0.00    -0.488 OA
ATOM     38  C   UNL     1     -13.083   2.206  -4.124  0.00  0.00    +0.277 C 
ENDBRANCH  32  37
BRANCH  31  39
ATOM     39  O   UNL     1     -12.297  -0.687  -2.566  0.00  0.00    -0.491 OA
ATOM     40  C   UNL     1     -11.517  -1.845  -2.263  0.00  0.00    +0.277 C 
ENDBRANCH  31  39
ENDBRANCH   8  29
TORSDOF 8
