REMARK  Name = ZINC37384803
REMARK  10 active torsions:
REMARK  status: ('A' for Active; 'I' for Inactive)
REMARK    1  A    between atoms: C_1  and  C_2
REMARK    2  A    between atoms: C_2  and  O_3
REMARK    3  A    between atoms: O_3  and  C_4
REMARK    4  A    between atoms: C_6  and  C_26
REMARK    5  A    between atoms: N_7  and  C_9
REMARK    6  A    between atoms: C_13  and  N_15
REMARK    7  A    between atoms: N_15  and  S_16
REMARK    8  A    between atoms: S_16  and  C_19
REMARK    9  A    between atoms: C_22  and  C_25
REMARK   10  A    between atoms: C_29  and  C_32
REMARK                            x       y       z     vdW  Elec       q    Type
REMARK                         _______ _______ _______ _____ _____    ______ ____
ROOT
ATOM      1  C   UNL     1      -1.368  -2.057   0.627  0.00  0.00    +0.337 A 
ATOM      2  N   UNL     1      -1.212  -2.197  -0.690  0.00  0.00    -0.174 NA
ATOM      3  C   UNL     1      -1.590  -3.406  -1.057  0.00  0.00    +0.167 A 
ATOM      4  N   UNL     1      -2.003  -4.068   0.057  0.00  0.00    -0.209 N 
ATOM      5  N   UNL     1      -1.842  -3.173   1.127  0.00  0.00    -0.108 NA
ENDROOT
BRANCH   4   6
ATOM      6  C   UNL     1      -2.487  -5.380   0.124  0.00  0.00    +0.070 A 
ATOM      7  C   UNL     1      -1.841  -6.396  -0.571  0.00  0.00    +0.028 A 
ATOM      8  C   UNL     1      -2.318  -7.690  -0.506  0.00  0.00    +0.004 A 
ATOM      9  C   UNL     1      -3.438  -7.980   0.249  0.00  0.00    +0.024 A 
ATOM     10  C   UNL     1      -4.088  -6.970   0.947  0.00  0.00    +0.050 A 
ATOM     11  C   UNL     1      -3.608  -5.668   0.888  0.00  0.00    +0.052 A 
BRANCH  10  12
ATOM     12  N   UNL     1      -5.220  -7.263   1.710  0.00  0.00    -0.216 N 
ATOM     13  H   UNL     1      -6.001  -6.690   1.660  0.00  0.00    +0.174 HD
BRANCH  12  14
ATOM     14  S   UNL     1      -5.229  -8.590   2.701  0.00  0.00    +0.072 S 
ATOM     15  O   UNL     1      -6.492  -8.601   3.353  0.00  0.00    -0.150 OA
ATOM     16  O   UNL     1      -4.766  -9.683   1.921  0.00  0.00    -0.150 OA
BRANCH  14  17
ATOM     17  C   UNL     1      -4.019  -8.314   3.952  0.00  0.00    +0.109 A 
ATOM     18  C   UNL     1      -2.713  -8.721   3.752  0.00  0.00    +0.029 A 
ATOM     19  C   UNL     1      -1.764  -8.505   4.733  0.00  0.00    +0.005 A 
ATOM     20  C   UNL     1      -2.120  -7.881   5.914  0.00  0.00    -0.050 A 
ATOM     21  C   UNL     1      -3.426  -7.474   6.114  0.00  0.00    +0.005 A 
ATOM     22  C   UNL     1      -4.374  -7.686   5.131  0.00  0.00    +0.029 A 
ATOM     23  C   UNL     1      -1.085  -7.647   6.984  0.00  0.00    +0.044 C 
ENDBRANCH  14  17
ENDBRANCH  12  14
ENDBRANCH  10  12
ENDBRANCH   4   6
BRANCH   3  24
ATOM     24  C   UNL     1      -1.569  -3.945  -2.434  0.00  0.00    +0.019 A 
ATOM     25  C   UNL     1      -2.522  -4.881  -2.835  0.00  0.00    +0.012 A 
ATOM     26  C   UNL     1      -2.497  -5.380  -4.121  0.00  0.00    +0.013 A 
ATOM     27  C   UNL     1      -1.529  -4.954  -5.013  0.00  0.00    +0.055 A 
ATOM     28  C   UNL     1      -0.581  -4.026  -4.622  0.00  0.00    +0.013 A 
ATOM     29  C   UNL     1      -0.599  -3.514  -3.341  0.00  0.00    +0.012 A 
BRANCH  27  30
ATOM     30  C   UNL     1      -1.508  -5.503  -6.416  0.00  0.00    +0.417 C 
ATOM     31  F   UNL     1      -2.295  -4.696  -7.245  0.00  0.00    -0.166 F 
ATOM     32  F   UNL     1      -0.192  -5.516  -6.891  0.00  0.00    -0.166 F 
ATOM     33  F   UNL     1      -2.017  -6.806  -6.415  0.00  0.00    -0.166 F 
ENDBRANCH  27  30
ENDBRANCH   3  24
BRANCH   1  34
ATOM     34  O   UNL     1      -1.076  -0.938   1.339  0.00  0.00    -0.462 OA
BRANCH  34  36
ATOM     35  C   UNL     1      -0.298   1.339   1.572  0.00  0.00    +0.048 C 
ATOM     36  C   UNL     1      -0.566   0.180   0.609  0.00  0.00    +0.229 C 
ENDBRANCH  34  36
ENDBRANCH   1  34
TORSDOF 8
