REMARK  Name = ZINC39136454
REMARK  0 active torsions:
REMARK  status: ('A' for Active; 'I' for Inactive)
REMARK                            x       y       z     vdW  Elec       q    Type
REMARK                         _______ _______ _______ _____ _____    ______ ____
ROOT
ATOM      1  C   UNL     1      -0.017   1.404   0.010  0.00  0.00    -0.000 C 
ATOM      2  C   UNL     1       1.114   2.134   0.003  0.00  0.00    +0.022 C 
ATOM      3  C   UNL     1       2.413   1.380  -0.041  0.00  0.00    +0.229 C 
ATOM      4  C   UNL     1       2.356  -0.106   0.285  0.00  0.00    +0.025 C 
ATOM      5  C   UNL     1       3.628  -0.391   0.764  0.00  0.00    +0.112 C 
ATOM      6  C   UNL     1       4.235   0.854   1.111  0.00  0.00    +0.149 C 
ATOM      7  C   UNL     1       5.496   0.553   1.575  0.00  0.00    +0.067 C 
ATOM      8  C   UNL     1       5.620  -0.838   1.553  0.00  0.00    +0.115 C 
ATOM      9  N   UNL     1       4.506  -1.366   1.099  0.00  0.00    -0.251 NA
ATOM     10  O   UNL     1       3.369   1.897   0.879  0.00  0.00    -0.478 OA
ATOM     11  C   UNL     1       1.131  -0.742   0.158  0.00  0.00    +0.010 C 
ATOM     12  C   UNL     1       0.002  -0.004   0.002  0.00  0.00    +0.000 C 
ENDROOT
TORSDOF 0
