REMARK  Name = ZINC59048693
REMARK  10 active torsions:
REMARK  status: ('A' for Active; 'I' for Inactive)
REMARK    1  A    between atoms: C_1  and  C_2
REMARK    2  A    between atoms: C_2  and  C_3
REMARK    3  A    between atoms: C_3  and  C_4
REMARK    4  A    between atoms: C_4  and  S_5
REMARK    5  A    between atoms: S_5  and  C_6
REMARK    6  A    between atoms: C_11  and  N_12
REMARK    7  A    between atoms: C_13  and  C_15
REMARK    8  A    between atoms: C_15  and  S_16
REMARK    9  A    between atoms: S_16  and  C_17
REMARK   10  A    between atoms: N_22  and  N_23
REMARK                            x       y       z     vdW  Elec       q    Type
REMARK                         _______ _______ _______ _____ _____    ______ ____
ROOT
ATOM      1  N   UNL     1      -5.331  -4.710   0.027  0.00  0.00    -0.284 N 
ATOM      2  C   UNL     1      -6.368  -5.415   0.521  0.00  0.00    +0.227 C 
ATOM      3  O   UNL     1      -6.175  -6.497   1.036  0.00  0.00    -0.275 OA
ATOM      4  H   UNL     1      -5.473  -3.812  -0.311  0.00  0.00    +0.155 HD
ENDROOT
BRANCH   1  10
ATOM      5  C   UNL     1      -2.922  -4.451  -0.007  0.00  0.00    +0.029 A 
ATOM      6  C   UNL     1      -1.655  -5.016  -0.027  0.00  0.00    +0.016 A 
ATOM      7  C   UNL     1      -1.512  -6.391  -0.042  0.00  0.00    +0.001 A 
ATOM      8  C   UNL     1      -2.628  -7.206  -0.038  0.00  0.00    +0.002 A 
ATOM      9  C   UNL     1      -3.895  -6.652  -0.019  0.00  0.00    +0.024 A 
ATOM     10  C   UNL     1      -4.048  -5.274   0.002  0.00  0.00    +0.047 A 
BRANCH   5  11
ATOM     11  S   UNL     1      -3.108  -2.699   0.012  0.00  0.00    -0.123 S 
BRANCH  11  12
ATOM     12  C   UNL     1      -1.404  -2.076  -0.009  0.00  0.00    +0.074 C 
BRANCH  12  13
ATOM     13  C   UNL     1      -1.419  -0.547   0.006  0.00  0.00    +0.011 C 
BRANCH  13  15
ATOM     14  C   UNL     1       0.002   1.508   0.004  0.00  0.00    +0.004 C 
ATOM     15  C   UNL     1       0.018  -0.022  -0.011  0.00  0.00    -0.003 C 
ENDBRANCH  13  15
ENDBRANCH  12  13
ENDBRANCH  11  12
ENDBRANCH   5  11
ENDBRANCH   1  10
BRANCH   2  16
ATOM     16  C   UNL     1      -7.766  -4.860   0.435  0.00  0.00    +0.172 C 
BRANCH  16  17
ATOM     17  S   UNL     1      -8.930  -6.034   1.181  0.00  0.00    -0.088 S 
BRANCH  17  18
ATOM     18  C   UNL     1     -10.498  -5.251   1.004  0.00  0.00    +0.160 A 
ATOM     19  N   UNL     1     -10.795  -4.088   0.456  0.00  0.00    -0.133 NA
ATOM     20  N   UNL     1     -12.102  -3.661   0.422  0.00  0.00    -0.124 NA
ATOM     21  C   UNL     1     -13.053  -4.416   0.938  0.00  0.00    +0.196 A 
ATOM     22  S   UNL     1     -12.113  -5.823   1.511  0.00  0.00    -0.023 S 
ATOM     23  N   UNL     1     -14.421  -4.182   1.010  0.00  0.00    -0.260 N 
ATOM     24  H   UNL     1     -15.004  -4.838   1.424  0.00  0.00    +0.168 HD
BRANCH  23  25
ATOM     25  N   UNL     1     -14.945  -3.029   0.498  0.00  0.00    -0.255 NA
ATOM     26  H   UNL     1     -14.698  -2.920  -0.474  0.00  0.00    +0.140 HD
ATOM     27  H   UNL     1     -15.945  -3.000   0.623  0.00  0.00    +0.140 HD
ENDBRANCH  23  25
ENDBRANCH  17  18
ENDBRANCH  16  17
ENDBRANCH   2  16
TORSDOF 9
