REMARK  Name = ZINC08583581
REMARK  8 active torsions:
REMARK  status: ('A' for Active; 'I' for Inactive)
REMARK    1  A    between atoms: C_1  and  C_2
REMARK    2  A    between atoms: C_3  and  N_9
REMARK    3  A    between atoms: C_13  and  C_32
REMARK    4  A    between atoms: C_19  and  S_20
REMARK    5  A    between atoms: S_20  and  C_21
REMARK    6  A    between atoms: C_21  and  C_22
REMARK    7  A    between atoms: N_24  and  C_25
REMARK    8  A    between atoms: C_25  and  C_26
REMARK                            x       y       z     vdW  Elec       q    Type
REMARK                         _______ _______ _______ _____ _____    ______ ____
ROOT
ATOM      1  N   UNL     1      -0.010   0.012  -2.414  0.00  0.00    -0.274 N 
ATOM      2  C   UNL     1       1.188   0.382  -3.039  0.00  0.00    +0.124 A 
ATOM      3  N   UNL     1       2.306  -0.291  -2.921  0.00  0.00    -0.384 N 
ATOM      4  C   UNL     1       1.056   1.611  -3.843  0.00  0.00    +0.082 A 
ATOM      5  C   UNL     1       1.978   2.516  -4.355  0.00  0.00    +0.072 A 
ATOM      6  N   UNL     1       1.320   3.441  -5.011  0.00  0.00    -0.177 NA
ATOM      7  N   UNL     1      -0.057   3.170  -4.948  0.00  0.00    -0.260 N 
ATOM      8  H   UNL     1      -0.760   3.701  -5.354  0.00  0.00    +0.191 HD
ATOM      9  C   UNL     1      -0.233   2.045  -4.227  0.00  0.00    +0.162 A 
ATOM     10  N   UNL     1      -1.326   1.357  -3.855  0.00  0.00    -0.204 NA
ATOM     11  C   UNL     1      -1.199   0.347  -3.012  0.00  0.00    +0.177 A 
ATOM     12  C   UNL     1       3.474   2.447  -4.187  0.00  0.00    +0.068 C 
ATOM     13  H   UNL     1       2.334  -1.095  -2.378  0.00  0.00    +0.157 HD
ATOM     14  H   UNL     1       3.106   0.013  -3.378  0.00  0.00    +0.157 HD
ENDROOT
BRANCH   1  17
ATOM     15  C   UNL     1      -0.018   1.503   0.010  0.00  0.00    +0.047 C 
ATOM     16  C   UNL     1       0.002  -0.004   0.002  0.00  0.00    -0.008 A 
ATOM     17  C   UNL     1       0.006  -0.693  -1.204  0.00  0.00    +0.055 A 
ATOM     18  C   UNL     1       0.025  -2.081  -1.208  0.00  0.00    +0.026 A 
ATOM     19  C   UNL     1       0.040  -2.774  -0.012  0.00  0.00    +0.003 A 
ATOM     20  C   UNL     1       0.036  -2.087   1.187  0.00  0.00    +0.020 A 
ATOM     21  C   UNL     1       0.023  -0.702   1.195  0.00  0.00    +0.046 A 
ATOM     22 CL   UNL     1       0.025   0.157   2.703  0.00  0.00    -0.083 Cl
ENDBRANCH   1  17
BRANCH  11  23
ATOM     23  S   UNL     1      -2.626  -0.613  -2.629  0.00  0.00    -0.078 S 
BRANCH  23  24
ATOM     24  C   UNL     1      -3.946   0.153  -3.611  0.00  0.00    +0.173 C 
BRANCH  24  25
ATOM     25  C   UNL     1      -5.240  -0.582  -3.373  0.00  0.00    +0.224 C 
ATOM     26  O   UNL     1      -5.269  -1.530  -2.616  0.00  0.00    -0.275 OA
ATOM     27  N   UNL     1      -6.365  -0.187  -4.002  0.00  0.00    -0.311 N 
ATOM     28  H   UNL     1      -6.341   0.570  -4.607  0.00  0.00    +0.149 HD
BRANCH  27  29
ATOM     29  C   UNL     1      -7.622  -0.902  -3.770  0.00  0.00    +0.139 C 
BRANCH  29  30
ATOM     30  C   UNL     1      -8.719  -0.266  -4.586  0.00  0.00    -0.030 A 
ATOM     31  C   UNL     1      -9.468   0.765  -4.051  0.00  0.00    +0.005 A 
ATOM     32  C   UNL     1     -10.474   1.349  -4.799  0.00  0.00    +0.000 A 
ATOM     33  C   UNL     1     -10.730   0.902  -6.082  0.00  0.00    +0.000 A 
ATOM     34  C   UNL     1      -9.979  -0.129  -6.617  0.00  0.00    +0.000 A 
ATOM     35  C   UNL     1      -8.971  -0.709  -5.870  0.00  0.00    +0.005 A 
ENDBRANCH  29  30
ENDBRANCH  27  29
ENDBRANCH  24  25
ENDBRANCH  23  24
ENDBRANCH  11  23
TORSDOF 6
