REMARK  Name = ZINC39695737
REMARK  6 active torsions:
REMARK  status: ('A' for Active; 'I' for Inactive)
REMARK    1  A    between atoms: C_1  and  C_2
REMARK    2  A    between atoms: C_10  and  C_12
REMARK    3  A    between atoms: C_12  and  C_13
REMARK    4  A    between atoms: C_12  and  N_14
REMARK    5  A    between atoms: C_15  and  C_17
REMARK    6  A    between atoms: C_27  and  C_29
REMARK                            x       y       z     vdW  Elec       q    Type
REMARK                         _______ _______ _______ _____ _____    ______ ____
ROOT
ATOM      1  C   UNL     1      -2.016  -8.397   1.351  0.00  0.00    +0.100 C 
ATOM      2  C   UNL     1      -3.183  -8.039   0.404  0.00  0.00    +0.121 C 
ATOM      3  N   UNL     1      -4.025  -9.258   0.371  0.00  0.00    -0.296 N 
ATOM      4  C   UNL     1      -4.011  -9.754   1.768  0.00  0.00    +0.115 C 
ATOM      5  C   UNL     1      -2.566  -9.521   2.245  0.00  0.00    -0.004 C 
ATOM      6  C   UNL     1      -2.559  -9.085   3.707  0.00  0.00    -0.010 C 
ATOM      7  C   UNL     1      -3.055 -10.239   4.582  0.00  0.00    -0.082 C 
ATOM      8  N   UNL     1      -2.186 -11.407   4.394  0.00  0.00    +0.379 N 
ATOM      9  C   UNL     1      -2.271 -11.877   3.006  0.00  0.00    -0.082 C 
ATOM     10  C   UNL     1      -1.741 -10.791   2.065  0.00  0.00    -0.010 C 
ATOM     11  C   UNL     1      -4.660  -9.794  -0.690  0.00  0.00    +0.247 C 
ATOM     12  O   UNL     1      -4.486  -9.332  -1.800  0.00  0.00    -0.270 OA
ATOM     13  H   UNL     1      -1.232 -11.152   4.604  0.00  0.00    -0.086 HD
ATOM     14  H   UNL     1      -2.478 -12.146   5.016  0.00  0.00    -0.086 HD
ENDROOT
BRANCH  11  15
ATOM     15  C   UNL     1      -5.569 -10.945  -0.502  0.00  0.00    +0.040 A 
ATOM     16  C   UNL     1      -6.127 -11.201   0.751  0.00  0.00    +0.033 A 
ATOM     17  C   UNL     1      -6.975 -12.278   0.920  0.00  0.00    +0.043 A 
ATOM     18  C   UNL     1      -7.272 -13.102  -0.151  0.00  0.00    +0.040 A 
ATOM     19  C   UNL     1      -6.722 -12.854  -1.397  0.00  0.00    +0.043 A 
ATOM     20  C   UNL     1      -5.878 -11.777  -1.580  0.00  0.00    +0.033 A 
ATOM     21 CL   UNL     1      -7.101 -13.895  -2.734  0.00  0.00    -0.083 Cl
ATOM     22 CL   UNL     1      -7.669 -12.598   2.479  0.00  0.00    -0.083 Cl
ENDBRANCH  11  15
BRANCH   1  24
ATOM     23  N   UNL     1      -0.367  -7.067   2.629  0.00  0.00    -0.305 N 
ATOM     24  C   UNL     1      -1.633  -7.202   2.186  0.00  0.00    +0.219 C 
ATOM     25  O   UNL     1      -2.463  -6.362   2.460  0.00  0.00    -0.275 OA
ATOM     26  H   UNL     1       0.298  -7.739   2.410  0.00  0.00    +0.149 HD
BRANCH  23  27
ATOM     27  C   UNL     1       0.006  -5.906   3.441  0.00  0.00    +0.136 C 
ATOM     28  C   UNL     1      -0.323  -6.184   4.909  0.00  0.00    +0.036 C 
BRANCH  27  38
ATOM     29  C   UNL     1       6.989  -3.362   3.055  0.00  0.00    +0.044 C 
ATOM     30  C   UNL     1       5.790  -4.274   3.015  0.00  0.00    -0.048 A 
ATOM     31  C   UNL     1       5.954  -5.614   2.694  0.00  0.00    +0.005 A 
ATOM     32  C   UNL     1       4.880  -6.457   2.653  0.00  0.00    +0.030 A 
ATOM     33  C   UNL     1       3.601  -5.971   2.936  0.00  0.00    +0.089 A 
ATOM     34  C   UNL     1       3.434  -4.614   3.261  0.00  0.00    +0.067 A 
ATOM     35  C   UNL     1       4.538  -3.773   3.303  0.00  0.00    +0.031 A 
ATOM     36  N   UNL     1       2.083  -4.439   3.484  0.00  0.00    -0.340 N 
ATOM     37  H   UNL     1       1.644  -3.610   3.729  0.00  0.00    +0.167 HD
ATOM     38  C   UNL     1       1.483  -5.646   3.297  0.00  0.00    +0.128 A 
ATOM     39  N   UNL     1       2.370  -6.542   2.976  0.00  0.00    -0.231 NA
ENDBRANCH  27  38
ENDBRANCH  23  27
ENDBRANCH   1  24
TORSDOF 4
