REMARK  Name = ZINC03771359
REMARK  12 active torsions:
REMARK  status: ('A' for Active; 'I' for Inactive)
REMARK    1  A    between atoms: C_1  and  C_2
REMARK    2  A    between atoms: C_7  and  C_8
REMARK    3  A    between atoms: C_8  and  N_9
REMARK    4  A    between atoms: N_9  and  C_10
REMARK    5  A    between atoms: C_10  and  C_12
REMARK    6  A    between atoms: C_10  and  C_22
REMARK    7  A    between atoms: N_24  and  C_25
REMARK    8  A    between atoms: C_28  and  N_31
REMARK    9  A    between atoms: N_31  and  C_32
REMARK   10  A    between atoms: N_31  and  C_33
REMARK   11  A    between atoms: C_34  and  C_36
REMARK   12  A    between atoms: C_36  and  N_37
REMARK                            x       y       z     vdW  Elec       q    Type
REMARK                         _______ _______ _______ _____ _____    ______ ____
ROOT
ATOM      1  C   UNL     1       6.457   3.370  -2.311  0.00  0.00    +0.195 C 
ENDROOT
BRANCH   1   2
ATOM      2  C   UNL     1       6.629   2.304  -3.362  0.00  0.00    +0.007 A 
ATOM      3  C   UNL     1       7.079   1.054  -3.166  0.00  0.00    +0.089 A 
ATOM      4  N   UNL     1       7.098   0.374  -4.352  0.00  0.00    -0.360 N 
ATOM      5  H   UNL     1       7.384  -0.547  -4.462  0.00  0.00    +0.165 HD
ATOM      6  C   UNL     1       6.650   1.189  -5.367  0.00  0.00    +0.047 A 
ATOM      7  C   UNL     1       6.330   2.432  -4.791  0.00  0.00    +0.005 A 
ATOM      8  C   UNL     1       5.840   3.466  -5.590  0.00  0.00    +0.010 A 
ATOM      9  C   UNL     1       5.669   3.263  -6.931  0.00  0.00    +0.001 A 
ATOM     10  C   UNL     1       5.979   2.038  -7.504  0.00  0.00    +0.002 A 
ATOM     11  C   UNL     1       6.471   1.006  -6.734  0.00  0.00    +0.026 A 
ENDBRANCH   1   2
BRANCH   1  12
ATOM     12  C   UNL     1       7.501   4.439  -2.505  0.00  0.00    +0.242 C 
ATOM     13  O   UNL     1       7.875   5.101  -1.559  0.00  0.00    -0.273 OA
ATOM     14  N   UNL     1       8.021   4.660  -3.729  0.00  0.00    -0.284 N 
ATOM     15  H   UNL     1       7.682   4.171  -4.495  0.00  0.00    +0.155 HD
BRANCH  14  16
ATOM     16  C   UNL     1       9.051   5.596  -3.894  0.00  0.00    +0.034 A 
ATOM     17  C   UNL     1       9.106   6.719  -3.080  0.00  0.00    +0.025 A 
ATOM     18  C   UNL     1      10.124   7.638  -3.240  0.00  0.00    +0.025 A 
ATOM     19  C   UNL     1      11.087   7.445  -4.222  0.00  0.00    +0.029 A 
ATOM     20  C   UNL     1      11.028   6.324  -5.040  0.00  0.00    +0.025 A 
ATOM     21  C   UNL     1      10.013   5.402  -4.877  0.00  0.00    +0.025 A 
BRANCH  19  22
ATOM     22  N   UNL     1      12.115   8.378  -4.386  0.00  0.00    -0.336 N 
ATOM     23  C   UNL     1      13.131   8.174  -5.422  0.00  0.00    +0.129 C 
ATOM     24  C   UNL     1      12.177   9.560  -3.523  0.00  0.00    +0.129 C 
ENDBRANCH  19  22
ENDBRANCH  14  16
ENDBRANCH   1  12
BRANCH   1  25
ATOM     25  N   UNL     1       6.609   2.775  -0.982  0.00  0.00    -0.280 N 
ATOM     26  C   UNL     1       5.575   2.784  -0.117  0.00  0.00    +0.235 C 
ATOM     27  O   UNL     1       4.512   3.266  -0.448  0.00  0.00    -0.274 OA
BRANCH  25  28
ATOM     28  C   UNL     1       7.884   2.168  -0.592  0.00  0.00    +0.144 C 
BRANCH  28  35
ATOM     29  C   UNL     1       8.866   4.125   1.294  0.00  0.00    +0.044 C 
ATOM     30  C   UNL     1       9.485   4.022  -0.076  0.00  0.00    -0.046 A 
ATOM     31  C   UNL     1      10.523   4.864  -0.431  0.00  0.00    +0.003 A 
ATOM     32  C   UNL     1      11.091   4.769  -1.687  0.00  0.00    +0.000 A 
ATOM     33  C   UNL     1      10.621   3.833  -2.589  0.00  0.00    +0.000 A 
ATOM     34  C   UNL     1       9.587   2.988  -2.233  0.00  0.00    +0.005 A 
ATOM     35  C   UNL     1       9.015   3.086  -0.978  0.00  0.00    -0.027 A 
ENDBRANCH  28  35
ENDBRANCH  25  28
BRANCH  26  36
ATOM     36  C   UNL     1       5.740   2.196   1.261  0.00  0.00    +0.210 C 
BRANCH  36  37
ATOM     37  N   UNL     1       4.504   2.387   2.024  0.00  0.00    -0.255 N 
ATOM     38  C   UNL     1       3.448   1.478   2.049  0.00  0.00    +0.048 A 
ATOM     39  C   UNL     1       3.279   0.251   1.421  0.00  0.00    +0.024 A 
ATOM     40  C   UNL     1       2.116  -0.472   1.610  0.00  0.00    +0.002 A 
ATOM     41  C   UNL     1       1.105   0.015   2.421  0.00  0.00    +0.001 A 
ATOM     42  C   UNL     1       1.255   1.230   3.059  0.00  0.00    +0.014 A 
ATOM     43  C   UNL     1       2.424   1.968   2.875  0.00  0.00    +0.048 A 
ATOM     44  C   UNL     1       2.885   3.269   3.393  0.00  0.00    +0.250 C 
ATOM     45  O   UNL     1       2.295   4.019   4.143  0.00  0.00    -0.282 OA
ATOM     46  C   UNL     1       4.245   3.462   2.789  0.00  0.00    +0.292 C 
ATOM     47  O   UNL     1       4.977   4.413   2.961  0.00  0.00    -0.266 OA
ENDBRANCH  36  37
ENDBRANCH  26  36
ENDBRANCH   1  25
TORSDOF 9
