REMARK  Name = ZINC08478798
REMARK  6 active torsions:
REMARK  status: ('A' for Active; 'I' for Inactive)
REMARK    1  A    between atoms: C_1  and  C_2
REMARK    2  A    between atoms: C_2  and  O_3
REMARK    3  A    between atoms: O_3  and  C_4
REMARK    4  A    between atoms: C_7  and  C_12
REMARK    5  A    between atoms: C_9  and  O_10
REMARK    6  A    between atoms: O_10  and  C_11
REMARK                            x       y       z     vdW  Elec       q    Type
REMARK                         _______ _______ _______ _____ _____    ______ ____
ROOT
ATOM      1  C   UNL     1       1.142  -6.064   1.761  0.00  0.00    +0.090 C 
ATOM      2  C   UNL     1      -0.232  -6.660   1.844  0.00  0.00    +0.042 A 
ATOM      3  C   UNL     1      -0.970  -6.572   3.034  0.00  0.00    +0.126 A 
ATOM      4  N   UNL     1      -2.187  -7.102   3.094  0.00  0.00    -0.208 NA
ATOM      5  C   UNL     1      -2.720  -7.715   2.041  0.00  0.00    +0.180 A 
ATOM      6  S   UNL     1      -4.292  -8.381   2.163  0.00  0.00    -0.011 S 
ATOM      7  N   UNL     1      -2.044  -7.821   0.881  0.00  0.00    -0.322 N 
ATOM      8  C   UNL     1      -0.786  -7.295   0.771  0.00  0.00    +0.110 A 
ATOM      9  N   UNL     1      -0.085  -7.405  -0.404  0.00  0.00    -0.304 N 
ATOM     10  C   UNL     1       1.276  -7.252  -0.422  0.00  0.00    +0.017 C 
ATOM     11  C   UNL     1       1.910  -6.625   0.591  0.00  0.00    +0.024 C 
ATOM     12  C   UNL     1       3.308  -6.478   0.586  0.00  0.00    +0.162 C 
ATOM     13  O   UNL     1       3.850  -5.904   1.510  0.00  0.00    -0.292 OA
ATOM     14  C   UNL     1       4.147  -7.019  -0.539  0.00  0.00    +0.080 C 
ATOM     15  C   UNL     1       3.436  -8.229  -1.154  0.00  0.00    +0.014 C 
ATOM     16  C   UNL     1       2.042  -7.795  -1.602  0.00  0.00    +0.051 C 
ATOM     17  N   UNL     1      -0.434  -5.939   4.136  0.00  0.00    -0.343 N 
ATOM     18  H   UNL     1      -0.557  -7.594  -1.230  0.00  0.00    +0.153 HD
ATOM     19  H   UNL     1      -0.947  -5.880   4.958  0.00  0.00    +0.144 HD
ATOM     20  H   UNL     1       0.454  -5.554   4.090  0.00  0.00    +0.144 HD
ATOM     21  H   UNL     1      -2.450  -8.271   0.124  0.00  0.00    +0.169 HD
ENDROOT
BRANCH   1  25
ATOM     22  C   UNL     1       0.802  -1.825   1.306  0.00  0.00    +0.162 A 
ATOM     23  C   UNL     1       0.261  -2.673   0.353  0.00  0.00    +0.050 A 
ATOM     24  C   UNL     1       0.372  -4.043   0.502  0.00  0.00    +0.008 A 
ATOM     25  C   UNL     1       1.024  -4.570   1.602  0.00  0.00    -0.032 A 
ATOM     26  C   UNL     1       1.566  -3.730   2.557  0.00  0.00    +0.054 A 
ATOM     27  C   UNL     1       1.462  -2.356   2.410  0.00  0.00    +0.162 A 
BRANCH  27  28
ATOM     28  O   UNL     1       2.000  -1.528   3.345  0.00  0.00    -0.491 OA
ATOM     29  C   UNL     1       2.664  -2.143   4.451  0.00  0.00    +0.277 C 
ENDBRANCH  27  28
BRANCH  22  30
ATOM     30  O   UNL     1       0.693  -0.477   1.160  0.00  0.00    -0.489 OA
BRANCH  30  32
ATOM     31  C   UNL     1      -0.019   1.526   0.010  0.00  0.00    +0.048 C 
ATOM     32  C   UNL     1       0.002  -0.004   0.002  0.00  0.00    +0.226 C 
ENDBRANCH  30  32
ENDBRANCH  22  30
ENDBRANCH   1  25
TORSDOF 4
