REMARK  Name = ZINC09634024
REMARK  9 active torsions:
REMARK  status: ('A' for Active; 'I' for Inactive)
REMARK    1  A    between atoms: C_1  and  C_2
REMARK    2  A    between atoms: C_6  and  C_8
REMARK    3  A    between atoms: C_11  and  S_19
REMARK    4  A    between atoms: N_12  and  C_13
REMARK    5  A    between atoms: C_13  and  C_14
REMARK    6  A    between atoms: S_19  and  C_20
REMARK    7  A    between atoms: C_20  and  C_21
REMARK    8  A    between atoms: N_27  and  C_28
REMARK    9  A    between atoms: C_33  and  C_34
REMARK                            x       y       z     vdW  Elec       q    Type
REMARK                         _______ _______ _______ _____ _____    ______ ____
ROOT
ATOM      1  S   UNL     1      -1.667   8.858  -0.313  0.00  0.00    -0.078 S 
ENDROOT
BRANCH   1   5
ATOM      2  C   UNL     1      -0.152   5.279   0.082  0.00  0.00    +0.165 A 
ATOM      3  N   UNL     1       0.874   6.056   0.343  0.00  0.00    -0.128 NA
ATOM      4  N   UNL     1       0.525   7.289   0.245  0.00  0.00    -0.122 NA
ATOM      5  C   UNL     1      -0.746   7.375  -0.076  0.00  0.00    +0.193 A 
ATOM      6  N   UNL     1      -1.222   6.100  -0.191  0.00  0.00    -0.295 N 
BRANCH   2  12
ATOM      7  C   UNL     1       2.325   0.952  -0.130  0.00  0.00    +0.044 C 
ATOM      8  C   UNL     1       1.030   1.715  -0.015  0.00  0.00    -0.050 A 
ATOM      9  C   UNL     1      -0.167   1.031   0.094  0.00  0.00    +0.003 A 
ATOM     10  C   UNL     1      -1.360   1.724   0.194  0.00  0.00    +0.001 A 
ATOM     11  C   UNL     1      -1.362   3.104   0.197  0.00  0.00    +0.011 A 
ATOM     12  C   UNL     1      -0.157   3.800   0.086  0.00  0.00    +0.020 A 
ATOM     13  C   UNL     1       1.043   3.095  -0.020  0.00  0.00    +0.015 A 
ENDBRANCH   2  12
BRANCH   6  14
ATOM     14  C   UNL     1      -2.586   5.691  -0.532  0.00  0.00    +0.200 C 
BRANCH  14  15
ATOM     15  C   UNL     1      -3.438   5.697   0.711  0.00  0.00    +0.125 A 
ATOM     16  C   UNL     1      -4.144   6.744   1.175  0.00  0.00    +0.046 A 
ATOM     17  C   UNL     1      -4.793   6.309   2.354  0.00  0.00    +0.041 A 
ATOM     18  C   UNL     1      -4.438   5.026   2.544  0.00  0.00    +0.195 A 
ATOM     19  O   UNL     1      -3.618   4.660   1.545  0.00  0.00    -0.466 OA
ENDBRANCH  14  15
ENDBRANCH   6  14
ENDBRANCH   1   5
BRANCH   1  20
ATOM     20  C   UNL     1      -0.374  10.085   0.008  0.00  0.00    +0.153 C 
BRANCH  20  21
ATOM     21  C   UNL     1      -0.948  11.470  -0.142  0.00  0.00    +0.146 A 
ATOM     22  N   UNL     1      -1.479  12.080   0.903  0.00  0.00    -0.199 NA
ATOM     23  C   UNL     1      -1.987  13.304   0.775  0.00  0.00    +0.217 A 
ATOM     24  N   UNL     1      -1.959  13.912  -0.406  0.00  0.00    -0.181 NA
ATOM     25  C   UNL     1      -1.425  13.295  -1.454  0.00  0.00    +0.224 A 
ATOM     26  N   UNL     1      -0.914  12.074  -1.317  0.00  0.00    -0.198 NA
ATOM     27  N   UNL     1      -1.395  13.923  -2.684  0.00  0.00    -0.283 N 
ATOM     28  N   UNL     1      -2.541  13.940   1.867  0.00  0.00    -0.327 N 
ATOM     29  H   UNL     1      -1.064  13.449  -3.463  0.00  0.00    +0.155 HD
ATOM     30  H   UNL     1      -2.561  13.495   2.729  0.00  0.00    +0.145 HD
ATOM     31  H   UNL     1      -2.911  14.832   1.773  0.00  0.00    +0.145 HD
BRANCH  27  32
ATOM     32  C   UNL     1      -1.841  15.243  -2.807  0.00  0.00    +0.036 A 
ATOM     33  C   UNL     1      -2.903  15.693  -2.033  0.00  0.00    +0.023 A 
ATOM     34  C   UNL     1      -3.339  16.998  -2.154  0.00  0.00    +0.002 A 
ATOM     35  C   UNL     1      -2.725  17.854  -3.050  0.00  0.00    +0.000 A 
ATOM     36  C   UNL     1      -1.670  17.407  -3.825  0.00  0.00    +0.005 A 
ATOM     37  C   UNL     1      -1.227  16.105  -3.706  0.00  0.00    -0.029 A 
ATOM     38  C   UNL     1      -0.078  15.619  -4.552  0.00  0.00    +0.045 C 
ENDBRANCH  27  32
ENDBRANCH  20  21
ENDBRANCH   1  20
TORSDOF 7
