REMARK  Name = ZINC03265214
REMARK  10 active torsions:
REMARK  status: ('A' for Active; 'I' for Inactive)
REMARK    1  A    between atoms: C_3  and  S_21
REMARK    2  A    between atoms: C_6  and  N_7
REMARK    3  A    between atoms: N_7  and  C_8
REMARK    4  A    between atoms: C_8  and  N_10
REMARK    5  A    between atoms: N_10  and  C_11
REMARK    6  A    between atoms: C_11  and  C_12
REMARK    7  A    between atoms: C_12  and  C_13
REMARK    8  A    between atoms: C_16  and  O_20
REMARK    9  A    between atoms: C_17  and  O_19
REMARK   10  A    between atoms: S_21  and  C_22
REMARK                            x       y       z     vdW  Elec       q    Type
REMARK                         _______ _______ _______ _____ _____    ______ ____
ROOT
ATOM      1  C   UNL     1      -0.295   1.750  -3.703  0.00  0.00    +0.135 C 
ATOM      2  S   UNL     1      -1.373   3.063  -3.918  0.00  0.00    -0.019 S 
ENDROOT
BRANCH   1   3
ATOM      3  N   UNL     1       0.087   1.011  -4.764  0.00  0.00    -0.297 N 
ATOM      4  H   UNL     1       0.745   0.307  -4.652  0.00  0.00    +0.154 HD
BRANCH   3  10
ATOM      5  C   UNL     1      -0.893   0.203  -6.819  0.00  0.00    +0.024 A 
ATOM      6  C   UNL     1      -1.442   0.449  -8.061  0.00  0.00    +0.017 A 
ATOM      7  C   UNL     1      -1.556   1.754  -8.524  0.00  0.00    +0.013 A 
ATOM      8  C   UNL     1      -1.122   2.812  -7.735  0.00  0.00    +0.017 A 
ATOM      9  C   UNL     1      -0.578   2.565  -6.490  0.00  0.00    +0.024 A 
ATOM     10  C   UNL     1      -0.465   1.261  -6.027  0.00  0.00    +0.033 A 
BRANCH   7  11
ATOM     11  S   UNL     1      -2.251   2.068 -10.113  0.00  0.00    -0.056 S 
BRANCH  11  12
ATOM     12  C   UNL     1      -2.658   0.418 -10.748  0.00  0.00    +0.404 C 
ATOM     13  F   UNL     1      -1.493  -0.353 -10.825  0.00  0.00    -0.197 F 
ATOM     14  F   UNL     1      -3.570  -0.201  -9.886  0.00  0.00    -0.197 F 
ENDBRANCH  11  12
ENDBRANCH   7  11
ENDBRANCH   3  10
ENDBRANCH   1   3
BRANCH   1  15
ATOM     15  N   UNL     1       0.171   1.456  -2.473  0.00  0.00    -0.326 N 
ATOM     16  H   UNL     1       0.782   0.712  -2.351  0.00  0.00    +0.148 HD
BRANCH  15  17
ATOM     17  C   UNL     1      -0.245   2.259  -1.321  0.00  0.00    +0.108 C 
BRANCH  17  18
ATOM     18  C   UNL     1       0.423   1.718  -0.055  0.00  0.00    +0.054 C 
BRANCH  18  19
ATOM     19  C   UNL     1      -0.004   2.544   1.131  0.00  0.00    -0.042 A 
ATOM     20  C   UNL     1       0.733   3.654   1.500  0.00  0.00    +0.007 A 
ATOM     21  C   UNL     1       0.342   4.418   2.584  0.00  0.00    +0.049 A 
ATOM     22  C   UNL     1      -0.785   4.066   3.309  0.00  0.00    +0.158 A 
ATOM     23  C   UNL     1      -1.525   2.946   2.940  0.00  0.00    +0.158 A 
ATOM     24  C   UNL     1      -1.130   2.188   1.850  0.00  0.00    +0.052 A 
BRANCH  23  25
ATOM     25  O   UNL     1      -2.632   2.597   3.648  0.00  0.00    -0.503 OA
ATOM     26  H   UNL     1      -2.455   1.994   4.383  0.00  0.00    +0.292 HD
ENDBRANCH  23  25
BRANCH  22  27
ATOM     27  O   UNL     1      -1.169   4.814   4.378  0.00  0.00    -0.503 OA
ATOM     28  H   UNL     1      -0.782   4.528   5.217  0.00  0.00    +0.292 HD
ENDBRANCH  22  27
ENDBRANCH  18  19
ENDBRANCH  17  18
ENDBRANCH  15  17
ENDBRANCH   1  15
TORSDOF 10
