REMARK  Name = ZINC27575421
REMARK  10 active torsions:
REMARK  status: ('A' for Active; 'I' for Inactive)
REMARK    1  A    between atoms: C_1  and  C_2
REMARK    2  A    between atoms: N_5  and  C_8
REMARK    3  A    between atoms: C_8  and  C_10
REMARK    4  A    between atoms: C_8  and  C_27
REMARK    5  A    between atoms: C_10  and  N_11
REMARK    6  A    between atoms: C_12  and  C_14
REMARK    7  A    between atoms: C_14  and  C_15
REMARK    8  A    between atoms: C_15  and  C_16
REMARK    9  A    between atoms: C_16  and  N_17
REMARK   10  A    between atoms: N_20  and  C_21
REMARK                            x       y       z     vdW  Elec       q    Type
REMARK                         _______ _______ _______ _____ _____    ______ ____
ROOT
ATOM      1  N   UNL     1       1.268  -3.958   2.801  0.00  0.00    -0.317 N 
ATOM      2  C   UNL     1       2.081  -4.383   3.788  0.00  0.00    +0.213 C 
ATOM      3  O   UNL     1       1.692  -5.216   4.578  0.00  0.00    -0.276 OA
ATOM      4  H   UNL     1       1.579  -3.292   2.168  0.00  0.00    +0.149 HD
ENDROOT
BRANCH   1   5
ATOM      5  C   UNL     1      -0.087  -4.502   2.683  0.00  0.00    +0.094 C 
BRANCH   5   6
ATOM      6  C   UNL     1      -0.752  -3.947   1.422  0.00  0.00    -0.013 C 
BRANCH   6  11
ATOM      7  C   UNL     1       1.646  -5.588  -3.486  0.00  0.00    +0.007 C 
ATOM      8  C   UNL     1       0.659  -5.381  -2.335  0.00  0.00    -0.018 C 
ATOM      9  C   UNL     1       0.391  -3.885  -2.152  0.00  0.00    -0.015 C 
ATOM     10  C   UNL     1      -0.534  -3.680  -0.950  0.00  0.00    -0.078 C 
ATOM     11  N   UNL     1       0.104  -4.215   0.258  0.00  0.00    +0.386 N 
ATOM     12  C   UNL     1       0.299  -5.664   0.119  0.00  0.00    -0.078 C 
ATOM     13  C   UNL     1       1.255  -5.944  -1.042  0.00  0.00    -0.015 C 
ATOM     14  H   UNL     1       0.999  -3.768   0.392  0.00  0.00    -0.081 HD
ENDBRANCH   6  11
BRANCH   6  15
ATOM     15  C   UNL     1      -0.948  -2.461   1.569  0.00  0.00    -0.022 A 
ATOM     16  C   UNL     1      -2.067  -1.777   1.912  0.00  0.00    +0.009 A 
ATOM     17  C   UNL     1      -2.013  -0.398   1.987  0.00  0.00    +0.008 A 
ATOM     18  C   UNL     1      -0.843   0.230   1.716  0.00  0.00    +0.045 A 
ATOM     19  S   UNL     1       0.236  -1.143   1.346  0.00  0.00    -0.103 S 
ENDBRANCH   6  15
ENDBRANCH   5   6
ENDBRANCH   1   5
BRANCH   2  20
ATOM     20  C   UNL     1       3.475  -3.823   3.909  0.00  0.00    +0.097 C 
BRANCH  20  21
ATOM     21  C   UNL     1       4.182  -4.468   5.102  0.00  0.00    +0.028 C 
BRANCH  21  22
ATOM     22  C   UNL     1       5.597  -3.899   5.225  0.00  0.00    +0.106 C 
BRANCH  22  23
ATOM     23  N   UNL     1       6.274  -4.517   6.368  0.00  0.00    -0.299 N 
ATOM     24  C   UNL     1       7.540  -4.167   6.672  0.00  0.00    +0.300 C 
ATOM     25  O   UNL     1       8.120  -3.339   5.997  0.00  0.00    -0.253 OA
ATOM     26  N   UNL     1       8.162  -4.735   7.723  0.00  0.00    -0.297 N 
ATOM     27  H   UNL     1       5.811  -5.178   6.907  0.00  0.00    +0.150 HD
ATOM     28  H   UNL     1       7.699  -5.396   8.262  0.00  0.00    +0.151 HD
BRANCH  26  29
ATOM     29  C   UNL     1       9.538  -4.355   8.053  0.00  0.00    +0.074 C 
ATOM     30  C   UNL     1      10.512  -5.186   7.215  0.00  0.00    +0.022 C 
ATOM     31  C   UNL     1      11.949  -4.788   7.559  0.00  0.00    +0.002 C 
ATOM     32  C   UNL     1      12.207  -5.046   9.045  0.00  0.00    +0.000 C 
ATOM     33  C   UNL     1      11.233  -4.215   9.883  0.00  0.00    +0.002 C 
ATOM     34  C   UNL     1       9.796  -4.612   9.539  0.00  0.00    +0.022 C 
ENDBRANCH  26  29
ENDBRANCH  22  23
ENDBRANCH  21  22
ENDBRANCH  20  21
ENDBRANCH   2  20
TORSDOF 9
