REMARK  Name = ZINC02388102
REMARK  10 active torsions:
REMARK  status: ('A' for Active; 'I' for Inactive)
REMARK    1  A    between atoms: C_1  and  C_2
REMARK    2  A    between atoms: C_2  and  N_3
REMARK    3  A    between atoms: C_7  and  C_35
REMARK    4  A    between atoms: C_8  and  C_34
REMARK    5  A    between atoms: C_12  and  S_13
REMARK    6  A    between atoms: S_13  and  C_14
REMARK    7  A    between atoms: C_14  and  C_15
REMARK    8  A    between atoms: N_17  and  C_18
REMARK    9  A    between atoms: C_21  and  C_24
REMARK   10  A    between atoms: C_29  and  C_33
REMARK                            x       y       z     vdW  Elec       q    Type
REMARK                         _______ _______ _______ _____ _____    ______ ____
ROOT
ATOM      1  C   UNL     1      -4.739   8.747   0.198  0.00  0.00    +0.227 C 
ATOM      2  O   UNL     1      -3.576   9.091   0.189  0.00  0.00    -0.275 OA
ATOM      3  N   UNL     1      -5.056   7.441   0.092  0.00  0.00    -0.285 N 
ATOM      4  H   UNL     1      -5.986   7.172   0.021  0.00  0.00    +0.155 HD
ENDROOT
BRANCH   3   5
ATOM      5  C   UNL     1      -4.047   6.476   0.083  0.00  0.00    +0.033 A 
ATOM      6  C   UNL     1      -2.890   6.674   0.828  0.00  0.00    +0.024 A 
ATOM      7  C   UNL     1      -1.893   5.723   0.822  0.00  0.00    +0.012 A 
ATOM      8  C   UNL     1      -2.045   4.559   0.065  0.00  0.00    +0.007 A 
ATOM      9  C   UNL     1      -3.206   4.366  -0.686  0.00  0.00    +0.012 A 
ATOM     10  C   UNL     1      -4.202   5.318  -0.672  0.00  0.00    +0.024 A 
BRANCH   8  11
ATOM     11  C   UNL     1      -0.978   3.538   0.056  0.00  0.00    +0.109 A 
ATOM     12  N   UNL     1       0.174   3.542   0.692  0.00  0.00    -0.239 NA
ATOM     13  C   UNL     1       1.062   2.534   0.586  0.00  0.00    +0.079 A 
ATOM     14  C   UNL     1       2.329   2.417   1.208  0.00  0.00    +0.029 A 
ATOM     15  C   UNL     1       3.109   1.323   0.999  0.00  0.00    +0.005 A 
ATOM     16  C   UNL     1       2.700   0.283   0.175  0.00  0.00    -0.049 A 
ATOM     17  C   UNL     1       1.470   0.358  -0.451  0.00  0.00    +0.020 A 
ATOM     18  C   UNL     1       0.675   1.459  -0.247  0.00  0.00    +0.040 A 
ATOM     19  S   UNL     1      -0.925   1.979  -0.818  0.00  0.00    -0.067 S 
ATOM     20  C   UNL     1       3.590  -0.915  -0.035  0.00  0.00    +0.044 C 
ENDBRANCH   8  11
ENDBRANCH   3   5
BRANCH   1  21
ATOM     21  C   UNL     1      -5.829   9.779   0.328  0.00  0.00    +0.173 C 
BRANCH  21  22
ATOM     22  S   UNL     1      -5.088  11.426   0.450  0.00  0.00    -0.078 S 
BRANCH  22  32
ATOM     23  N   UNL     1      -6.436  13.763   0.705  0.00  0.00    -0.288 N 
ATOM     24  C   UNL     1      -7.526  14.545   0.812  0.00  0.00    +0.263 A 
ATOM     25  O   UNL     1      -7.411  15.754   0.918  0.00  0.00    -0.267 OA
ATOM     26  C   UNL     1      -8.822  13.938   0.801  0.00  0.00    +0.075 A 
ATOM     27  C   UNL     1     -10.130  14.562   0.902  0.00  0.00    -0.026 A 
ATOM     28  C   UNL     1     -11.227  13.792   0.870  0.00  0.00    -0.008 A 
ATOM     29  S   UNL     1     -10.571  12.143   0.700  0.00  0.00    -0.073 S 
ATOM     30  C   UNL     1      -8.841  12.536   0.676  0.00  0.00    +0.117 A 
ATOM     31  N   UNL     1      -7.727  11.823   0.570  0.00  0.00    -0.216 NA
ATOM     32  C   UNL     1      -6.546  12.408   0.587  0.00  0.00    +0.173 A 
ATOM     33  C   UNL     1     -12.670  14.219   0.959  0.00  0.00    +0.052 C 
ATOM     34  C   UNL     1     -10.252  16.058   1.040  0.00  0.00    +0.045 C 
BRANCH  23  36
ATOM     35  C   UNL     1      -4.692  14.721  -0.717  0.00  0.00    +0.027 C 
ATOM     36  C   UNL     1      -5.107  14.378   0.716  0.00  0.00    +0.124 C 
ENDBRANCH  23  36
ENDBRANCH  22  32
ENDBRANCH  21  22
ENDBRANCH   1  21
TORSDOF 6
