REMARK  Name = ZINC37360712
REMARK  10 active torsions:
REMARK  status: ('A' for Active; 'I' for Inactive)
REMARK    1  A    between atoms: C_1  and  C_2
REMARK    2  A    between atoms: C_6  and  C_8
REMARK    3  A    between atoms: C_10  and  N_35
REMARK    4  A    between atoms: N_11  and  C_28
REMARK    5  A    between atoms: N_20  and  C_23
REMARK    6  A    between atoms: C_23  and  C_24
REMARK    7  A    between atoms: C_24  and  N_25
REMARK    8  A    between atoms: N_25  and  C_26
REMARK    9  A    between atoms: N_25  and  C_27
REMARK   10  A    between atoms: C_28  and  C_29
REMARK                            x       y       z     vdW  Elec       q    Type
REMARK                         _______ _______ _______ _____ _____    ______ ____
ROOT
ATOM      1  C   UNL     1      -0.459  -2.579   2.657  0.00  0.00    +0.089 A 
ATOM      2  C   UNL     1      -0.932  -3.909   2.702  0.00  0.00    +0.086 A 
ATOM      3  C   UNL     1      -1.563  -4.772   1.813  0.00  0.00    +0.126 A 
ATOM      4  N   UNL     1      -1.765  -5.936   2.454  0.00  0.00    -0.244 N 
ATOM      5  N   UNL     1      -1.274  -5.853   3.762  0.00  0.00    -0.149 NA
ATOM      6  C   UNL     1      -0.764  -4.658   3.961  0.00  0.00    +0.188 A 
ATOM      7  N   UNL     1      -0.170  -4.028   4.993  0.00  0.00    -0.193 NA
ATOM      8  C   UNL     1       0.242  -2.784   4.864  0.00  0.00    +0.220 A 
ATOM      9  N   UNL     1       0.114  -2.079   3.745  0.00  0.00    -0.214 NA
ATOM     10  N   UNL     1       0.847  -2.180   5.952  0.00  0.00    -0.297 N 
ATOM     11  C   UNL     1       1.324  -0.790   5.875  0.00  0.00    +0.123 C 
ATOM     12  C   UNL     1       0.759  -0.015   7.070  0.00  0.00    +0.103 C 
ATOM     13  N   UNL     1       1.099  -0.721   8.313  0.00  0.00    -0.301 NA
ATOM     14  C   UNL     1       0.477  -2.050   8.358  0.00  0.00    +0.103 C 
ATOM     15  C   UNL     1       1.024  -2.907   7.218  0.00  0.00    +0.123 C 
ENDROOT
BRANCH   1  21
ATOM     16  C   UNL     1       1.520   0.560  -0.681  0.00  0.00    +0.044 C 
ATOM     17  C   UNL     1       0.356  -0.256  -0.181  0.00  0.00    -0.050 A 
ATOM     18  C   UNL     1      -0.842  -0.246  -0.874  0.00  0.00    +0.003 A 
ATOM     19  C   UNL     1      -1.915  -0.993  -0.422  0.00  0.00    +0.001 A 
ATOM     20  C   UNL     1      -1.797  -1.752   0.724  0.00  0.00    +0.010 A 
ATOM     21  C   UNL     1      -0.592  -1.766   1.427  0.00  0.00    +0.002 A 
ATOM     22  C   UNL     1       0.488  -1.015   0.963  0.00  0.00    +0.013 A 
ENDBRANCH   1  21
BRANCH   3  23
ATOM     23  N   UNL     1      -1.917  -4.486   0.508  0.00  0.00    -0.343 N 
ATOM     24  H   UNL     1      -1.501  -3.742   0.045  0.00  0.00    +0.144 HD
ATOM     25  H   UNL     1      -2.581  -5.029   0.056  0.00  0.00    +0.144 HD
ENDBRANCH   3  23
BRANCH  13  26
ATOM     26  C   UNL     1       0.727   0.076   9.489  0.00  0.00    +0.066 C 
BRANCH  26  27
ATOM     27  C   UNL     1       1.314  -0.567  10.747  0.00  0.00    -0.064 C 
BRANCH  27  28
ATOM     28  N   UNL     1       0.942   0.229  11.924  0.00  0.00    +0.377 N 
ATOM     29  C   UNL     1       1.403  -0.451  13.142  0.00  0.00    -0.097 C 
ATOM     30  C   UNL     1       1.568   1.555  11.836  0.00  0.00    -0.097 C 
ATOM     31  H   UNL     1      -0.062   0.333  11.956  0.00  0.00    -0.083 HD
ENDBRANCH  27  28
ENDBRANCH  26  27
ENDBRANCH  13  26
BRANCH   4  32
ATOM     32  C   UNL     1      -2.406  -7.117   1.871  0.00  0.00    +0.180 C 
BRANCH  32  33
ATOM     33  C   UNL     1      -1.360  -7.989   1.224  0.00  0.00    -0.026 A 
ATOM     34  C   UNL     1      -1.023  -7.795  -0.102  0.00  0.00    +0.005 A 
ATOM     35  C   UNL     1      -0.063  -8.594  -0.695  0.00  0.00    +0.000 A 
ATOM     36  C   UNL     1       0.560  -9.586   0.038  0.00  0.00    +0.000 A 
ATOM     37  C   UNL     1       0.223  -9.779   1.365  0.00  0.00    +0.000 A 
ATOM     38  C   UNL     1      -0.734  -8.977   1.959  0.00  0.00    +0.005 A 
ENDBRANCH  32  33
ENDBRANCH   4  32
TORSDOF 7
