REMARK  Name = ZINC39965053
REMARK  11 active torsions:
REMARK  status: ('A' for Active; 'I' for Inactive)
REMARK    1  A    between atoms: C_1  and  C_2
REMARK    2  A    between atoms: C_5  and  C_8
REMARK    3  A    between atoms: N_13  and  C_14
REMARK    4  A    between atoms: C_14  and  C_16
REMARK    5  A    between atoms: C_16  and  N_17
REMARK    6  A    between atoms: N_20  and  S_23
REMARK    7  A    between atoms: S_23  and  C_26
REMARK    8  A    between atoms: C_29  and  C_32
REMARK    9  A    between atoms: C_32  and  C_33
REMARK   10  A    between atoms: C_32  and  C_34
REMARK   11  A    between atoms: C_32  and  C_35
REMARK                            x       y       z     vdW  Elec       q    Type
REMARK                         _______ _______ _______ _____ _____    ______ ____
ROOT
ATOM      1  N   UNL     1       0.149 -10.872   2.393  0.00  0.00    -0.291 NA
ATOM      2  C   UNL     1      -1.097 -11.168   1.673  0.00  0.00    +0.102 C 
ATOM      3  C   UNL     1      -0.967 -12.522   0.968  0.00  0.00    +0.125 C 
ATOM      4  N   UNL     1      -0.569 -13.530   1.963  0.00  0.00    -0.174 NA
ATOM      5  C   UNL     1       0.592 -13.242   2.819  0.00  0.00    +0.125 C 
ATOM      6  C   UNL     1       0.400 -11.860   3.451  0.00  0.00    +0.102 C 
ENDROOT
BRANCH   4   7
ATOM      7  S   UNL     1      -1.406 -14.951   2.114  0.00  0.00    +0.061 S 
ATOM      8  O   UNL     1      -1.175 -15.419   3.436  0.00  0.00    -0.153 OA
ATOM      9  O   UNL     1      -2.712 -14.709   1.610  0.00  0.00    -0.153 OA
BRANCH   7  10
ATOM     10  C   UNL     1      -0.654 -16.116   1.028  0.00  0.00    +0.105 A 
ATOM     11  C   UNL     1      -1.095 -16.228  -0.278  0.00  0.00    +0.029 A 
ATOM     12  C   UNL     1      -0.505 -17.143  -1.131  0.00  0.00    +0.006 A 
ATOM     13  C   UNL     1       0.525 -17.945  -0.678  0.00  0.00    -0.042 A 
ATOM     14  C   UNL     1       0.966 -17.833   0.627  0.00  0.00    +0.006 A 
ATOM     15  C   UNL     1       0.379 -16.915   1.479  0.00  0.00    +0.029 A 
BRANCH  13  16
ATOM     16  C   UNL     1       1.167 -18.943  -1.607  0.00  0.00    -0.013 C 
ATOM     17  C   UNL     1       1.770 -18.208  -2.806  0.00  0.00    +0.015 C 
ATOM     18  C   UNL     1       2.271 -19.696  -0.862  0.00  0.00    +0.015 C 
ATOM     19  C   UNL     1       0.112 -19.937  -2.096  0.00  0.00    +0.015 C 
ENDBRANCH  13  16
ENDBRANCH   7  10
ENDBRANCH   4   7
BRANCH   1  20
ATOM     20  C   UNL     1       0.130  -9.508   2.939  0.00  0.00    +0.182 C 
BRANCH  20  21
ATOM     21  C   UNL     1       0.117  -8.514   1.808  0.00  0.00    +0.252 C 
ATOM     22  O   UNL     1       0.122  -8.903   0.655  0.00  0.00    -0.272 OA
BRANCH  21  28
ATOM     23  C   UNL     1       0.060  -4.252  -0.021  0.00  0.00    +0.055 A 
ATOM     24  C   UNL     1       0.069  -4.954  -1.177  0.00  0.00    +0.074 A 
ATOM     25  S   UNL     1       0.091  -6.636  -0.587  0.00  0.00    -0.060 S 
ATOM     26  C   UNL     1       0.087  -6.332   1.066  0.00  0.00    +0.163 A 
ATOM     27  N   UNL     1       0.075  -4.974   1.139  0.00  0.00    -0.335 N 
ATOM     28  N   UNL     1       0.099  -7.213   2.068  0.00  0.00    -0.155 NA
ATOM     29  H   UNL     1       0.074  -4.526   1.999  0.00  0.00    +0.168 HD
BRANCH  23  34
ATOM     30  C   UNL     1      -0.018   1.503   0.010  0.00  0.00    +0.044 C 
ATOM     31  C   UNL     1       0.002  -0.004   0.002  0.00  0.00    -0.050 A 
ATOM     32  C   UNL     1       0.006  -0.686  -1.202  0.00  0.00    +0.004 A 
ATOM     33  C   UNL     1       0.024  -2.066  -1.216  0.00  0.00    +0.010 A 
ATOM     34  C   UNL     1       0.040  -2.773  -0.013  0.00  0.00    -0.001 A 
ATOM     35  C   UNL     1       0.037  -2.079   1.197  0.00  0.00    +0.010 A 
ATOM     36  C   UNL     1       0.023  -0.699   1.198  0.00  0.00    +0.004 A 
ENDBRANCH  23  34
ENDBRANCH  21  28
ENDBRANCH  20  21
ENDBRANCH   1  20
TORSDOF 7
