REMARK  Name = ZINC01374500
REMARK  14 active torsions:
REMARK  status: ('A' for Active; 'I' for Inactive)
REMARK    1  A    between atoms: C_1  and  C_2
REMARK    2  A    between atoms: C_2  and  C_3
REMARK    3  A    between atoms: C_3  and  C_5
REMARK    4  A    between atoms: C_3  and  N_18
REMARK    5  A    between atoms: N_9  and  C_10
REMARK    6  A    between atoms: C_10  and  C_11
REMARK    7  A    between atoms: C_11  and  C_12
REMARK    8  A    between atoms: N_18  and  C_19
REMARK    9  A    between atoms: N_18  and  C_27
REMARK   10  A    between atoms: C_19  and  C_20
REMARK   11  A    between atoms: C_23  and  C_26
REMARK   12  A    between atoms: C_27  and  C_28
REMARK   13  A    between atoms: C_32  and  O_40
REMARK   14  A    between atoms: O_40  and  C_41
REMARK                            x       y       z     vdW  Elec       q    Type
REMARK                         _______ _______ _______ _____ _____    ______ ____
ROOT
ATOM      1  N   UNL     1      -0.165  -0.237  -2.502  0.00  0.00    -0.284 NA
ENDROOT
BRANCH   1   2
ATOM      2  C   UNL     1       0.855  -0.554  -1.493  0.00  0.00    +0.127 C 
BRANCH   2   3
ATOM      3  C   UNL     1       2.225  -0.311  -2.071  0.00  0.00    +0.168 A 
ATOM      4  N   UNL     1       2.649  -0.670  -3.259  0.00  0.00    -0.112 NA
ATOM      5  N   UNL     1       3.872  -0.283  -3.379  0.00  0.00    -0.023 NA
ATOM      6  N   UNL     1       4.239   0.314  -2.299  0.00  0.00    -0.044 NA
ATOM      7  N   UNL     1       3.251   0.322  -1.470  0.00  0.00    -0.227 N 
BRANCH   7   8
ATOM      8  C   UNL     1       3.245   0.906  -0.127  0.00  0.00    +0.152 C 
BRANCH   8   9
ATOM      9  C   UNL     1       3.697  -0.146   0.888  0.00  0.00    +0.058 C 
BRANCH   9  10
ATOM     10  C   UNL     1       3.692   0.455   2.270  0.00  0.00    -0.046 A 
ATOM     11  C   UNL     1       4.824   1.083   2.755  0.00  0.00    +0.004 A 
ATOM     12  C   UNL     1       4.819   1.634   4.023  0.00  0.00    +0.000 A 
ATOM     13  C   UNL     1       3.682   1.558   4.805  0.00  0.00    +0.000 A 
ATOM     14  C   UNL     1       2.550   0.932   4.320  0.00  0.00    +0.000 A 
ATOM     15  C   UNL     1       2.553   0.384   3.050  0.00  0.00    +0.004 A 
ENDBRANCH   9  10
ENDBRANCH   8   9
ENDBRANCH   7   8
ENDBRANCH   2   3
BRANCH   2  17
ATOM     16  C   UNL     1      -0.618  -2.243  -0.389  0.00  0.00    +0.006 C 
ATOM     17  C   UNL     1       0.728  -2.022  -1.082  0.00  0.00    +0.023 C 
ENDBRANCH   2  17
ENDBRANCH   1   2
BRANCH   1  18
ATOM     18  C   UNL     1       0.100  -0.948  -3.760  0.00  0.00    +0.120 C 
BRANCH  18  19
ATOM     19  C   UNL     1      -1.142  -0.939  -4.613  0.00  0.00    -0.033 A 
ATOM     20  C   UNL     1      -2.123  -1.893  -4.416  0.00  0.00    +0.005 A 
ATOM     21  C   UNL     1      -3.263  -1.884  -5.199  0.00  0.00    +0.003 A 
ATOM     22  C   UNL     1      -3.421  -0.921  -6.178  0.00  0.00    -0.050 A 
ATOM     23  C   UNL     1      -2.440   0.033  -6.375  0.00  0.00    +0.003 A 
ATOM     24  C   UNL     1      -1.303   0.027  -5.589  0.00  0.00    +0.005 A 
ATOM     25  C   UNL     1      -4.663  -0.912  -7.032  0.00  0.00    +0.044 C 
ENDBRANCH  18  19
ENDBRANCH   1  18
BRANCH   1  26
ATOM     26  C   UNL     1      -0.253   1.212  -2.725  0.00  0.00    +0.126 C 
BRANCH  26  27
ATOM     27  C   UNL     1      -0.989   1.854  -1.577  0.00  0.00    +0.031 A 
ATOM     28  C   UNL     1      -0.294   2.433  -0.568  0.00  0.00    +0.020 A 
ATOM     29  C   UNL     1      -1.039   3.048   0.533  0.00  0.00    +0.002 A 
ATOM     30  C   UNL     1      -0.375   3.660   1.601  0.00  0.00    +0.055 A 
ATOM     31  C   UNL     1      -1.109   4.231   2.622  0.00  0.00    +0.121 A 
ATOM     32  C   UNL     1      -2.501   4.197   2.591  0.00  0.00    +0.047 A 
ATOM     33  C   UNL     1      -3.166   3.597   1.545  0.00  0.00    +0.030 A 
ATOM     34  C   UNL     1      -2.446   3.016   0.506  0.00  0.00    +0.049 A 
ATOM     35  N   UNL     1      -3.094   2.410  -0.551  0.00  0.00    -0.322 N 
ATOM     36  H   UNL     1      -4.063   2.389  -0.569  0.00  0.00    +0.169 HD
ATOM     37  C   UNL     1      -2.400   1.854  -1.560  0.00  0.00    +0.254 A 
ATOM     38  O   UNL     1      -3.006   1.332  -2.480  0.00  0.00    -0.268 OA
BRANCH  31  39
ATOM     39  O   UNL     1      -0.469   4.827   3.663  0.00  0.00    -0.495 OA
ATOM     40  C   UNL     1      -1.287   5.398   4.686  0.00  0.00    +0.277 C 
ENDBRANCH  31  39
ENDBRANCH  26  27
ENDBRANCH   1  26
TORSDOF 11
