REMARK  Name = ZINC64277690
REMARK  7 active torsions:
REMARK  status: ('A' for Active; 'I' for Inactive)
REMARK    1  A    between atoms: C_1  and  C_2
REMARK    2  A    between atoms: C_6  and  N_8
REMARK    3  A    between atoms: C_9  and  C_11
REMARK    4  A    between atoms: C_11  and  C_13
REMARK    5  A    between atoms: C_11  and  N_23
REMARK    6  A    between atoms: C_13  and  C_14
REMARK    7  A    between atoms: C_24  and  C_26
REMARK                            x       y       z     vdW  Elec       q    Type
REMARK                         _______ _______ _______ _____ _____    ______ ____
ROOT
ATOM      1  C   UNL     1      -0.121  -5.023   3.757  0.00  0.00    +0.163 C 
ENDROOT
BRANCH   1   3
ATOM      2  N   UNL     1       0.215  -3.141   2.187  0.00  0.00    -0.284 N 
ATOM      3  C   UNL     1       0.021  -4.463   2.365  0.00  0.00    +0.238 C 
ATOM      4  O   UNL     1      -0.041  -5.202   1.406  0.00  0.00    -0.273 OA
ATOM      5  H   UNL     1       0.334  -2.561   2.955  0.00  0.00    +0.155 HD
BRANCH   2  11
ATOM      6  C   UNL     1      -0.808   0.557  -0.887  0.00  0.00    +0.044 C 
ATOM      7  C   UNL     1      -0.245  -0.816  -0.624  0.00  0.00    -0.049 A 
ATOM      8  C   UNL     1       0.301  -1.549  -1.662  0.00  0.00    +0.003 A 
ATOM      9  C   UNL     1       0.819  -2.809  -1.425  0.00  0.00    +0.002 A 
ATOM     10  C   UNL     1       0.792  -3.340  -0.149  0.00  0.00    +0.023 A 
ATOM     11  C   UNL     1       0.244  -2.606   0.894  0.00  0.00    +0.034 A 
ATOM     12  C   UNL     1      -0.270  -1.339   0.654  0.00  0.00    +0.026 A 
ENDBRANCH   2  11
ENDBRANCH   1   3
BRANCH   1  13
ATOM     13  N   UNL     1      -0.322  -6.472   3.683  0.00  0.00    -0.302 N 
ATOM     14  C   UNL     1       0.102  -7.263   4.688  0.00  0.00    +0.231 C 
ATOM     15  O   UNL     1       0.649  -6.776   5.654  0.00  0.00    -0.274 OA
ATOM     16  H   UNL     1      -0.760  -6.862   2.910  0.00  0.00    +0.150 HD
BRANCH  14  17
ATOM     17  C   UNL     1      -0.105  -8.754   4.611  0.00  0.00    +0.145 C 
ATOM     18  C   UNL     1       0.977  -9.378   3.729  0.00  0.00    +0.063 C 
ATOM     19  C   UNL     1       0.927 -10.880   3.840  0.00  0.00    -0.041 A 
ATOM     20  C   UNL     1       1.568 -11.636   2.869  0.00  0.00    +0.004 A 
ATOM     21  C   UNL     1       1.550 -13.015   2.935  0.00  0.00    +0.000 A 
ATOM     22  C   UNL     1       0.891 -13.646   3.973  0.00  0.00    +0.000 A 
ATOM     23  C   UNL     1       0.252 -12.894   4.939  0.00  0.00    +0.005 A 
ATOM     24  C   UNL     1       0.266 -11.509   4.873  0.00  0.00    -0.030 A 
ATOM     25  C   UNL     1      -0.455 -10.732   5.944  0.00  0.00    +0.117 C 
ATOM     26  N   UNL     1      -0.008  -9.337   5.959  0.00  0.00    -0.301 NA
ATOM     27  H   UNL     1       0.933  -9.265   6.317  0.00  0.00    +0.123 HD
ENDBRANCH  14  17
ENDBRANCH   1  13
BRANCH   1  28
ATOM     28  C   UNL     1      -1.324  -4.376   4.448  0.00  0.00    +0.065 C 
BRANCH  28  29
ATOM     29  C   UNL     1      -2.584  -4.738   3.705  0.00  0.00    -0.039 C 
ATOM     30  C   UNL     1      -3.425  -5.761   3.981  0.00  0.00    -0.001 A 
ATOM     31  C   UNL     1      -3.419  -6.802   5.016  0.00  0.00    +0.010 A 
ATOM     32  C   UNL     1      -4.420  -7.710   5.039  0.00  0.00    +0.001 A 
ATOM     33  C   UNL     1      -5.462  -7.683   4.101  0.00  0.00    +0.002 A 
ATOM     34  C   UNL     1      -5.537  -6.757   3.121  0.00  0.00    +0.026 A 
ATOM     35  C   UNL     1      -4.536  -5.753   3.003  0.00  0.00    +0.043 A 
ATOM     36  N   UNL     1      -4.388  -4.764   2.155  0.00  0.00    -0.380 N 
ATOM     37  C   UNL     1      -3.167  -4.029   2.503  0.00  0.00    +0.144 C 
ATOM     38  H   UNL     1      -4.987  -4.553   1.422  0.00  0.00    +0.160 HD
ENDBRANCH  28  29
ENDBRANCH   1  28
TORSDOF 6
