REMARK  Name = ZINC36506598
REMARK  15 active torsions:
REMARK  status: ('A' for Active; 'I' for Inactive)
REMARK    1  A    between atoms: C_1  and  C_2
REMARK    2  A    between atoms: C_2  and  C_3
REMARK    3  A    between atoms: C_2  and  C_4
REMARK    4  A    between atoms: C_2  and  C_5
REMARK    5  A    between atoms: C_5  and  C_6
REMARK    6  A    between atoms: C_6  and  C_7
REMARK    7  A    between atoms: C_6  and  C_8
REMARK    8  A    between atoms: C_6  and  N_9
REMARK    9  A    between atoms: C_10  and  C_12
REMARK   10  A    between atoms: C_12  and  C_14
REMARK   11  A    between atoms: C_12  and  N_21
REMARK   12  A    between atoms: N_21  and  C_22
REMARK   13  A    between atoms: C_22  and  C_23
REMARK   14  A    between atoms: C_28  and  C_30
REMARK   15  A    between atoms: C_33  and  N_36
REMARK                            x       y       z     vdW  Elec       q    Type
REMARK                         _______ _______ _______ _____ _____    ______ ____
ROOT
ATOM      1  C   UNL     1       5.078   0.076  -5.671  0.00  0.00    +0.193 C 
ENDROOT
BRANCH   1   2
ATOM      2  C   UNL     1       4.436  -1.272  -5.473  0.00  0.00    -0.018 A 
ATOM      3  C   UNL     1       5.087  -2.247  -4.741  0.00  0.00    +0.007 A 
ATOM      4  C   UNL     1       4.498  -3.484  -4.559  0.00  0.00    +0.020 A 
ATOM      5  C   UNL     1       3.256  -3.747  -5.110  0.00  0.00    +0.041 A 
ATOM      6  C   UNL     1       2.605  -2.771  -5.843  0.00  0.00    +0.020 A 
ATOM      7  C   UNL     1       3.192  -1.532  -6.019  0.00  0.00    +0.007 A 
ATOM      8 CL   UNL     1       2.516  -5.300  -4.882  0.00  0.00    -0.084 Cl
ENDBRANCH   1   2
BRANCH   1  10
ATOM      9  N   UNL     1       3.376   1.174  -4.252  0.00  0.00    -0.308 N 
ATOM     10  C   UNL     1       4.679   0.994  -4.544  0.00  0.00    +0.239 C 
ATOM     11  O   UNL     1       5.530   1.569  -3.901  0.00  0.00    -0.273 OA
ATOM     12  H   UNL     1       2.698   0.659  -4.717  0.00  0.00    +0.149 HD
BRANCH   9  13
ATOM     13  C   UNL     1       2.982   2.148  -3.231  0.00  0.00    +0.030 C 
ATOM     14  C   UNL     1       3.817   3.420  -3.391  0.00  0.00    +0.031 C 
ATOM     15  C   UNL     1       3.220   1.554  -1.841  0.00  0.00    +0.031 C 
BRANCH  13  16
ATOM     16  C   UNL     1       1.499   2.486  -3.393  0.00  0.00    +0.031 C 
BRANCH  16  18
ATOM     17  C   UNL     1       0.922   1.240  -5.481  0.00  0.00    +0.010 C 
ATOM     18  C   UNL     1       1.168   2.626  -4.881  0.00  0.00    -0.036 C 
ATOM     19  C   UNL     1       2.340   3.294  -5.603  0.00  0.00    +0.010 C 
ATOM     20  C   UNL     1      -0.088   3.484  -5.045  0.00  0.00    +0.010 C 
ENDBRANCH  16  18
ENDBRANCH  13  16
ENDBRANCH   9  13
ENDBRANCH   1  10
BRANCH   1  21
ATOM     21  N   UNL     1       6.535  -0.074  -5.685  0.00  0.00    -0.275 N 
ATOM     22  C   UNL     1       7.150  -0.578  -6.774  0.00  0.00    +0.248 C 
ATOM     23  O   UNL     1       8.329  -0.870  -6.725  0.00  0.00    -0.270 OA
BRANCH  22  24
ATOM     24  C   UNL     1       6.391  -0.774  -8.027  0.00  0.00    +0.037 A 
ATOM     25  C   UNL     1       4.996  -0.812  -8.003  0.00  0.00    +0.015 A 
ATOM     26  C   UNL     1       4.294  -0.996  -9.176  0.00  0.00    +0.033 A 
ATOM     27  C   UNL     1       4.969  -1.142 -10.375  0.00  0.00    +0.126 A 
ATOM     28  C   UNL     1       6.352  -1.105 -10.406  0.00  0.00    +0.033 A 
ATOM     29  C   UNL     1       7.066  -0.917  -9.241  0.00  0.00    +0.015 A 
BRANCH  27  30
ATOM     30  N   UNL     1       4.209  -1.339 -11.630  0.00  0.00    +0.056 N 
ATOM     31  O   UNL     1       3.001  -1.371 -11.605  0.00  0.00    -0.126 OA
ATOM     32  O   UNL     1       4.796  -1.467 -12.678  0.00  0.00    -0.126 OA
ENDBRANCH  27  30
ENDBRANCH  22  24
BRANCH  21  33
ATOM     33  C   UNL     1       7.324   0.322  -4.516  0.00  0.00    +0.183 C 
BRANCH  33  34
ATOM     34  C   UNL     1       7.961   1.663  -4.771  0.00  0.00    +0.122 A 
ATOM     35  C   UNL     1       7.384   2.860  -4.564  0.00  0.00    +0.046 A 
ATOM     36  C   UNL     1       8.332   3.842  -4.933  0.00  0.00    +0.041 A 
ATOM     37  C   UNL     1       9.432   3.186  -5.344  0.00  0.00    +0.195 A 
ATOM     38  O   UNL     1       9.204   1.867  -5.238  0.00  0.00    -0.466 OA
ENDBRANCH  33  34
ENDBRANCH  21  33
ENDBRANCH   1  21
TORSDOF 10
