REMARK  Name = ZINC36501782
REMARK  14 active torsions:
REMARK  status: ('A' for Active; 'I' for Inactive)
REMARK    1  A    between atoms: C_1  and  C_2
REMARK    2  A    between atoms: C_2  and  C_4
REMARK    3  A    between atoms: C_2  and  C_33
REMARK    4  A    between atoms: C_4  and  C_5
REMARK    5  A    between atoms: N_7  and  C_8
REMARK    6  A    between atoms: N_7  and  C_14
REMARK    7  A    between atoms: C_8  and  C_9
REMARK    8  A    between atoms: C_14  and  C_16
REMARK    9  A    between atoms: C_14  and  C_26
REMARK   10  A    between atoms: C_18  and  N_23
REMARK   11  A    between atoms: N_28  and  C_29
REMARK   12  A    between atoms: C_29  and  C_30
REMARK   13  A    between atoms: C_29  and  C_31
REMARK   14  A    between atoms: C_29  and  C_32
REMARK                            x       y       z     vdW  Elec       q    Type
REMARK                         _______ _______ _______ _____ _____    ______ ____
ROOT
ATOM      1  C   UNL     1       4.610   0.011   1.987  0.00  0.00    +0.194 C 
ENDROOT
BRANCH   1   2
ATOM      2  C   UNL     1       4.955  -0.668   0.687  0.00  0.00    +0.002 A 
ATOM      3  C   UNL     1       3.996  -0.803  -0.299  0.00  0.00    +0.040 A 
ATOM      4  C   UNL     1       4.312  -1.426  -1.491  0.00  0.00    +0.127 A 
ATOM      5  C   UNL     1       5.589  -1.915  -1.699  0.00  0.00    +0.034 A 
ATOM      6  C   UNL     1       6.549  -1.780  -0.714  0.00  0.00    +0.022 A 
ATOM      7  C   UNL     1       6.234  -1.151   0.477  0.00  0.00    +0.047 A 
ATOM      8 CL   UNL     1       7.442  -0.975   1.712  0.00  0.00    -0.083 Cl
BRANCH   4   9
ATOM      9  N   UNL     1       3.284  -1.571  -2.546  0.00  0.00    +0.056 N 
ATOM     10  O   UNL     1       2.168  -1.144  -2.365  0.00  0.00    -0.126 OA
ATOM     11  O   UNL     1       3.561  -2.116  -3.589  0.00  0.00    -0.126 OA
ENDBRANCH   4   9
ENDBRANCH   1   2
BRANCH   1  12
ATOM     12  C   UNL     1       4.962   1.473   1.899  0.00  0.00    +0.239 C 
ATOM     13  O   UNL     1       4.120   2.315   2.131  0.00  0.00    -0.273 OA
ATOM     14  N   UNL     1       6.213   1.846   1.563  0.00  0.00    -0.309 N 
ATOM     15  H   UNL     1       6.867   1.177   1.309  0.00  0.00    +0.149 HD
BRANCH  14  16
ATOM     16  C   UNL     1       6.585   3.263   1.582  0.00  0.00    +0.026 C 
ATOM     17  C   UNL     1       6.471   3.801   3.010  0.00  0.00    +0.031 C 
ATOM     18  C   UNL     1       8.026   3.419   1.092  0.00  0.00    +0.031 C 
ATOM     19  C   UNL     1       5.646   4.049   0.665  0.00  0.00    +0.031 C 
ENDBRANCH  14  16
ENDBRANCH   1  12
BRANCH   1  22
ATOM     20  C   UNL     1       2.282   0.502   1.459  0.00  0.00    +0.217 C 
ATOM     21  O   UNL     1       2.667   1.264   0.597  0.00  0.00    -0.276 OA
ATOM     22  N   UNL     1       3.175  -0.131   2.246  0.00  0.00    -0.279 N 
BRANCH  20  23
ATOM     23  C   UNL     1       0.806   0.264   1.651  0.00  0.00    +0.104 C 
BRANCH  23  25
ATOM     24  C   UNL     1       0.231   2.585   0.927  0.00  0.00    +0.013 C 
ATOM     25  C   UNL     1       0.020   1.097   0.637  0.00  0.00    +0.025 C 
BRANCH  25  26
ATOM     26  C   UNL     1      -1.447   0.768   0.746  0.00  0.00    -0.044 A 
ATOM     27  C   UNL     1      -2.116   0.979   1.937  0.00  0.00    +0.004 A 
ATOM     28  C   UNL     1      -3.461   0.676   2.037  0.00  0.00    +0.000 A 
ATOM     29  C   UNL     1      -4.137   0.163   0.946  0.00  0.00    +0.000 A 
ATOM     30  C   UNL     1      -3.468  -0.048  -0.245  0.00  0.00    +0.000 A 
ATOM     31  C   UNL     1      -2.124   0.259  -0.346  0.00  0.00    +0.004 A 
ENDBRANCH  25  26
ENDBRANCH  23  25
ENDBRANCH  20  23
BRANCH  22  32
ATOM     32  C   UNL     1       2.710  -0.962   3.360  0.00  0.00    +0.183 C 
BRANCH  32  33
ATOM     33  C   UNL     1       2.623  -2.398   2.913  0.00  0.00    +0.122 A 
ATOM     34  C   UNL     1       3.636  -3.284   2.910  0.00  0.00    +0.046 A 
ATOM     35  C   UNL     1       3.114  -4.502   2.417  0.00  0.00    +0.041 A 
ATOM     36  C   UNL     1       1.814  -4.288   2.148  0.00  0.00    +0.195 A 
ATOM     37  O   UNL     1       1.521  -3.014   2.456  0.00  0.00    -0.466 OA
ENDBRANCH  32  33
ENDBRANCH  22  32
ENDBRANCH   1  22
TORSDOF 10
