REMARK  Name = ZINC38737907
REMARK  15 active torsions:
REMARK  status: ('A' for Active; 'I' for Inactive)
REMARK    1  A    between atoms: C_1  and  C_2
REMARK    2  A    between atoms: C_2  and  O_3
REMARK    3  A    between atoms: O_3  and  C_4
REMARK    4  A    between atoms: C_4  and  C_6
REMARK    5  A    between atoms: C_6  and  C_8
REMARK    6  A    between atoms: C_6  and  N_16
REMARK    7  A    between atoms: C_8  and  C_9
REMARK    8  A    between atoms: C_17  and  C_19
REMARK    9  A    between atoms: N_25  and  C_26
REMARK   10  A    between atoms: C_26  and  C_27
REMARK   11  A    between atoms: C_29  and  C_35
REMARK   12  A    between atoms: C_32  and  O_33
REMARK   13  A    between atoms: O_33  and  C_34
REMARK   14  A    between atoms: C_35  and  C_36
REMARK   15  A    between atoms: C_35  and  C_37
REMARK                            x       y       z     vdW  Elec       q    Type
REMARK                         _______ _______ _______ _____ _____    ______ ____
ROOT
ATOM      1  C   UNL     1       0.312  -5.723  -2.864  0.00  0.00    +0.020 C 
ATOM      2  C   UNL     1       0.480  -5.804  -1.345  0.00  0.00    -0.006 C 
ATOM      3  C   UNL     1       0.249  -7.248  -0.888  0.00  0.00    -0.003 C 
ATOM      4  C   UNL     1      -1.141  -7.700  -1.343  0.00  0.00    -0.019 C 
ATOM      5  C   UNL     1      -1.250  -7.549  -2.862  0.00  0.00    -0.077 C 
ATOM      6  N   UNL     1      -1.046  -6.143  -3.232  0.00  0.00    +0.390 N 
ATOM      7  H   UNL     1      -1.718  -5.567  -2.747  0.00  0.00    -0.080 HD
ENDROOT
BRANCH   1   9
ATOM      8  N   UNL     1       1.781  -3.888  -3.632  0.00  0.00    -0.303 N 
ATOM      9  C   UNL     1       0.539  -4.304  -3.319  0.00  0.00    +0.200 C 
ATOM     10  O   UNL     1      -0.397  -3.537  -3.402  0.00  0.00    -0.278 OA
ATOM     11  H   UNL     1       2.530  -4.501  -3.566  0.00  0.00    +0.149 HD
BRANCH   8  12
ATOM     12  C   UNL     1       2.002  -2.509  -4.074  0.00  0.00    +0.186 C 
BRANCH  12  13
ATOM     13  C   UNL     1       2.162  -1.615  -2.872  0.00  0.00    +0.328 C 
ATOM     14  O   UNL     1       2.099  -2.083  -1.759  0.00  0.00    -0.249 OA
BRANCH  13  15
ATOM     15  O   UNL     1       2.376  -0.300  -3.036  0.00  0.00    -0.464 OA
BRANCH  15  17
ATOM     16  C   UNL     1       2.753   1.949  -2.236  0.00  0.00    +0.048 C 
ATOM     17  C   UNL     1       2.518   0.487  -1.852  0.00  0.00    +0.229 C 
ENDBRANCH  15  17
ENDBRANCH  13  15
ENDBRANCH  12  13
BRANCH  12  18
ATOM     18  C   UNL     1       3.268  -2.444  -4.931  0.00  0.00    +0.069 C 
BRANCH  18  19
ATOM     19  C   UNL     1       3.062  -3.239  -6.194  0.00  0.00    -0.045 A 
ATOM     20  C   UNL     1       3.382  -4.583  -6.224  0.00  0.00    +0.005 A 
ATOM     21  C   UNL     1       3.193  -5.313  -7.382  0.00  0.00    +0.020 A 
ATOM     22  C   UNL     1       2.684  -4.698  -8.512  0.00  0.00    +0.041 A 
ATOM     23  C   UNL     1       2.363  -3.353  -8.481  0.00  0.00    +0.020 A 
ATOM     24  C   UNL     1       2.547  -2.625  -7.320  0.00  0.00    +0.005 A 
ATOM     25 CL   UNL     1       2.446  -5.614  -9.967  0.00  0.00    -0.084 Cl
ENDBRANCH  18  19
ENDBRANCH  12  18
ENDBRANCH   8  12
ENDBRANCH   1   9
BRANCH   6  26
ATOM     26  C   UNL     1      -1.228  -5.989  -4.681  0.00  0.00    -0.038 C 
BRANCH  26  27
ATOM     27  C   UNL     1      -2.662  -6.282  -5.041  0.00  0.00    -0.022 A 
ATOM     28  C   UNL     1      -3.574  -5.250  -5.142  0.00  0.00    +0.009 A 
ATOM     29  C   UNL     1      -4.890  -5.518  -5.472  0.00  0.00    -0.044 A 
ATOM     30  C   UNL     1      -5.296  -6.820  -5.701  0.00  0.00    +0.007 A 
ATOM     31  C   UNL     1      -4.388  -7.856  -5.601  0.00  0.00    +0.046 A 
ATOM     32  C   UNL     1      -3.066  -7.588  -5.276  0.00  0.00    +0.121 A 
BRANCH  29  33
ATOM     33  C   UNL     1      -5.883  -4.390  -5.581  0.00  0.00    +0.013 C 
ATOM     34  C   UNL     1      -6.460  -4.354  -6.997  0.00  0.00    +0.012 C 
ATOM     35  C   UNL     1      -7.015  -4.607  -4.575  0.00  0.00    +0.012 C 
ENDBRANCH  29  33
BRANCH  32  36
ATOM     36  O   UNL     1      -2.169  -8.605  -5.182  0.00  0.00    -0.495 OA
ATOM     37  C   UNL     1      -2.655  -9.924  -5.437  0.00  0.00    +0.277 C 
ENDBRANCH  32  36
ENDBRANCH  26  27
ENDBRANCH   6  26
TORSDOF 11
