REMARK  Name = ZINC53633346
REMARK  8 active torsions:
REMARK  status: ('A' for Active; 'I' for Inactive)
REMARK    1  A    between atoms: C_1  and  O_2
REMARK    2  A    between atoms: O_2  and  C_3
REMARK    3  A    between atoms: C_6  and  C_9
REMARK    4  A    between atoms: N_11  and  C_25
REMARK    5  A    between atoms: C_15  and  N_16
REMARK    6  A    between atoms: N_16  and  C_17
REMARK    7  A    between atoms: C_17  and  C_18
REMARK    8  A    between atoms: C_18  and  C_19
REMARK                            x       y       z     vdW  Elec       q    Type
REMARK                         _______ _______ _______ _____ _____    ______ ____
ROOT
ATOM      1  C   UNL     1       2.773  -2.568   4.186  0.00  0.00    +0.103 C 
ATOM      2  N   UNL     1       3.355  -1.971   5.193  0.00  0.00    -0.174 NA
ATOM      3  N   UNL     1       3.628  -2.891   6.207  0.00  0.00    -0.157 N 
ATOM      4  C   UNL     1       3.210  -4.118   5.841  0.00  0.00    +0.272 C 
ATOM      5  O   UNL     1       3.300  -5.141   6.499  0.00  0.00    -0.268 OA
ATOM      6  C   UNL     1       2.638  -3.994   4.544  0.00  0.00    +0.079 C 
ATOM      7  C   UNL     1       2.076  -4.998   3.779  0.00  0.00    +0.082 C 
ENDROOT
BRANCH   3   8
ATOM      8  C   UNL     1       4.275  -2.570   7.481  0.00  0.00    +0.249 C 
ATOM      9  N   UNL     1       5.585  -1.941   7.264  0.00  0.00    -0.315 N 
ATOM     10  C   UNL     1       5.762  -0.641   7.735  0.00  0.00    +0.043 A 
ATOM     11  C   UNL     1       6.940   0.119   7.621  0.00  0.00    +0.024 A 
ATOM     12  C   UNL     1       7.014   1.398   8.121  0.00  0.00    +0.002 A 
ATOM     13  C   UNL     1       5.932   1.982   8.753  0.00  0.00    +0.001 A 
ATOM     14  C   UNL     1       4.759   1.257   8.880  0.00  0.00    +0.016 A 
ATOM     15  C   UNL     1       4.686  -0.023   8.380  0.00  0.00    +0.032 A 
ATOM     16  S   UNL     1       3.377  -1.229   8.359  0.00  0.00    -0.080 S 
ATOM     17  H   UNL     1       6.301  -2.413   6.811  0.00  0.00    +0.149 HD
ENDBRANCH   3   8
BRANCH   1  21
ATOM     18  C   UNL     1       1.495  -0.743   0.565  0.00  0.00    +0.120 A 
ATOM     19  C   UNL     1       1.890  -2.074   0.568  0.00  0.00    +0.046 A 
ATOM     20  C   UNL     1       2.305  -2.669   1.740  0.00  0.00    +0.013 A 
ATOM     21  C   UNL     1       2.328  -1.932   2.924  0.00  0.00    +0.003 A 
ATOM     22  C   UNL     1       1.931  -0.595   2.918  0.00  0.00    +0.013 A 
ATOM     23  C   UNL     1       1.522  -0.005   1.741  0.00  0.00    +0.046 A 
BRANCH  18  25
ATOM     24  C   UNL     1       1.082  -0.976  -1.765  0.00  0.00    +0.277 C 
ATOM     25  O   UNL     1       1.085  -0.160  -0.592  0.00  0.00    -0.495 OA
ENDBRANCH  18  25
ENDBRANCH   1  21
BRANCH   7  26
ATOM     26  N   UNL     1       2.134  -6.279   4.199  0.00  0.00    -0.349 N 
ATOM     27  H   UNL     1       2.571  -6.495   5.038  0.00  0.00    +0.146 HD
BRANCH  26  28
ATOM     28  C   UNL     1       1.538  -7.344   3.388  0.00  0.00    +0.107 C 
BRANCH  28  29
ATOM     29  C   UNL     1       1.742  -8.691   4.085  0.00  0.00    +0.073 C 
BRANCH  29  30
ATOM     30  C   UNL     1       1.129  -9.786   3.251  0.00  0.00    +0.035 A 
ATOM     31  H   UNL     1       0.954 -11.952   1.013  0.00  0.00    +0.166 HD
ATOM     32  C   UNL     1       1.722 -10.425   2.225  0.00  0.00    +0.105 A 
ATOM     33  N   UNL     1       0.819 -11.338   1.752  0.00  0.00    -0.352 N 
ATOM     34  C   UNL     1      -0.296 -11.226   2.506  0.00  0.00    +0.171 A 
ATOM     35  N   UNL     1      -0.101 -10.298   3.403  0.00  0.00    -0.350 N 
ATOM     36  H   UNL     1      -0.746 -10.022   4.074  0.00  0.00    +0.166 HD
ENDBRANCH  29  30
ENDBRANCH  28  29
ENDBRANCH  26  28
ENDBRANCH   7  26
TORSDOF 7
