REMARK  Name = ZINC12206264
REMARK  12 active torsions:
REMARK  status: ('A' for Active; 'I' for Inactive)
REMARK    1  A    between atoms: C_1  and  C_2
REMARK    2  A    between atoms: C_2  and  C_3
REMARK    3  A    between atoms: C_2  and  C_4
REMARK    4  A    between atoms: C_4  and  C_5
REMARK    5  A    between atoms: C_8  and  C_11
REMARK    6  A    between atoms: C_11  and  N_70
REMARK    7  A    between atoms: C_15  and  C_25
REMARK    8  A    between atoms: C_16  and  O_23
REMARK    9  A    between atoms: O_23  and  C_24
REMARK   10  A    between atoms: N_27  and  C_28
REMARK   11  A    between atoms: C_28  and  C_30
REMARK   12  A    between atoms: C_28  and  C_31
REMARK                            x       y       z     vdW  Elec       q    Type
REMARK                         _______ _______ _______ _____ _____    ______ ____
ROOT
ATOM      1  C   UNL     1      -8.297   0.330   2.365  0.00  0.00    -0.072 C 
ATOM      2  C   UNL     1      -9.131   0.826   1.185  0.00  0.00    +0.036 C 
ATOM      3  C   UNL     1      -9.874   2.093   1.530  0.00  0.00    +0.036 A 
ATOM      4  C   UNL     1     -11.069   2.314   0.862  0.00  0.00    +0.098 A 
ATOM      5  C   UNL     1     -11.814   3.550   1.107  0.00  0.00    +0.139 A 
ATOM      6  C   UNL     1     -11.281   4.456   2.002  0.00  0.00    +0.116 A 
ATOM      7  C   UNL     1     -10.077   4.150   2.638  0.00  0.00    +0.255 A 
ATOM      8  O   UNL     1      -9.602   4.957   3.420  0.00  0.00    -0.268 OA
ATOM      9  N   UNL     1      -9.419   2.989   2.415  0.00  0.00    -0.313 N 
ATOM     10  C   UNL     1      -8.198   2.772   3.198  0.00  0.00    +0.106 C 
ATOM     11  C   UNL     1      -7.026   2.382   2.296  0.00  0.00    -0.056 C 
ATOM     12  N   UNL     1      -6.941   0.910   2.282  0.00  0.00    +0.384 N 
ATOM     13  H   UNL     1      -6.394   0.599   3.093  0.00  0.00    -0.081 HD
ENDROOT
BRANCH   4  14
ATOM     14  C   UNL     1     -11.585   1.314  -0.088  0.00  0.00    +0.250 C 
ATOM     15  O   UNL     1     -12.466   0.548   0.253  0.00  0.00    -0.270 OA
ATOM     16  N   UNL     1     -11.080   1.247  -1.336  0.00  0.00    -0.302 N 
ATOM     17  H   UNL     1     -10.328   1.806  -1.586  0.00  0.00    +0.150 HD
BRANCH  16  18
ATOM     18  C   UNL     1     -11.667   0.329  -2.316  0.00  0.00    +0.136 C 
ATOM     19  C   UNL     1     -11.047  -1.060  -2.148  0.00  0.00    +0.036 C 
BRANCH  18  20
ATOM     20  C   UNL     1     -11.392   0.837  -3.708  0.00  0.00    +0.125 A 
ATOM     21  C   UNL     1     -12.256   0.813  -4.738  0.00  0.00    +0.046 A 
ATOM     22  C   UNL     1     -11.588   1.386  -5.846  0.00  0.00    +0.041 A 
ATOM     23  C   UNL     1     -10.357   1.725  -5.425  0.00  0.00    +0.195 A 
ATOM     24  O   UNL     1     -10.245   1.396  -4.128  0.00  0.00    -0.466 OA
ENDBRANCH  18  20
ENDBRANCH  16  18
ENDBRANCH   4  14
BRANCH   5  25
ATOM     25  O   UNL     1     -12.987   3.795   0.478  0.00  0.00    -0.494 OA
ATOM     26  C   UNL     1     -13.641   5.029   0.784  0.00  0.00    +0.277 C 
ENDBRANCH   5  25
BRANCH  12  27
ATOM     27  C   UNL     1      -6.270   0.453   1.046  0.00  0.00    -0.043 C 
BRANCH  27  31
ATOM     28  C   UNL     1      -2.176   1.669   1.162  0.00  0.00    -0.047 A 
ATOM     29  C   UNL     1      -3.127   2.496   0.595  0.00  0.00    +0.004 A 
ATOM     30  C   UNL     1      -4.451   2.101   0.553  0.00  0.00    +0.002 A 
ATOM     31  C   UNL     1      -4.826   0.882   1.088  0.00  0.00    -0.064 A 
ATOM     32  C   UNL     1      -3.875   0.057   1.660  0.00  0.00    +0.002 A 
ATOM     33  C   UNL     1      -2.551   0.450   1.697  0.00  0.00    +0.004 A 
BRANCH  28  34
ATOM     34  C   UNL     1      -0.732   2.097   1.203  0.00  0.00    +0.038 C 
BRANCH  34  36
ATOM     35  C   UNL     1       0.012   0.083  -0.074  0.00  0.00    +0.007 C 
ATOM     36  C   UNL     1      -0.020   1.613  -0.062  0.00  0.00    -0.013 C 
ATOM     37  C   UNL     1       1.411   2.153  -0.080  0.00  0.00    +0.007 C 
ENDBRANCH  34  36
ENDBRANCH  28  34
ENDBRANCH  27  31
ENDBRANCH  12  27
TORSDOF 8
