REMARK  Name = ZINC15841721
REMARK  5 active torsions:
REMARK  status: ('A' for Active; 'I' for Inactive)
REMARK    1  A    between atoms: C_1  and  C_2
REMARK    2  A    between atoms: C_2  and  C_3
REMARK    3  A    between atoms: C_3  and  C_27
REMARK    4  A    between atoms: N_15  and  C_20
REMARK    5  A    between atoms: C_23  and  C_26
REMARK                            x       y       z     vdW  Elec       q    Type
REMARK                         _______ _______ _______ _____ _____    ______ ____
ROOT
ATOM      1  C   UNL     1      -0.893   0.834   2.429  0.00  0.00    +0.004 C 
ATOM      2  C   UNL     1      -0.330   2.253   2.415  0.00  0.00    +0.047 C 
ATOM      3  C   UNL     1      -1.346   3.225   2.950  0.00  0.00    -0.037 A 
ATOM      4  C   UNL     1      -0.949   4.321   3.686  0.00  0.00    +0.004 A 
ATOM      5  C   UNL     1      -1.893   5.212   4.166  0.00  0.00    +0.000 A 
ATOM      6  C   UNL     1      -3.239   5.011   3.913  0.00  0.00    +0.001 A 
ATOM      7  C   UNL     1      -3.651   3.917   3.179  0.00  0.00    +0.010 A 
ATOM      8  C   UNL     1      -2.704   3.017   2.694  0.00  0.00    +0.002 A 
ATOM      9  C   UNL     1      -3.112   1.836   1.908  0.00  0.00    +0.060 A 
ATOM     10  C   UNL     1      -2.243   0.793   1.771  0.00  0.00    +0.048 A 
ATOM     11  C   UNL     1      -2.633  -0.323   1.003  0.00  0.00    +0.265 A 
ATOM     12  O   UNL     1      -1.875  -1.265   0.859  0.00  0.00    -0.267 OA
ATOM     13  N   UNL     1      -3.853  -0.337   0.429  0.00  0.00    -0.229 N 
ATOM     14  C   UNL     1      -4.698   0.699   0.584  0.00  0.00    +0.334 A 
ATOM     15  O   UNL     1      -5.794   0.660   0.060  0.00  0.00    -0.246 OA
ATOM     16  N   UNL     1      -4.348   1.778   1.309  0.00  0.00    -0.306 N 
ATOM     17  H   UNL     1      -4.970   2.516   1.410  0.00  0.00    +0.170 HD
ATOM     18  C   UNL     1       0.063  -0.095   1.677  0.00  0.00    +0.016 C 
ENDROOT
BRANCH  13  19
ATOM     19  C   UNL     1      -4.246  -1.443  -0.336  0.00  0.00    +0.054 A 
ATOM     20  C   UNL     1      -3.952  -1.491  -1.692  0.00  0.00    +0.026 A 
ATOM     21  C   UNL     1      -4.336  -2.586  -2.442  0.00  0.00    +0.005 A 
ATOM     22  C   UNL     1      -5.023  -3.627  -1.846  0.00  0.00    -0.050 A 
ATOM     23  C   UNL     1      -5.322  -3.580  -0.497  0.00  0.00    +0.005 A 
ATOM     24  C   UNL     1      -4.936  -2.491   0.260  0.00  0.00    +0.026 A 
ATOM     25  C   UNL     1      -5.446  -4.817  -2.669  0.00  0.00    +0.044 C 
ENDBRANCH  13  19
BRANCH   1  27
ATOM     26  C   UNL     1       0.352   0.384   4.548  0.00  0.00    +0.005 C 
ATOM     27  C   UNL     1      -1.023   0.358   3.877  0.00  0.00    +0.008 C 
ENDBRANCH   1  27
TORSDOF 2
