REMARK  Name = ZINC34748180
REMARK  8 active torsions:
REMARK  status: ('A' for Active; 'I' for Inactive)
REMARK    1  A    between atoms: C_1  and  C_2
REMARK    2  A    between atoms: C_2  and  C_3
REMARK    3  A    between atoms: C_3  and  C_4
REMARK    4  A    between atoms: C_4  and  N_5
REMARK    5  A    between atoms: N_18  and  C_21
REMARK    6  A    between atoms: C_21  and  C_22
REMARK    7  A    between atoms: N_24  and  C_25
REMARK    8  A    between atoms: C_30  and  C_31
REMARK                            x       y       z     vdW  Elec       q    Type
REMARK                         _______ _______ _______ _____ _____    ______ ____
ROOT
ATOM      1  N   UNL     1      -4.221  -2.031  -0.515  0.00  0.00    -0.280 N 
ATOM      2  C   UNL     1      -4.794  -2.254   0.682  0.00  0.00    +0.264 A 
ATOM      3  O   UNL     1      -5.334  -1.345   1.290  0.00  0.00    -0.267 OA
ATOM      4  C   UNL     1      -4.759  -3.575   1.231  0.00  0.00    +0.076 A 
ATOM      5  C   UNL     1      -5.317  -4.039   2.512  0.00  0.00    -0.023 A 
ATOM      6  C   UNL     1      -5.156  -5.338   2.809  0.00  0.00    -0.004 A 
ATOM      7  S   UNL     1      -4.269  -6.020   1.428  0.00  0.00    -0.073 S 
ATOM      8  C   UNL     1      -4.116  -4.547   0.453  0.00  0.00    +0.117 A 
ATOM      9  N   UNL     1      -3.568  -4.261  -0.724  0.00  0.00    -0.208 NA
ATOM     10  C   UNL     1      -3.618  -3.038  -1.210  0.00  0.00    +0.202 A 
ATOM     11  N   UNL     1      -3.050  -2.772  -2.431  0.00  0.00    -0.304 N 
ATOM     12  C   UNL     1      -1.639  -2.371  -2.537  0.00  0.00    +0.089 C 
ATOM     13  C   UNL     1      -0.960  -3.256  -3.588  0.00  0.00    -0.059 C 
ATOM     14  N   UNL     1      -1.709  -3.178  -4.849  0.00  0.00    +0.387 N 
ATOM     15  C   UNL     1      -3.053  -3.740  -4.668  0.00  0.00    -0.059 C 
ATOM     16  C   UNL     1      -3.834  -2.884  -3.671  0.00  0.00    +0.089 C 
ATOM     17  C   UNL     1      -5.760  -5.696   4.141  0.00  0.00    +0.043 C 
ATOM     18  C   UNL     1      -5.958  -4.340   4.854  0.00  0.00    +0.010 C 
ATOM     19  C   UNL     1      -6.084  -3.374   3.659  0.00  0.00    +0.037 C 
ATOM     20  H   UNL     1      -1.784  -2.213  -5.135  0.00  0.00    -0.081 HD
ENDROOT
BRANCH   1  21
ATOM     21  C   UNL     1      -4.252  -0.682  -1.087  0.00  0.00    +0.128 C 
BRANCH  21  22
ATOM     22  C   UNL     1      -5.552  -0.489  -1.870  0.00  0.00    +0.021 C 
BRANCH  22  24
ATOM     23  C   UNL     1      -6.883   1.112  -3.250  0.00  0.00    +0.004 C 
ATOM     24  C   UNL     1      -5.583   0.919  -2.466  0.00  0.00    -0.002 C 
ENDBRANCH  22  24
ENDBRANCH  21  22
ENDBRANCH   1  21
BRANCH  14  25
ATOM     25  C   UNL     1      -0.998  -3.938  -5.886  0.00  0.00    +0.019 C 
BRANCH  25  26
ATOM     26  C   UNL     1      -1.698  -3.759  -7.208  0.00  0.00    +0.201 C 
ATOM     27  O   UNL     1      -2.691  -3.066  -7.280  0.00  0.00    -0.278 OA
ATOM     28  N   UNL     1      -1.220  -4.369  -8.311  0.00  0.00    -0.287 N 
ATOM     29  H   UNL     1      -0.471  -4.980  -8.241  0.00  0.00    +0.155 HD
BRANCH  28  30
ATOM     30  C   UNL     1      -1.806  -4.119  -9.557  0.00  0.00    +0.036 A 
ATOM     31  C   UNL     1      -3.166  -3.853  -9.647  0.00  0.00    +0.023 A 
ATOM     32  C   UNL     1      -3.740  -3.607 -10.878  0.00  0.00    +0.002 A 
ATOM     33  C   UNL     1      -2.963  -3.626 -12.022  0.00  0.00    +0.000 A 
ATOM     34  C   UNL     1      -1.609  -3.890 -11.936  0.00  0.00    +0.005 A 
ATOM     35  C   UNL     1      -1.027  -4.131 -10.707  0.00  0.00    -0.029 A 
ATOM     36  C   UNL     1       0.451  -4.412 -10.614  0.00  0.00    +0.045 C 
ENDBRANCH  28  30
ENDBRANCH  25  26
ENDBRANCH  14  25
TORSDOF 6
