REMARK  Name = ZINC04761600
REMARK  9 active torsions:
REMARK  status: ('A' for Active; 'I' for Inactive)
REMARK    1  A    between atoms: C_1  and  C_2
REMARK    2  A    between atoms: C_2  and  C_3
REMARK    3  A    between atoms: C_3  and  C_5
REMARK    4  A    between atoms: C_3  and  C_6
REMARK    5  A    between atoms: C_6  and  C_8
REMARK    6  A    between atoms: C_6  and  N_22
REMARK    7  A    between atoms: C_14  and  C_16
REMARK    8  A    between atoms: N_25  and  C_26
REMARK    9  A    between atoms: C_31  and  C_32
REMARK                            x       y       z     vdW  Elec       q    Type
REMARK                         _______ _______ _______ _____ _____    ______ ____
ROOT
ATOM      1  C   UNL     1      -2.176  -4.469  -0.324  0.00  0.00    +0.163 C 
ENDROOT
BRANCH   1   2
ATOM      2  C   UNL     1      -3.572  -4.774   0.153  0.00  0.00    +0.239 C 
ATOM      3  O   UNL     1      -4.288  -3.876   0.544  0.00  0.00    -0.273 OA
ATOM      4  N   UNL     1      -4.026  -6.043   0.145  0.00  0.00    -0.262 N 
ATOM      5  C   UNL     1      -5.346  -6.311   0.485  0.00  0.00    +0.188 A 
ATOM      6  N   UNL     1      -6.308  -5.478   0.848  0.00  0.00    -0.125 NA
ATOM      7  N   UNL     1      -7.472  -5.881   1.124  0.00  0.00    -0.140 NA
ATOM      8  C   UNL     1      -7.765  -7.174   1.069  0.00  0.00    +0.134 A 
ATOM      9  S   UNL     1      -6.183  -7.834   0.557  0.00  0.00    -0.030 S 
ATOM     10  H   UNL     1      -3.431  -6.769  -0.099  0.00  0.00    +0.157 HD
BRANCH   8  11
ATOM     11  C   UNL     1      -9.038  -7.872   1.350  0.00  0.00    +0.009 A 
ATOM     12  C   UNL     1      -9.120  -9.259   1.219  0.00  0.00    +0.010 A 
ATOM     13  C   UNL     1     -10.310  -9.904   1.488  0.00  0.00    +0.001 A 
ATOM     14  C   UNL     1     -11.422  -9.178   1.875  0.00  0.00    +0.000 A 
ATOM     15  C   UNL     1     -11.348  -7.803   2.002  0.00  0.00    +0.001 A 
ATOM     16  C   UNL     1     -10.163  -7.146   1.741  0.00  0.00    +0.010 A 
ENDBRANCH   8  11
ENDBRANCH   1   2
BRANCH   1  17
ATOM     17  N   UNL     1      -1.935  -3.026  -0.243  0.00  0.00    -0.288 N 
ATOM     18  C   UNL     1      -0.726  -2.565   0.133  0.00  0.00    +0.304 C 
ATOM     19  O   UNL     1       0.189  -3.342   0.325  0.00  0.00    -0.252 OA
ATOM     20  N   UNL     1      -0.531  -1.241   0.295  0.00  0.00    -0.269 N 
ATOM     21  H   UNL     1      -2.646  -2.403  -0.460  0.00  0.00    +0.151 HD
ATOM     22  H   UNL     1      -1.276  -0.627   0.207  0.00  0.00    +0.156 HD
BRANCH  20  23
ATOM     23  C   UNL     1       0.747  -0.754   0.592  0.00  0.00    +0.038 A 
ATOM     24  C   UNL     1       1.626  -1.518   1.348  0.00  0.00    +0.023 A 
ATOM     25  C   UNL     1       2.886  -1.035   1.638  0.00  0.00    +0.002 A 
ATOM     26  C   UNL     1       3.274   0.210   1.176  0.00  0.00    +0.000 A 
ATOM     27  C   UNL     1       2.401   0.974   0.423  0.00  0.00    +0.005 A 
ATOM     28  C   UNL     1       1.139   0.496   0.130  0.00  0.00    -0.029 A 
ATOM     29  C   UNL     1       0.191   1.326  -0.696  0.00  0.00    +0.045 C 
ENDBRANCH  20  23
ENDBRANCH   1  17
BRANCH   1  30
ATOM     30  C   UNL     1      -2.020  -4.932  -1.774  0.00  0.00    +0.015 C 
ATOM     31  C   UNL     1      -0.559  -4.781  -2.204  0.00  0.00    +0.010 C 
BRANCH  30  33
ATOM     32  C   UNL     1      -4.379  -4.354  -2.361  0.00  0.00    +0.004 C 
ATOM     33  C   UNL     1      -2.909  -4.077  -2.680  0.00  0.00    +0.002 C 
ENDBRANCH  30  33
ENDBRANCH   1  30
TORSDOF 6
