REMARK  Name = ZINC35173621
REMARK  11 active torsions:
REMARK  status: ('A' for Active; 'I' for Inactive)
REMARK    1  A    between atoms: C_4  and  N_7
REMARK    2  A    between atoms: C_8  and  C_28
REMARK    3  A    between atoms: C_11  and  S_12
REMARK    4  A    between atoms: S_12  and  C_13
REMARK    5  A    between atoms: C_13  and  C_14
REMARK    6  A    between atoms: C_14  and  C_15
REMARK    7  A    between atoms: C_15  and  C_16
REMARK    8  A    between atoms: C_16  and  C_17
REMARK    9  A    between atoms: N_19  and  C_20
REMARK   10  A    between atoms: C_20  and  C_21
REMARK   11  A    between atoms: C_31  and  N_34
REMARK                            x       y       z     vdW  Elec       q    Type
REMARK                         _______ _______ _______ _____ _____    ______ ____
ROOT
ATOM      1  N   UNL     1       3.643  -0.619  -0.058  0.00  0.00    -0.270 N 
ATOM      2  C   UNL     1       4.077  -1.528  -0.999  0.00  0.00    +0.169 A 
ATOM      3  N   UNL     1       5.248  -1.966  -0.599  0.00  0.00    -0.128 NA
ATOM      4  N   UNL     1       5.573  -1.403   0.510  0.00  0.00    -0.122 NA
ATOM      5  C   UNL     1       4.632  -0.566   0.885  0.00  0.00    +0.196 A 
ENDROOT
BRANCH   1   9
ATOM      6  C   UNL     1       0.071   1.530  -0.092  0.00  0.00    +0.000 A 
ATOM      7  C   UNL     1       1.274   2.189  -0.267  0.00  0.00    +0.002 A 
ATOM      8  C   UNL     1       2.459   1.479  -0.256  0.00  0.00    +0.026 A 
ATOM      9  C   UNL     1       2.442   0.104  -0.069  0.00  0.00    +0.051 A 
ATOM     10  C   UNL     1       1.232  -0.555   0.106  0.00  0.00    +0.026 A 
ATOM     11  C   UNL     1       0.050   0.160   0.094  0.00  0.00    +0.002 A 
ENDBRANCH   1   9
BRANCH   2  12
ATOM     12  C   UNL     1       3.359  -1.933  -2.226  0.00  0.00    +0.020 A 
ATOM     13  C   UNL     1       2.324  -1.142  -2.726  0.00  0.00    +0.014 A 
ATOM     14  C   UNL     1       1.658  -1.527  -3.872  0.00  0.00    +0.033 A 
ATOM     15  C   UNL     1       2.014  -2.694  -4.524  0.00  0.00    +0.126 A 
ATOM     16  C   UNL     1       3.039  -3.483  -4.033  0.00  0.00    +0.033 A 
ATOM     17  C   UNL     1       3.717  -3.107  -2.892  0.00  0.00    +0.014 A 
BRANCH  15  18
ATOM     18  N   UNL     1       1.295  -3.100  -5.753  0.00  0.00    +0.056 N 
ATOM     19  O   UNL     1       0.399  -2.413  -6.184  0.00  0.00    -0.126 OA
ATOM     20  O   UNL     1       1.604  -4.120  -6.324  0.00  0.00    -0.126 OA
ENDBRANCH  15  18
ENDBRANCH   2  12
BRANCH   5  21
ATOM     21  S   UNL     1       4.641   0.436   2.335  0.00  0.00    -0.086 S 
BRANCH  21  22
ATOM     22  C   UNL     1       6.217   0.033   3.137  0.00  0.00    +0.077 C 
BRANCH  22  23
ATOM     23  C   UNL     1       6.355   0.845   4.426  0.00  0.00    +0.012 C 
BRANCH  23  24
ATOM     24  C   UNL     1       7.685   0.505   5.103  0.00  0.00    +0.010 C 
BRANCH  24  25
ATOM     25  C   UNL     1       7.823   1.317   6.392  0.00  0.00    +0.096 C 
BRANCH  25  26
ATOM     26  C   UNL     1       9.133   0.982   7.058  0.00  0.00    +0.213 C 
ATOM     27  O   UNL     1       9.882   0.175   6.551  0.00  0.00    -0.276 OA
ATOM     28  N   UNL     1       9.472   1.581   8.217  0.00  0.00    -0.311 N 
ATOM     29  H   UNL     1       8.873   2.227   8.623  0.00  0.00    +0.149 HD
BRANCH  28  30
ATOM     30  C   UNL     1      10.745   1.256   8.865  0.00  0.00    +0.139 C 
BRANCH  30  31
ATOM     31  C   UNL     1      10.881   2.055  10.135  0.00  0.00    -0.030 A 
ATOM     32  C   UNL     1      11.474   3.304  10.105  0.00  0.00    +0.008 A 
ATOM     33  C   UNL     1      11.599   4.038  11.270  0.00  0.00    +0.038 A 
ATOM     34  C   UNL     1      11.130   3.522  12.466  0.00  0.00    +0.123 A 
ATOM     35  C   UNL     1      10.537   2.271  12.495  0.00  0.00    +0.038 A 
ATOM     36  C   UNL     1      10.409   1.542  11.328  0.00  0.00    +0.008 A 
ATOM     37  F   UNL     1      11.252   4.239  13.605  0.00  0.00    -0.205 F 
ENDBRANCH  30  31
ENDBRANCH  28  30
ENDBRANCH  25  26
ENDBRANCH  24  25
ENDBRANCH  23  24
ENDBRANCH  22  23
ENDBRANCH  21  22
ENDBRANCH   5  21
TORSDOF 11
