REMARK  Name = ZINC12070792
REMARK  15 active torsions:
REMARK  status: ('A' for Active; 'I' for Inactive)
REMARK    1  A    between atoms: C_1  and  C_2
REMARK    2  A    between atoms: C_2  and  N_69
REMARK    3  A    between atoms: C_3  and  C_4
REMARK    4  A    between atoms: C_3  and  N_69
REMARK    5  A    between atoms: C_5  and  C_6
REMARK    6  A    between atoms: C_5  and  N_69
REMARK    7  A    between atoms: C_6  and  N_7
REMARK    8  A    between atoms: C_11  and  C_18
REMARK    9  A    between atoms: C_14  and  C_17
REMARK   10  A    between atoms: C_19  and  C_21
REMARK   11  A    between atoms: C_21  and  C_22
REMARK   12  A    between atoms: C_25  and  S_28
REMARK   13  A    between atoms: S_28  and  C_31
REMARK   14  A    between atoms: C_31  and  C_32
REMARK   15  A    between atoms: C_31  and  C_33
REMARK                            x       y       z     vdW  Elec       q    Type
REMARK                         _______ _______ _______ _____ _____    ______ ____
ROOT
ATOM      1  N   UNL     1      -2.245   2.641   7.631  0.00  0.00    -0.252 N 
ATOM      2  C   UNL     1      -1.467   2.187   8.684  0.00  0.00    +0.168 A 
ATOM      3  N   UNL     1      -1.685   2.292   9.974  0.00  0.00    -0.224 NA
ATOM      4  C   UNL     1      -0.835   1.793  10.897  0.00  0.00    +0.083 A 
ATOM      5  C   UNL     1      -0.954   1.834  12.306  0.00  0.00    -0.024 A 
ATOM      6  C   UNL     1       0.011   1.281  13.106  0.00  0.00    +0.006 A 
ATOM      7  C   UNL     1       1.132   0.664  12.569  0.00  0.00    +0.005 A 
ATOM      8  C   UNL     1       1.280   0.606  11.196  0.00  0.00    -0.035 A 
ATOM      9  C   UNL     1       0.319   1.157  10.386  0.00  0.00    +0.044 A 
ATOM     10  S   UNL     1       0.093   1.316   8.631  0.00  0.00    -0.052 S 
ATOM     11  C   UNL     1       2.490  -0.060  10.591  0.00  0.00    +0.045 C 
ATOM     12  C   UNL     1      -2.154   2.494  12.934  0.00  0.00    +0.046 C 
ATOM     13  C   UNL     1      -1.843   2.440   6.361  0.00  0.00    +0.225 C 
ATOM     14  O   UNL     1      -0.800   1.861   6.139  0.00  0.00    -0.275 OA
ENDROOT
BRANCH   1  15
ATOM     15  C   UNL     1      -3.504   3.340   7.899  0.00  0.00    +0.097 C 
BRANCH  15  16
ATOM     16  C   UNL     1      -4.646   2.324   7.969  0.00  0.00    -0.059 C 
BRANCH  16  17
ATOM     17  N   UNL     1      -5.880   3.027   8.380  0.00  0.00    +0.380 N 
ATOM     18  H   UNL     1      -5.652   3.691   9.129  0.00  0.00    -0.082 HD
BRANCH  17  20
ATOM     19  C   UNL     1      -7.581   4.662   7.735  0.00  0.00    -0.017 C 
ATOM     20  C   UNL     1      -6.443   3.772   7.234  0.00  0.00    -0.082 C 
ENDBRANCH  17  20
BRANCH  17  21
ATOM     21  C   UNL     1      -6.871   2.054   8.885  0.00  0.00    -0.082 C 
ATOM     22  C   UNL     1      -6.473   1.641  10.304  0.00  0.00    -0.017 C 
ENDBRANCH  17  21
ENDBRANCH  16  17
ENDBRANCH  15  16
ENDBRANCH   1  15
BRANCH  13  23
ATOM     23  C   UNL     1      -2.688   2.934   5.215  0.00  0.00    +0.131 C 
BRANCH  23  24
ATOM     24  C   UNL     1      -2.021   2.585   3.910  0.00  0.00    -0.038 A 
ATOM     25  C   UNL     1      -2.298   1.380   3.292  0.00  0.00    +0.006 A 
ATOM     26  C   UNL     1      -1.685   1.060   2.095  0.00  0.00    +0.027 A 
ATOM     27  C   UNL     1      -0.796   1.945   1.516  0.00  0.00    +0.088 A 
ATOM     28  C   UNL     1      -0.514   3.147   2.136  0.00  0.00    +0.027 A 
ATOM     29  C   UNL     1      -1.131   3.470   3.331  0.00  0.00    +0.006 A 
BRANCH  27  30
ATOM     30  S   UNL     1      -0.015   1.536  -0.010  0.00  0.00    -0.001 S 
ATOM     31  O   UNL     1      -0.002   0.116  -0.042  0.00  0.00    -0.169 OA
ATOM     32  O   UNL     1       1.201   2.272  -0.003  0.00  0.00    -0.169 OA
BRANCH  30  33
ATOM     33  C   UNL     1      -1.127   2.180  -1.290  0.00  0.00    +0.130 C 
ATOM     34  C   UNL     1      -1.280   3.693  -1.119  0.00  0.00    +0.032 C 
ATOM     35  C   UNL     1      -0.543   1.879  -2.672  0.00  0.00    +0.032 C 
ENDBRANCH  30  33
ENDBRANCH  27  30
ENDBRANCH  23  24
ENDBRANCH  13  23
TORSDOF 9
