REMARK  Name = ZINC40312574
REMARK  7 active torsions:
REMARK  status: ('A' for Active; 'I' for Inactive)
REMARK    1  A    between atoms: C_1  and  C_2
REMARK    2  A    between atoms: C_2  and  C_3
REMARK    3  A    between atoms: C_2  and  C_4
REMARK    4  A    between atoms: C_4  and  C_6
REMARK    5  A    between atoms: C_4  and  N_12
REMARK    6  A    between atoms: C_13  and  C_15
REMARK    7  A    between atoms: C_17  and  N_21
REMARK                            x       y       z     vdW  Elec       q    Type
REMARK                         _______ _______ _______ _____ _____    ______ ____
ROOT
ATOM      1  N   UNL     1      -2.105  -0.148  -1.230  0.00  0.00    -0.303 N 
ATOM      2  C   UNL     1      -1.970  -0.910  -2.334  0.00  0.00    +0.261 C 
ATOM      3  O   UNL     1      -1.289  -1.918  -2.297  0.00  0.00    -0.269 OA
ATOM      4  H   UNL     1      -2.648   0.655  -1.260  0.00  0.00    +0.150 HD
ENDROOT
BRANCH   2   5
ATOM      5  C   UNL     1      -2.643  -0.525  -3.579  0.00  0.00    +0.104 A 
ATOM      6  C   UNL     1      -2.596  -1.210  -4.775  0.00  0.00    +0.055 A 
ATOM      7  C   UNL     1      -3.377  -0.492  -5.692  0.00  0.00    +0.043 A 
ATOM      8  C   UNL     1      -3.876   0.596  -5.050  0.00  0.00    +0.106 A 
ATOM      9  N   UNL     1      -3.439   0.583  -3.762  0.00  0.00    -0.355 N 
ATOM     10  H   UNL     1      -3.651   1.244  -3.085  0.00  0.00    +0.166 HD
BRANCH   7  11
ATOM     11  N   UNL     1      -3.604  -0.838  -7.037  0.00  0.00    -0.357 N 
ATOM     12  H   UNL     1      -3.202  -1.639  -7.407  0.00  0.00    +0.142 HD
ATOM     13  H   UNL     1      -4.163  -0.274  -7.595  0.00  0.00    +0.142 HD
ENDBRANCH   7  11
ENDBRANCH   2   5
BRANCH   1  14
ATOM     14  C   UNL     1      -1.433  -0.534   0.013  0.00  0.00    +0.106 C 
BRANCH  14  15
ATOM     15  C   UNL     1      -2.175   0.051   1.187  0.00  0.00    -0.027 A 
ATOM     16  C   UNL     1      -2.691   1.331   1.111  0.00  0.00    +0.005 A 
ATOM     17  C   UNL     1      -3.372   1.867   2.188  0.00  0.00    +0.000 A 
ATOM     18  C   UNL     1      -3.538   1.123   3.341  0.00  0.00    +0.000 A 
ATOM     19  C   UNL     1      -3.023  -0.158   3.417  0.00  0.00    +0.000 A 
ATOM     20  C   UNL     1      -2.346  -0.696   2.338  0.00  0.00    +0.005 A 
ENDBRANCH  14  15
BRANCH  14  22
ATOM     21  C   UNL     1      -0.019   1.526   0.010  0.00  0.00    +0.009 C 
ATOM     22  C   UNL     1       0.002  -0.004   0.002  0.00  0.00    +0.008 C 
ATOM     23  C   UNL     1       0.742  -0.511   1.242  0.00  0.00    +0.009 C 
ENDBRANCH  14  22
ENDBRANCH   1  14
TORSDOF 5
