REMARK  Name = ZINC63588630
REMARK  8 active torsions:
REMARK  status: ('A' for Active; 'I' for Inactive)
REMARK    1  A    between atoms: C_1  and  O_2
REMARK    2  A    between atoms: O_2  and  C_3
REMARK    3  A    between atoms: C_8  and  N_9
REMARK    4  A    between atoms: N_11  and  C_12
REMARK    5  A    between atoms: C_12  and  C_13
REMARK    6  A    between atoms: C_13  and  C_14
REMARK    7  A    between atoms: N_23  and  C_24
REMARK    8  A    between atoms: C_24  and  C_26
REMARK                            x       y       z     vdW  Elec       q    Type
REMARK                         _______ _______ _______ _____ _____    ______ ____
ROOT
ATOM      1  N   UNL     1      -0.293  -3.820   1.108  0.00  0.00    -0.325 N 
ATOM      2  C   UNL     1      -0.050  -4.853   0.249  0.00  0.00    +0.194 C 
ATOM      3  N   UNL     1       1.211  -5.060  -0.229  0.00  0.00    -0.357 N 
ATOM      4  N   UNL     1      -1.038  -5.653  -0.120  0.00  0.00    -0.143 NA
ATOM      5  H   UNL     1       1.374  -5.761  -0.879  0.00  0.00    +0.162 HD
ATOM      6  H   UNL     1      -0.462  -3.999   2.046  0.00  0.00    +0.169 HD
ENDROOT
BRANCH   1  12
ATOM      7  C   UNL     1      -0.398  -1.438   1.530  0.00  0.00    +0.143 A 
ATOM      8  C   UNL     1      -0.396  -0.136   1.056  0.00  0.00    +0.048 A 
ATOM      9  C   UNL     1      -0.301   0.105  -0.302  0.00  0.00    +0.004 A 
ATOM     10  C   UNL     1      -0.208  -0.949  -1.191  0.00  0.00    +0.002 A 
ATOM     11  C   UNL     1      -0.209  -2.251  -0.727  0.00  0.00    +0.029 A 
ATOM     12  C   UNL     1      -0.298  -2.502   0.635  0.00  0.00    +0.084 A 
BRANCH   7  14
ATOM     13  C   UNL     1      -0.591  -0.539   3.723  0.00  0.00    +0.277 C 
ATOM     14  O   UNL     1      -0.492  -1.678   2.865  0.00  0.00    -0.493 OA
ENDBRANCH   7  14
ENDBRANCH   1  12
BRANCH   4  15
ATOM     15  C   UNL     1      -2.304  -5.343   0.193  0.00  0.00    +0.270 C 
ATOM     16  O   UNL     1      -2.559  -4.269   0.708  0.00  0.00    -0.268 OA
BRANCH  15  17
ATOM     17  C   UNL     1      -3.391  -6.306  -0.087  0.00  0.00    +0.043 A 
ATOM     18  C   UNL     1      -3.090  -7.582  -0.566  0.00  0.00    +0.017 A 
ATOM     19  C   UNL     1      -4.104  -8.478  -0.826  0.00  0.00    +0.050 A 
ATOM     20  C   UNL     1      -5.428  -8.116  -0.612  0.00  0.00    +0.166 A 
ATOM     21  C   UNL     1      -5.735  -6.843  -0.134  0.00  0.00    +0.167 A 
ATOM     22  C   UNL     1      -4.721  -5.942   0.133  0.00  0.00    +0.062 A 
ATOM     23  O   UNL     1      -7.091  -6.739  -0.011  0.00  0.00    -0.453 OA
ATOM     24  C   UNL     1      -7.631  -7.812  -0.804  0.00  0.00    +0.466 C 
ATOM     25  O   UNL     1      -6.590  -8.807  -0.788  0.00  0.00    -0.453 OA
ENDBRANCH  15  17
ENDBRANCH   4  15
BRANCH   3  26
ATOM     26  C   UNL     1       2.319  -4.224   0.241  0.00  0.00    +0.120 C 
BRANCH  26  27
ATOM     27  C   UNL     1       3.605  -4.628  -0.484  0.00  0.00    +0.054 C 
BRANCH  27  28
ATOM     28  C   UNL     1       4.765  -3.851   0.082  0.00  0.00    -0.040 C 
ATOM     29  C   UNL     1       5.480  -4.149   1.191  0.00  0.00    -0.001 A 
ATOM     30  C   UNL     1       5.394  -5.244   2.165  0.00  0.00    +0.010 A 
ATOM     31  C   UNL     1       6.269  -5.275   3.196  0.00  0.00    +0.001 A 
ATOM     32  C   UNL     1       7.253  -4.291   3.357  0.00  0.00    +0.002 A 
ATOM     33  C   UNL     1       7.395  -3.255   2.504  0.00  0.00    +0.026 A 
ATOM     34  C   UNL     1       6.529  -3.123   1.384  0.00  0.00    +0.043 A 
ATOM     35  N   UNL     1       6.465  -2.224   0.431  0.00  0.00    -0.380 N 
ATOM     36  C   UNL     1       5.371  -2.583  -0.478  0.00  0.00    +0.144 C 
ATOM     37  H   UNL     1       7.046  -1.453   0.340  0.00  0.00    +0.160 HD
ENDBRANCH  27  28
ENDBRANCH  26  27
ENDBRANCH   3  26
TORSDOF 7
