REMARK  Name = ZINC17284395
REMARK  3 active torsions:
REMARK  status: ('A' for Active; 'I' for Inactive)
REMARK    1  A    between atoms: C_1  and  C_7
REMARK    2  A    between atoms: N_2  and  N_3
REMARK    3  A    between atoms: C_8  and  C_9
REMARK                            x       y       z     vdW  Elec       q    Type
REMARK                         _______ _______ _______ _____ _____    ______ ____
ROOT
ATOM      1  C   UNL     1       0.002  -0.004   0.002  0.00  0.00    +0.147 C 
ATOM      2  N   UNL     1      -0.016   1.299   0.009  0.00  0.00    -0.186 NA
ENDROOT
BRANCH   2   3
ATOM      3  N   UNL     1       1.188   2.016   0.002  0.00  0.00    -0.191 N 
ATOM      4  C   UNL     1       1.170   3.364   0.009  0.00  0.00    +0.317 C 
ATOM      5  O   UNL     1       2.214   3.986   0.002  0.00  0.00    -0.251 OA
ATOM      6  N   UNL     1      -0.006   4.022   0.024  0.00  0.00    -0.312 N 
ATOM      7  H   UNL     1       2.148   1.479  -0.011  0.00  0.00    +0.179 HD
ATOM      8  H   UNL     1      -0.021   5.122   0.030  0.00  0.00    +0.147 HD
ATOM      9  H   UNL     1      -0.952   3.459   0.030  0.00  0.00    +0.147 HD
ENDBRANCH   2   3
BRANCH   1  10
ATOM     10  C   UNL     1      -1.214  -0.728   0.010  0.00  0.00    +0.058 C 
ATOM     11  C   UNL     1      -1.196  -2.087   0.002  0.00  0.00    +0.121 C 
ATOM     12 BR   UNL     1       0.455  -3.010  -0.018  0.00  0.00    -0.042 Br
ATOM     13 BR   UNL     1      -2.864   0.195   0.030  0.00  0.00    -0.047 Br
BRANCH  11  14
ATOM     14  C   UNL     1      -2.411  -2.811   0.010  0.00  0.00    +0.394 C 
ATOM     15  O   UNL     1      -3.473  -2.217   0.023  0.00  0.00    -0.240 OA
ATOM     16  O   UNL     1      -2.393  -4.160   0.003  0.00  0.00    -0.240 OA
ENDBRANCH  11  14
ENDBRANCH   1  10
TORSDOF 3
