REMARK  Name = ZINC13498719
REMARK  16 active torsions:
REMARK  status: ('A' for Active; 'I' for Inactive)
REMARK    1  A    between atoms: C_1  and  C_2
REMARK    2  A    between atoms: C_2  and  C_3
REMARK    3  A    between atoms: C_3  and  C_4
REMARK    4  A    between atoms: C_3  and  C_5
REMARK    5  A    between atoms: C_3  and  N_6
REMARK    6  A    between atoms: C_7  and  C_11
REMARK    7  A    between atoms: C_11  and  C_13
REMARK    8  A    between atoms: C_11  and  N_16
REMARK    9  A    between atoms: C_13  and  C_14
REMARK   10  A    between atoms: C_13  and  C_15
REMARK   11  A    between atoms: N_16  and  C_17
REMARK   12  A    between atoms: N_16  and  C_23
REMARK   13  A    between atoms: C_17  and  C_18
REMARK   14  A    between atoms: C_23  and  C_24
REMARK   15  A    between atoms: C_29  and  O_36
REMARK   16  A    between atoms: O_36  and  C_37
REMARK                            x       y       z     vdW  Elec       q    Type
REMARK                         _______ _______ _______ _____ _____    ______ ____
ROOT
ATOM      1  N   UNL     1      -5.153  -2.883  -1.273  0.00  0.00    -0.283 NA
ENDROOT
BRANCH   1   2
ATOM      2  C   UNL     1      -4.241  -2.531  -0.177  0.00  0.00    +0.130 C 
BRANCH   2   4
ATOM      3  N   UNL     1      -1.792  -3.226  -0.332  0.00  0.00    -0.222 N 
ATOM      4  C   UNL     1      -3.095  -3.508  -0.143  0.00  0.00    +0.169 A 
ATOM      5  N   UNL     1      -3.172  -4.798   0.076  0.00  0.00    -0.112 NA
ATOM      6  N   UNL     1      -1.980  -5.283   0.025  0.00  0.00    -0.023 NA
ATOM      7  N   UNL     1      -1.144  -4.337  -0.227  0.00  0.00    -0.043 NA
BRANCH   3   8
ATOM      8  C   UNL     1      -1.219  -1.907  -0.611  0.00  0.00    +0.061 C 
ATOM      9  C   UNL     1      -1.427  -0.995   0.600  0.00  0.00    +0.036 C 
ATOM     10  C   UNL     1      -1.910  -1.299  -1.833  0.00  0.00    +0.036 C 
BRANCH   8  12
ATOM     11  C   UNL     1       0.877  -0.673  -1.181  0.00  0.00    +0.006 C 
ATOM     12  C   UNL     1       0.279  -2.050  -0.890  0.00  0.00    +0.026 C 
ENDBRANCH   8  12
ENDBRANCH   3   8
ENDBRANCH   2   4
BRANCH   2  13
ATOM     13  C   UNL     1      -4.996  -2.584   1.152  0.00  0.00    +0.008 C 
ATOM     14  C   UNL     1      -5.014  -4.024   1.671  0.00  0.00    +0.009 C 
ATOM     15  C   UNL     1      -4.297  -1.683   2.173  0.00  0.00    +0.009 C 
ENDBRANCH   2  13
ENDBRANCH   1   2
BRANCH   1  16
ATOM     16  C   UNL     1      -5.737  -4.215  -1.064  0.00  0.00    +0.128 C 
BRANCH  16  17
ATOM     17  C   UNL     1      -6.341  -4.707  -2.354  0.00  0.00    +0.004 A 
ATOM     18  C   UNL     1      -5.782  -5.474  -3.321  0.00  0.00    +0.012 A 
ATOM     19  C   UNL     1      -6.534  -5.807  -4.432  0.00  0.00    +0.008 A 
ATOM     20  C   UNL     1      -7.809  -5.356  -4.521  0.00  0.00    +0.045 A 
ATOM     21  S   UNL     1      -7.983  -4.436  -3.002  0.00  0.00    -0.100 S 
ENDBRANCH  16  17
ENDBRANCH   1  16
BRANCH   1  22
ATOM     22  C   UNL     1      -6.202  -1.868  -1.432  0.00  0.00    +0.126 C 
BRANCH  22  23
ATOM     23  C   UNL     1      -5.627  -0.654  -2.115  0.00  0.00    +0.031 A 
ATOM     24  C   UNL     1      -5.733  -0.522  -3.462  0.00  0.00    +0.020 A 
ATOM     25  C   UNL     1      -5.165   0.668  -4.095  0.00  0.00    -0.001 A 
ATOM     26  C   UNL     1      -5.245   0.858  -5.480  0.00  0.00    +0.013 A 
ATOM     27  C   UNL     1      -4.706   1.978  -6.042  0.00  0.00    +0.046 A 
ATOM     28  C   UNL     1      -4.075   2.935  -5.249  0.00  0.00    +0.122 A 
ATOM     29  C   UNL     1      -3.986   2.766  -3.878  0.00  0.00    +0.072 A 
ATOM     30  C   UNL     1      -4.529   1.632  -3.288  0.00  0.00    +0.053 A 
ATOM     31  N   UNL     1      -4.456   1.438  -1.925  0.00  0.00    -0.322 N 
ATOM     32  H   UNL     1      -4.018   2.103  -1.370  0.00  0.00    +0.169 HD
ATOM     33  C   UNL     1      -4.986   0.343  -1.352  0.00  0.00    +0.254 A 
ATOM     34  O   UNL     1      -4.906   0.207  -0.143  0.00  0.00    -0.268 OA
BRANCH  28  35
ATOM     35  O   UNL     1      -3.544   4.043  -5.826  0.00  0.00    -0.495 OA
ATOM     36  C   UNL     1      -3.668   4.159  -7.245  0.00  0.00    +0.277 C 
ENDBRANCH  28  35
ENDBRANCH  22  23
ENDBRANCH   1  22
TORSDOF 10
