REMARK  Name = ZINC36591702
REMARK  19 active torsions:
REMARK  status: ('A' for Active; 'I' for Inactive)
REMARK    1  A    between atoms: C_1  and  C_2
REMARK    2  A    between atoms: C_2  and  C_4
REMARK    3  A    between atoms: C_2  and  C_10
REMARK    4  A    between atoms: C_10  and  C_12
REMARK    5  A    between atoms: C_10  and  N_23
REMARK    6  A    between atoms: N_14  and  C_15
REMARK    7  A    between atoms: C_15  and  C_16
REMARK    8  A    between atoms: C_15  and  C_17
REMARK    9  A    between atoms: C_15  and  C_18
REMARK   10  A    between atoms: C_18  and  C_19
REMARK   11  A    between atoms: C_19  and  C_20
REMARK   12  A    between atoms: C_19  and  C_21
REMARK   13  A    between atoms: C_19  and  C_22
REMARK   14  A    between atoms: N_23  and  C_35
REMARK   15  A    between atoms: C_24  and  C_26
REMARK   16  A    between atoms: C_30  and  N_32
REMARK   17  A    between atoms: C_35  and  C_36
REMARK   18  A    between atoms: C_35  and  C_37
REMARK   19  A    between atoms: C_35  and  C_38
REMARK                            x       y       z     vdW  Elec       q    Type
REMARK                         _______ _______ _______ _____ _____    ______ ____
ROOT
ATOM      1  C   UNL     1      -2.553  -1.479  -0.892  0.00  0.00    +0.170 C 
ENDROOT
BRANCH   1   2
ATOM      2  C   UNL     1      -3.827  -1.115  -1.609  0.00  0.00    +0.235 C 
ATOM      3  O   UNL     1      -3.953  -1.367  -2.788  0.00  0.00    -0.274 OA
ATOM      4  N   UNL     1      -4.827  -0.507  -0.939  0.00  0.00    -0.309 N 
ATOM      5  H   UNL     1      -4.702  -0.247  -0.013  0.00  0.00    +0.149 HD
BRANCH   4   6
ATOM      6  C   UNL     1      -6.101  -0.240  -1.610  0.00  0.00    +0.030 C 
ATOM      7  C   UNL     1      -5.906   0.858  -2.658  0.00  0.00    +0.031 C 
ATOM      8  C   UNL     1      -6.595  -1.516  -2.295  0.00  0.00    +0.031 C 
BRANCH   6   9
ATOM      9  C   UNL     1      -7.135   0.218  -0.579  0.00  0.00    +0.031 C 
BRANCH   9  10
ATOM     10  C   UNL     1      -7.025  -0.653   0.674  0.00  0.00    -0.036 C 
ATOM     11  C   UNL     1      -5.656  -0.442   1.324  0.00  0.00    +0.010 C 
ATOM     12  C   UNL     1      -8.124  -0.263   1.664  0.00  0.00    +0.010 C 
ATOM     13  C   UNL     1      -7.185  -2.124   0.288  0.00  0.00    +0.010 C 
ENDBRANCH   9  10
ENDBRANCH   6   9
ENDBRANCH   4   6
ENDBRANCH   1   2
BRANCH   1  14
ATOM     14  N   UNL     1      -1.640  -2.142  -1.826  0.00  0.00    -0.280 N 
ATOM     15  C   UNL     1      -1.338  -3.446  -1.663  0.00  0.00    +0.248 C 
ATOM     16  O   UNL     1      -1.726  -4.041  -0.677  0.00  0.00    -0.270 OA
BRANCH  15  17
ATOM     17  C   UNL     1      -0.534  -4.151  -2.684  0.00  0.00    +0.039 A 
ATOM     18  C   UNL     1       0.085  -3.433  -3.708  0.00  0.00    +0.013 A 
ATOM     19  C   UNL     1       0.834  -4.098  -4.657  0.00  0.00    +0.003 A 
ATOM     20  C   UNL     1       0.972  -5.473  -4.596  0.00  0.00    +0.033 A 
ATOM     21  C   UNL     1       0.360  -6.191  -3.583  0.00  0.00    +0.127 A 
ATOM     22  C   UNL     1      -0.387  -5.538  -2.624  0.00  0.00    +0.045 A 
BRANCH  21  23
ATOM     23  N   UNL     1       0.512  -7.662  -3.525  0.00  0.00    +0.056 N 
ATOM     24  O   UNL     1       1.170  -8.236  -4.362  0.00  0.00    -0.126 OA
ATOM     25  O   UNL     1      -0.022  -8.291  -2.641  0.00  0.00    -0.126 OA
ENDBRANCH  21  23
ENDBRANCH  15  17
BRANCH  14  26
ATOM     26  C   UNL     1      -1.054  -1.388  -2.938  0.00  0.00    +0.030 C 
ATOM     27  C   UNL     1      -1.608   0.038  -2.934  0.00  0.00    +0.031 C 
ATOM     28  C   UNL     1       0.467  -1.345  -2.780  0.00  0.00    +0.031 C 
ATOM     29  C   UNL     1      -1.411  -2.070  -4.260  0.00  0.00    +0.031 C 
ENDBRANCH  14  26
ENDBRANCH   1  14
BRANCH   1  31
ATOM     30  C   UNL     1      -2.717   0.331   0.823  0.00  0.00    +0.015 C 
ATOM     31  C   UNL     1      -1.893  -0.211  -0.347  0.00  0.00    +0.045 C 
BRANCH  31  32
ATOM     32  C   UNL     1      -0.499  -0.533   0.127  0.00  0.00    -0.042 A 
ATOM     33  C   UNL     1      -0.298  -1.554   1.038  0.00  0.00    +0.004 A 
ATOM     34  C   UNL     1       0.980  -1.850   1.472  0.00  0.00    +0.000 A 
ATOM     35  C   UNL     1       2.057  -1.126   0.996  0.00  0.00    +0.000 A 
ATOM     36  C   UNL     1       1.856  -0.106   0.085  0.00  0.00    +0.000 A 
ATOM     37  C   UNL     1       0.578   0.187  -0.353  0.00  0.00    +0.004 A 
ENDBRANCH  31  32
ENDBRANCH   1  31
TORSDOF 10
