REMARK  Name = ZINC10244402
REMARK  7 active torsions:
REMARK  status: ('A' for Active; 'I' for Inactive)
REMARK    1  A    between atoms: C_1  and  C_2
REMARK    2  A    between atoms: C_8  and  C_10
REMARK    3  A    between atoms: C_10  and  S_11
REMARK    4  A    between atoms: S_11  and  C_12
REMARK    5  A    between atoms: N_26  and  C_27
REMARK    6  A    between atoms: C_30  and  O_33
REMARK    7  A    between atoms: O_33  and  C_34
REMARK                            x       y       z     vdW  Elec       q    Type
REMARK                         _______ _______ _______ _____ _____    ______ ____
ROOT
ATOM      1  C   UNL     1       2.543  -0.488   6.089  0.00  0.00    +0.177 A 
ATOM      2  N   UNL     1       3.089  -0.858   7.226  0.00  0.00    -0.221 NA
ATOM      3  C   UNL     1       2.615  -0.412   8.400  0.00  0.00    +0.104 A 
ATOM      4  C   UNL     1       2.996  -0.642   9.801  0.00  0.00    +0.026 A 
ATOM      5  C   UNL     1       3.988  -1.408  10.414  0.00  0.00    +0.012 A 
ATOM      6  C   UNL     1       4.095  -1.420  11.776  0.00  0.00    +0.001 A 
ATOM      7  C   UNL     1       3.223  -0.674  12.557  0.00  0.00    +0.002 A 
ATOM      8  C   UNL     1       2.237   0.089  11.973  0.00  0.00    +0.026 A 
ATOM      9  C   UNL     1       2.110   0.116  10.586  0.00  0.00    +0.049 A 
ATOM     10  N   UNL     1       1.238   0.772   9.743  0.00  0.00    -0.349 N 
ATOM     11  H   UNL     1       0.525   1.363  10.031  0.00  0.00    +0.166 HD
ATOM     12  C   UNL     1       1.531   0.464   8.424  0.00  0.00    +0.132 A 
ATOM     13  C   UNL     1       0.958   0.859   7.197  0.00  0.00    +0.283 A 
ATOM     14  O   UNL     1       0.008   1.624   7.171  0.00  0.00    -0.265 OA
ATOM     15  N   UNL     1       1.482   0.373   6.052  0.00  0.00    -0.254 N 
ENDROOT
BRANCH  15  16
ATOM     16  C   UNL     1       0.933   0.748   4.818  0.00  0.00    +0.052 A 
ATOM     17  C   UNL     1      -0.097   0.002   4.260  0.00  0.00    +0.030 A 
ATOM     18  C   UNL     1      -0.638   0.372   3.045  0.00  0.00    +0.048 A 
ATOM     19  C   UNL     1      -0.154   1.491   2.382  0.00  0.00    +0.130 A 
ATOM     20  C   UNL     1       0.878   2.234   2.936  0.00  0.00    +0.048 A 
ATOM     21  C   UNL     1       1.417   1.867   4.154  0.00  0.00    +0.030 A 
BRANCH  19  22
ATOM     22  O   UNL     1      -0.688   1.855   1.186  0.00  0.00    -0.406 OA
BRANCH  22  23
ATOM     23  C   UNL     1      -0.141   3.017   0.559  0.00  0.00    +0.575 C 
ATOM     24  F   UNL     1       1.223   2.819   0.318  0.00  0.00    -0.133 F 
ATOM     25  F   UNL     1      -0.309   4.123   1.399  0.00  0.00    -0.133 F 
ATOM     26  F   UNL     1      -0.800   3.247  -0.653  0.00  0.00    -0.133 F 
ENDBRANCH  22  23
ENDBRANCH  19  22
ENDBRANCH  15  16
BRANCH   1  27
ATOM     27  S   UNL     1       3.199  -1.110   4.577  0.00  0.00    -0.078 S 
BRANCH  27  28
ATOM     28  C   UNL     1       4.530  -2.155   5.219  0.00  0.00    +0.173 C 
BRANCH  28  36
ATOM     29  C   UNL     1       7.750  -5.092  -0.230  0.00  0.00    +0.089 C 
ATOM     30  C   UNL     1       7.591  -4.878   1.253  0.00  0.00    +0.136 A 
ATOM     31  C   UNL     1       6.672  -4.095   1.863  0.00  0.00    +0.091 A 
ATOM     32  C   UNL     1       6.957  -4.245   3.246  0.00  0.00    +0.168 A 
ATOM     33  N   UNL     1       7.975  -5.062   3.322  0.00  0.00    -0.063 NA
ATOM     34  O   UNL     1       8.334  -5.425   2.226  0.00  0.00    -0.358 OA
ATOM     35  N   UNL     1       6.288  -3.639   4.309  0.00  0.00    -0.267 N 
ATOM     36  C   UNL     1       5.252  -2.811   4.070  0.00  0.00    +0.229 C 
ATOM     37  O   UNL     1       4.902  -2.592   2.929  0.00  0.00    -0.275 OA
ATOM     38  H   UNL     1       6.569  -3.814   5.221  0.00  0.00    +0.156 HD
ENDBRANCH  28  36
ENDBRANCH  27  28
ENDBRANCH   1  27
TORSDOF 6
