REMARK  Name = ZINC43865394
REMARK  5 active torsions:
REMARK  status: ('A' for Active; 'I' for Inactive)
REMARK    1  A    between atoms: C_1  and  C_2
REMARK    2  A    between atoms: C_2  and  C_4
REMARK    3  A    between atoms: C_2  and  N_10
REMARK    4  A    between atoms: N_10  and  C_11
REMARK    5  A    between atoms: C_13  and  N_15
REMARK                            x       y       z     vdW  Elec       q    Type
REMARK                         _______ _______ _______ _____ _____    ______ ____
ROOT
ATOM      1  C   UNL     1      -1.973  -1.014   1.188  0.00  0.00    +0.254 C 
ATOM      2  O   UNL     1      -1.234  -1.301   2.290  0.00  0.00    -0.269 OA
ATOM      3  C   UNL     1      -3.301  -1.122   1.229  0.00  0.00    +0.161 C 
ENDROOT
BRANCH   3   4
ATOM      4  N   UNL     1      -3.947  -1.371   2.447  0.00  0.00    -0.285 N 
ATOM      5  C   UNL     1      -3.316  -1.031   3.608  0.00  0.00    +0.095 A 
ATOM      6  C   UNL     1      -3.911  -1.258   4.801  0.00  0.00    +0.034 A 
ATOM      7  C   UNL     1      -5.179  -1.843   4.835  0.00  0.00    +0.026 A 
ATOM      8  C   UNL     1      -5.855  -2.204   3.654  0.00  0.00    +0.054 A 
ATOM      9  C   UNL     1      -5.167  -1.930   2.431  0.00  0.00    +0.264 A 
ATOM     10  O   UNL     1      -5.691  -2.210   1.365  0.00  0.00    -0.267 OA
ATOM     11  C   UNL     1      -7.162  -2.801   3.859  0.00  0.00    +0.021 A 
ATOM     12  C   UNL     1      -7.621  -2.963   5.110  0.00  0.00    +0.046 A 
ATOM     13  S   UNL     1      -6.304  -2.313   6.121  0.00  0.00    -0.096 S 
ENDBRANCH   3   4
BRANCH   1  14
ATOM     14  N   UNL     1      -1.343  -0.607   0.015  0.00  0.00    -0.304 N 
ATOM     15  H   UNL     1      -1.871  -0.402  -0.773  0.00  0.00    +0.150 HD
BRANCH  14  17
ATOM     16  C   UNL     1       0.533   0.886   0.497  0.00  0.00    +0.033 C 
ATOM     17  C   UNL     1       0.117  -0.488  -0.030  0.00  0.00    +0.100 C 
BRANCH  17  18
ATOM     18  C   UNL     1       0.590  -0.645  -1.452  0.00  0.00    -0.027 A 
ATOM     19  C   UNL     1      -0.122  -0.066  -2.485  0.00  0.00    +0.005 A 
ATOM     20  C   UNL     1       0.312  -0.210  -3.790  0.00  0.00    +0.000 A 
ATOM     21  C   UNL     1       1.459  -0.933  -4.061  0.00  0.00    +0.000 A 
ATOM     22  C   UNL     1       2.171  -1.512  -3.027  0.00  0.00    +0.000 A 
ATOM     23  C   UNL     1       1.739  -1.364  -1.722  0.00  0.00    +0.005 A 
ENDBRANCH  17  18
ENDBRANCH  14  17
ENDBRANCH   1  14
TORSDOF 4
