REMARK  Name = ZINC39344995
REMARK  14 active torsions:
REMARK  status: ('A' for Active; 'I' for Inactive)
REMARK    1  A    between atoms: C_1  and  C_2
REMARK    2  A    between atoms: C_2  and  C_3
REMARK    3  A    between atoms: C_3  and  N_4
REMARK    4  A    between atoms: N_4  and  C_5
REMARK    5  A    between atoms: N_11  and  C_26
REMARK    6  A    between atoms: C_12  and  C_22
REMARK    7  A    between atoms: C_14  and  N_16
REMARK    8  A    between atoms: C_17  and  C_19
REMARK    9  A    between atoms: C_19  and  O_20
REMARK   10  A    between atoms: O_20  and  C_21
REMARK   11  A    between atoms: C_22  and  O_24
REMARK   12  A    between atoms: O_24  and  C_25
REMARK   13  A    between atoms: C_26  and  C_27
REMARK   14  A    between atoms: C_27  and  C_28
REMARK                            x       y       z     vdW  Elec       q    Type
REMARK                         _______ _______ _______ _____ _____    ______ ____
ROOT
ATOM      1  C   UNL     1       1.909  -2.258   2.331  0.00  0.00    +0.044 A 
ATOM      2  C   UNL     1       1.721  -3.639   2.282  0.00  0.00    +0.033 A 
ATOM      3  C   UNL     1       2.199  -4.406   3.327  0.00  0.00    +0.015 A 
ATOM      4  C   UNL     1       2.849  -3.800   4.393  0.00  0.00    +0.105 A 
ATOM      5  N   UNL     1       3.007  -2.477   4.401  0.00  0.00    -0.348 N 
ATOM      6  C   UNL     1       2.571  -1.714   3.421  0.00  0.00    +0.107 A 
ATOM      7  N   UNL     1       3.254  -4.737   5.342  0.00  0.00    -0.301 N 
ATOM      8  C   UNL     1       2.868  -6.085   4.920  0.00  0.00    +0.208 C 
ATOM      9  C   UNL     1       2.157  -5.897   3.569  0.00  0.00    +0.138 C 
ATOM     10  H   UNL     1       3.462  -2.063   5.151  0.00  0.00    +0.167 HD
ENDROOT
BRANCH   9  11
ATOM     11  N   UNL     1       2.875  -6.608   2.509  0.00  0.00    -0.304 N 
ATOM     12  C   UNL     1       2.236  -6.945   1.371  0.00  0.00    +0.239 C 
ATOM     13  O   UNL     1       1.066  -6.659   1.225  0.00  0.00    -0.273 OA
ATOM     14  H   UNL     1       3.810  -6.837   2.626  0.00  0.00    +0.149 HD
BRANCH  12  15
ATOM     15  C   UNL     1       2.974  -7.677   0.280  0.00  0.00    +0.255 C 
BRANCH  15  16
ATOM     16  O   UNL     1       2.089  -7.920  -0.815  0.00  0.00    -0.374 OA
ATOM     17  C   UNL     1       2.693  -8.612  -1.909  0.00  0.00    +0.194 C 
ENDBRANCH  15  16
ENDBRANCH  12  15
ENDBRANCH   9  11
BRANCH   1  18
ATOM     18  N   UNL     1       1.443  -1.437   1.296  0.00  0.00    -0.343 N 
ATOM     19  H   UNL     1       0.981  -1.828   0.538  0.00  0.00    +0.146 HD
BRANCH  18  20
ATOM     20  C   UNL     1       1.653   0.011   1.359  0.00  0.00    +0.101 C 
BRANCH  20  22
ATOM     21  C   UNL     1       1.271   2.181   0.180  0.00  0.00    +0.005 C 
ATOM     22  C   UNL     1       1.052   0.668   0.115  0.00  0.00    +0.015 C 
ENDBRANCH  20  22
ENDBRANCH  18  20
ENDBRANCH   1  18
BRANCH   8  23
ATOM     23  C   UNL     1       1.929  -6.699   5.926  0.00  0.00    +0.330 C 
ATOM     24  O   UNL     1       1.240  -5.990   6.621  0.00  0.00    -0.249 OA
BRANCH  23  25
ATOM     25  O   UNL     1       1.858  -8.034   6.050  0.00  0.00    -0.467 OA
ATOM     26  C   UNL     1       0.946  -8.547   7.024  0.00  0.00    +0.280 C 
ENDBRANCH  23  25
ENDBRANCH   8  23
BRANCH   7  27
ATOM     27  C   UNL     1       3.966  -4.419   6.582  0.00  0.00    +0.112 C 
BRANCH  27  28
ATOM     28  C   UNL     1       5.472  -4.393   6.314  0.00  0.00    +0.056 C 
BRANCH  28  29
ATOM     29  C   UNL     1       6.206  -4.105   7.598  0.00  0.00    -0.021 A 
ATOM     30  C   UNL     1       6.601  -5.083   8.615  0.00  0.00    +0.003 A 
ATOM     31  C   UNL     1       6.454  -6.466   8.739  0.00  0.00    +0.010 A 
ATOM     32  C   UNL     1       6.949  -7.104   9.841  0.00  0.00    +0.001 A 
ATOM     33  C   UNL     1       7.595  -6.389  10.840  0.00  0.00    +0.002 A 
ATOM     34  C   UNL     1       7.750  -5.024  10.738  0.00  0.00    +0.026 A 
ATOM     35  C   UNL     1       7.255  -4.354   9.624  0.00  0.00    +0.047 A 
ATOM     36  N   UNL     1       7.251  -3.032   9.237  0.00  0.00    -0.360 N 
ATOM     37  C   UNL     1       6.627  -2.904   8.026  0.00  0.00    +0.087 A 
ATOM     38  H   UNL     1       7.637  -2.301   9.745  0.00  0.00    +0.165 HD
ENDBRANCH  28  29
ENDBRANCH  27  28
ENDBRANCH   7  27
TORSDOF 11
