REMARK  Name = ZINC11502829
REMARK  11 active torsions:
REMARK  status: ('A' for Active; 'I' for Inactive)
REMARK    1  A    between atoms: C_1  and  N_2
REMARK    2  A    between atoms: N_2  and  C_3
REMARK    3  A    between atoms: N_2  and  S_9
REMARK    4  A    between atoms: S_9  and  C_12
REMARK    5  A    between atoms: C_16  and  C_18
REMARK    6  A    between atoms: C_18  and  O_20
REMARK    7  A    between atoms: O_20  and  C_21
REMARK    8  A    between atoms: C_21  and  C_22
REMARK    9  A    between atoms: N_24  and  C_25
REMARK   10  A    between atoms: C_30  and  O_31
REMARK   11  A    between atoms: O_31  and  C_32
REMARK                            x       y       z     vdW  Elec       q    Type
REMARK                         _______ _______ _______ _____ _____    ______ ____
ROOT
ATOM      1  C   UNL     1       5.812   0.837   0.540  0.00  0.00    +0.109 A 
ATOM      2  C   UNL     1       6.868   0.189   1.158  0.00  0.00    +0.029 A 
ATOM      3  C   UNL     1       7.601   0.830   2.141  0.00  0.00    +0.003 A 
ATOM      4  C   UNL     1       7.284   2.120   2.512  0.00  0.00    +0.015 A 
ATOM      5  C   UNL     1       6.220   2.780   1.893  0.00  0.00    +0.061 A 
ATOM      6  C   UNL     1       5.488   2.129   0.898  0.00  0.00    +0.043 A 
ENDROOT
BRANCH   1   7
ATOM      7  S   UNL     1       4.886   0.012  -0.711  0.00  0.00    +0.074 S 
ATOM      8  O   UNL     1       5.704  -1.047  -1.190  0.00  0.00    -0.150 OA
ATOM      9  O   UNL     1       4.369   1.022  -1.566  0.00  0.00    -0.150 OA
BRANCH   7  11
ATOM     10  C   UNL     1       3.727  -2.004   0.670  0.00  0.00    +0.157 C 
ATOM     11  N   UNL     1       3.584  -0.694   0.030  0.00  0.00    -0.206 N 
BRANCH  11  12
ATOM     12  C   UNL     1       2.349  -0.041   0.044  0.00  0.00    +0.051 A 
ATOM     13  C   UNL     1       1.174  -0.775   0.143  0.00  0.00    +0.025 A 
ATOM     14  C   UNL     1      -0.044  -0.126   0.157  0.00  0.00    +0.002 A 
ATOM     15  C   UNL     1      -0.096   1.254   0.071  0.00  0.00    +0.000 A 
ATOM     16  C   UNL     1       1.072   1.988  -0.028  0.00  0.00    +0.002 A 
ATOM     17  C   UNL     1       2.294   1.345  -0.042  0.00  0.00    +0.025 A 
ENDBRANCH  11  12
ENDBRANCH   7  11
ENDBRANCH   1   7
BRANCH   5  18
ATOM     18  C   UNL     1       5.875   4.162   2.285  0.00  0.00    +0.340 C 
ATOM     19  O   UNL     1       4.949   4.732   1.744  0.00  0.00    -0.245 OA
BRANCH  18  20
ATOM     20  O   UNL     1       6.586   4.788   3.241  0.00  0.00    -0.452 OA
BRANCH  20  21
ATOM     21  C   UNL     1       6.191   6.145   3.575  0.00  0.00    +0.328 C 
BRANCH  21  22
ATOM     22  C   UNL     1       7.094   6.680   4.656  0.00  0.00    +0.255 C 
ATOM     23  O   UNL     1       7.984   5.986   5.102  0.00  0.00    -0.272 OA
ATOM     24  N   UNL     1       6.913   7.929   5.128  0.00  0.00    -0.280 N 
ATOM     25  H   UNL     1       6.254   8.512   4.719  0.00  0.00    +0.155 HD
BRANCH  24  26
ATOM     26  C   UNL     1       7.677   8.387   6.210  0.00  0.00    +0.077 A 
ATOM     27  C   UNL     1       8.224   7.482   7.107  0.00  0.00    +0.047 A 
ATOM     28  C   UNL     1       8.982   7.936   8.171  0.00  0.00    +0.043 A 
ATOM     29  C   UNL     1       9.188   9.293   8.349  0.00  0.00    +0.024 A 
ATOM     30  C   UNL     1       8.641  10.201   7.460  0.00  0.00    +0.049 A 
ATOM     31  C   UNL     1       7.885   9.753   6.389  0.00  0.00    +0.141 A 
ATOM     32 CL   UNL     1       9.670   6.802   9.291  0.00  0.00    -0.083 Cl
BRANCH  31  33
ATOM     33  O   UNL     1       7.347  10.645   5.515  0.00  0.00    -0.493 OA
ATOM     34  C   UNL     1       7.601  12.029   5.762  0.00  0.00    +0.277 C 
ENDBRANCH  31  33
ENDBRANCH  24  26
ENDBRANCH  21  22
ENDBRANCH  20  21
ENDBRANCH  18  20
ENDBRANCH   5  18
TORSDOF 9
