REMARK  Name = ZINC40548053
REMARK  7 active torsions:
REMARK  status: ('A' for Active; 'I' for Inactive)
REMARK    1  A    between atoms: C_1  and  C_2
REMARK    2  A    between atoms: C_2  and  C_4
REMARK    3  A    between atoms: C_2  and  N_7
REMARK    4  A    between atoms: C_4  and  C_5
REMARK    5  A    between atoms: C_4  and  C_6
REMARK    6  A    between atoms: C_12  and  O_20
REMARK    7  A    between atoms: C_15  and  C_17
REMARK                            x       y       z     vdW  Elec       q    Type
REMARK                         _______ _______ _______ _____ _____    ______ ____
ROOT
ATOM      1  N   UNL     1       0.688  -0.476  -1.203  0.00  0.00    -0.296 N 
ATOM      2  C   UNL     1       0.006  -0.608  -2.358  0.00  0.00    +0.303 C 
ATOM      3  O   UNL     1      -1.178  -0.335  -2.400  0.00  0.00    -0.253 OA
ATOM      4  N   UNL     1       0.637  -1.043  -3.467  0.00  0.00    -0.269 N 
ATOM      5  C   UNL     1       2.061  -1.414  -3.556  0.00  0.00    +0.141 C 
ATOM      6  C   UNL     1       2.143  -2.388  -4.758  0.00  0.00    +0.134 C 
ATOM      7  C   UNL     1       1.113  -1.763  -5.736  0.00  0.00    +0.067 C 
ATOM      8  C   UNL     1       0.018  -1.231  -4.787  0.00  0.00    +0.193 C 
ATOM      9  H   UNL     1       1.632  -0.695  -1.170  0.00  0.00    +0.151 HD
ENDROOT
BRANCH   8  10
ATOM     10  C   UNL     1      -0.506   0.085  -5.301  0.00  0.00    +0.376 C 
ATOM     11  O   UNL     1      -0.244   1.118  -4.709  0.00  0.00    -0.244 OA
ATOM     12  O   UNL     1      -1.193   0.117  -6.307  0.00  0.00    -0.244 OA
ENDBRANCH   8  10
BRANCH   1  14
ATOM     13  C   UNL     1      -0.019   1.526   0.010  0.00  0.00    +0.028 C 
ATOM     14  C   UNL     1       0.002  -0.004   0.002  0.00  0.00    +0.074 C 
BRANCH  14  15
ATOM     15  C   UNL     1       0.742  -0.511   1.242  0.00  0.00    +0.003 C 
ATOM     16  C   UNL     1       2.136   0.118   1.296  0.00  0.00    +0.009 C 
ATOM     17  C   UNL     1      -0.042  -0.124   2.497  0.00  0.00    +0.009 C 
ENDBRANCH  14  15
ENDBRANCH   1  14
BRANCH   6  18
ATOM     18  O   UNL     1       3.454  -2.390  -5.327  0.00  0.00    -0.390 OA
ATOM     19  H   UNL     1       4.146  -2.681  -4.718  0.00  0.00    +0.210 HD
ENDBRANCH   6  18
TORSDOF 4
