REMARK  Name = ZINC35265058
REMARK  10 active torsions:
REMARK  status: ('A' for Active; 'I' for Inactive)
REMARK    1  A    between atoms: C_1  and  C_2
REMARK    2  A    between atoms: C_7  and  C_8
REMARK    3  A    between atoms: C_8  and  S_9
REMARK    4  A    between atoms: S_9  and  C_10
REMARK    5  A    between atoms: C_13  and  C_24
REMARK    6  A    between atoms: N_14  and  C_15
REMARK    7  A    between atoms: C_18  and  N_21
REMARK    8  A    between atoms: C_24  and  N_25
REMARK    9  A    between atoms: C_26  and  C_28
REMARK   10  A    between atoms: C_31  and  C_33
REMARK                            x       y       z     vdW  Elec       q    Type
REMARK                         _______ _______ _______ _____ _____    ______ ____
ROOT
ATOM      1  C   UNL     1      -1.513   1.192   4.568  0.00  0.00    +0.196 A 
ATOM      2  N   UNL     1      -0.387   1.548   5.142  0.00  0.00    -0.122 NA
ATOM      3  N   UNL     1      -0.633   2.167   6.241  0.00  0.00    -0.132 NA
ATOM      4  C   UNL     1      -1.919   2.245   6.435  0.00  0.00    +0.156 A 
ATOM      5  N   UNL     1      -2.529   1.632   5.372  0.00  0.00    -0.273 N 
ENDROOT
BRANCH   5   6
ATOM      6  C   UNL     1      -3.906   1.483   5.156  0.00  0.00    +0.050 A 
ATOM      7  C   UNL     1      -4.701   2.600   4.938  0.00  0.00    +0.028 A 
ATOM      8  C   UNL     1      -6.057   2.450   4.725  0.00  0.00    +0.035 A 
ATOM      9  C   UNL     1      -6.624   1.189   4.729  0.00  0.00    +0.126 A 
ATOM     10  C   UNL     1      -5.835   0.075   4.946  0.00  0.00    +0.035 A 
ATOM     11  C   UNL     1      -4.477   0.217   5.154  0.00  0.00    +0.028 A 
BRANCH   9  12
ATOM     12  N   UNL     1      -8.078   1.032   4.502  0.00  0.00    +0.056 N 
ATOM     13  O   UNL     1      -8.769   2.006   4.312  0.00  0.00    -0.126 OA
ATOM     14  O   UNL     1      -8.575  -0.070   4.505  0.00  0.00    -0.126 OA
ENDBRANCH   9  12
ENDBRANCH   5   6
BRANCH   1  15
ATOM     15  S   UNL     1      -1.684   0.321   3.046  0.00  0.00    -0.081 S 
BRANCH  15  16
ATOM     16  C   UNL     1       0.025   0.045   2.504  0.00  0.00    +0.112 C 
BRANCH  16  23
ATOM     17  C   UNL     1      -0.018   1.503   0.010  0.00  0.00    +0.044 C 
ATOM     18  C   UNL     1       0.002  -0.004   0.002  0.00  0.00    -0.046 A 
ATOM     19  C   UNL     1       0.006  -0.689  -1.199  0.00  0.00    +0.003 A 
ATOM     20  C   UNL     1       0.025  -2.071  -1.207  0.00  0.00    +0.000 A 
ATOM     21  C   UNL     1       0.040  -2.768  -0.013  0.00  0.00    +0.000 A 
ATOM     22  C   UNL     1       0.037  -2.084   1.188  0.00  0.00    +0.005 A 
ATOM     23  C   UNL     1       0.023  -0.702   1.195  0.00  0.00    -0.034 A 
ENDBRANCH  16  23
ENDBRANCH  15  16
ENDBRANCH   1  15
BRANCH   4  24
ATOM     24  C   UNL     1      -2.608   2.894   7.607  0.00  0.00    +0.181 C 
BRANCH  24  25
ATOM     25  N   UNL     1      -2.862   4.305   7.304  0.00  0.00    -0.308 N 
ATOM     26  C   UNL     1      -3.474   5.090   8.213  0.00  0.00    +0.217 C 
ATOM     27  O   UNL     1      -3.814   4.628   9.282  0.00  0.00    -0.275 OA
ATOM     28  H   UNL     1      -2.591   4.674   6.449  0.00  0.00    +0.149 HD
BRANCH  26  29
ATOM     29  C   UNL     1      -3.735   6.541   7.902  0.00  0.00    +0.083 C 
ATOM     30  C   UNL     1      -5.191   6.971   7.707  0.00  0.00    +0.022 C 
ATOM     31  C   UNL     1      -4.435   7.379   8.974  0.00  0.00    +0.032 C 
BRANCH  31  32
ATOM     32  C   UNL     1      -4.810   6.690  10.261  0.00  0.00    -0.044 A 
ATOM     33  C   UNL     1      -5.667   5.606  10.240  0.00  0.00    +0.004 A 
ATOM     34  C   UNL     1      -6.011   4.974  11.420  0.00  0.00    +0.000 A 
ATOM     35  C   UNL     1      -5.497   5.426  12.621  0.00  0.00    +0.000 A 
ATOM     36  C   UNL     1      -4.639   6.509  12.642  0.00  0.00    +0.000 A 
ATOM     37  C   UNL     1      -4.292   7.139  11.461  0.00  0.00    +0.004 A 
ENDBRANCH  31  32
ENDBRANCH  26  29
ENDBRANCH  24  25
ENDBRANCH   4  24
TORSDOF 9
