REMARK  Name = ZINC45888943
REMARK  5 active torsions:
REMARK  status: ('A' for Active; 'I' for Inactive)
REMARK    1  A    between atoms: C_1  and  C_2
REMARK    2  A    between atoms: C_6  and  C_18
REMARK    3  A    between atoms: C_7  and  N_8
REMARK    4  A    between atoms: C_9  and  C_11
REMARK    5  A    between atoms: N_22  and  N_23
REMARK                            x       y       z     vdW  Elec       q    Type
REMARK                         _______ _______ _______ _____ _____    ______ ____
ROOT
ATOM      1  C   UNL     1       0.977   1.361   0.022  0.00  0.00    +0.046 C 
ATOM      2  C   UNL     1       0.492  -0.066   0.009  0.00  0.00    -0.027 A 
ATOM      3  C   UNL     1       0.613  -0.804  -1.139  0.00  0.00    +0.034 A 
ATOM      4  C   UNL     1       0.170  -2.146  -1.187  0.00  0.00    +0.081 A 
ATOM      5  C   UNL     1      -0.394  -2.663   0.001  0.00  0.00    +0.045 A 
ATOM      6  C   UNL     1      -0.514  -1.921   1.149  0.00  0.00    -0.013 A 
ATOM      7  C   UNL     1      -0.064  -0.607   1.165  0.00  0.00    +0.041 A 
ATOM      8  C   UNL     1      -1.125  -2.530   2.385  0.00  0.00    +0.047 C 
ATOM      9  S   UNL     1      -0.809  -4.325  -0.468  0.00  0.00    -0.051 S 
ATOM     10  C   UNL     1      -0.228  -4.235  -2.156  0.00  0.00    +0.173 A 
ATOM     11  N   UNL     1       0.218  -3.002  -2.233  0.00  0.00    -0.224 NA
ATOM     12  N   UNL     1      -0.244  -5.212  -3.131  0.00  0.00    -0.262 N 
ATOM     13  H   UNL     1      -0.607  -6.089  -2.932  0.00  0.00    +0.168 HD
ENDROOT
BRANCH   7  14
ATOM     14  N   UNL     1      -0.173   0.165   2.328  0.00  0.00    -0.281 N 
ATOM     15  C   UNL     1       0.337  -0.290   3.490  0.00  0.00    +0.250 C 
ATOM     16  O   UNL     1       0.800  -1.413   3.552  0.00  0.00    -0.270 OA
ATOM     17  H   UNL     1      -0.615   1.028   2.298  0.00  0.00    +0.155 HD
BRANCH  15  18
ATOM     18  C   UNL     1       0.332   0.574   4.688  0.00  0.00    +0.055 A 
ATOM     19  C   UNL     1      -0.205   1.861   4.622  0.00  0.00    +0.014 A 
ATOM     20  C   UNL     1      -0.207   2.662   5.745  0.00  0.00    +0.001 A 
ATOM     21  C   UNL     1       0.322   2.194   6.935  0.00  0.00    +0.001 A 
ATOM     22  C   UNL     1       0.855   0.921   7.009  0.00  0.00    +0.021 A 
ATOM     23  C   UNL     1       0.859   0.105   5.894  0.00  0.00    +0.053 A 
ATOM     24 CL   UNL     1       1.523  -1.496   5.989  0.00  0.00    -0.083 Cl
ENDBRANCH  15  18
ENDBRANCH   7  14
BRANCH  12  25
ATOM     25  N   UNL     1       0.253  -4.945  -4.375  0.00  0.00    -0.255 NA
ATOM     26  H   UNL     1       1.209  -4.625  -4.321  0.00  0.00    +0.140 HD
ATOM     27  H   UNL     1       0.175  -5.750  -4.977  0.00  0.00    +0.140 HD
ENDBRANCH  12  25
TORSDOF 3
