REMARK  Name = ZINC03259378
REMARK  9 active torsions:
REMARK  status: ('A' for Active; 'I' for Inactive)
REMARK    1  A    between atoms: C_1  and  C_2
REMARK    2  A    between atoms: C_8  and  N_10
REMARK    3  A    between atoms: C_11  and  C_22
REMARK    4  A    between atoms: N_13  and  C_16
REMARK    5  A    between atoms: C_16  and  N_68
REMARK    6  A    between atoms: C_25  and  C_28
REMARK    7  A    between atoms: C_28  and  C_29
REMARK    8  A    between atoms: C_28  and  C_30
REMARK    9  A    between atoms: C_28  and  C_31
REMARK                            x       y       z     vdW  Elec       q    Type
REMARK                         _______ _______ _______ _____ _____    ______ ____
ROOT
ATOM      1  N   UNL     1       2.709  -0.844   0.000  0.00  0.00    -0.300 N 
ATOM      2  C   UNL     1       4.056  -1.148  -0.007  0.00  0.00    +0.163 A 
ATOM      3  N   UNL     1       4.500  -1.035  -1.227  0.00  0.00    -0.152 NA
ATOM      4  N   UNL     1       3.432  -0.639  -2.043  0.00  0.00    -0.257 N 
ATOM      5  C   UNL     1       2.341  -0.529  -1.258  0.00  0.00    +0.177 A 
ATOM      6  S   UNL     1       0.771  -0.071  -1.766  0.00  0.00    -0.011 S 
ENDROOT
BRANCH   1  13
ATOM      7  C   UNL     1       1.277  -3.250   0.737  0.00  0.00    +0.009 C 
ATOM      8  C   UNL     1       0.695  -1.852   0.951  0.00  0.00    +0.009 C 
ATOM      9  C   UNL     1      -0.111  -1.440  -0.282  0.00  0.00    +0.005 C 
ATOM     10  C   UNL     1      -0.693  -0.041  -0.068  0.00  0.00    +0.000 C 
ATOM     11  C   UNL     1       0.446   0.957   0.155  0.00  0.00    +0.002 C 
ATOM     12  C   UNL     1       1.251   0.544   1.389  0.00  0.00    +0.025 C 
ATOM     13  C   UNL     1       1.833  -0.854   1.174  0.00  0.00    +0.094 C 
ENDBRANCH   1  13
BRANCH   2  14
ATOM     14  C   UNL     1       4.859  -1.542   1.172  0.00  0.00    +0.019 A 
ATOM     15  C   UNL     1       4.547  -1.034   2.433  0.00  0.00    +0.012 A 
ATOM     16  C   UNL     1       5.297  -1.408   3.530  0.00  0.00    +0.005 A 
ATOM     17  C   UNL     1       6.362  -2.278   3.378  0.00  0.00    -0.042 A 
ATOM     18  C   UNL     1       6.680  -2.781   2.129  0.00  0.00    +0.005 A 
ATOM     19  C   UNL     1       5.935  -2.418   1.026  0.00  0.00    +0.012 A 
BRANCH  17  20
ATOM     20  C   UNL     1       7.180  -2.678   4.579  0.00  0.00    -0.013 C 
ATOM     21  C   UNL     1       8.636  -2.257   4.368  0.00  0.00    +0.015 C 
ATOM     22  C   UNL     1       6.626  -1.988   5.827  0.00  0.00    +0.015 C 
ATOM     23  C   UNL     1       7.110  -4.196   4.761  0.00  0.00    +0.015 C 
ENDBRANCH  17  20
ENDBRANCH   2  14
BRANCH   4  24
ATOM     24  C   UNL     1       3.490  -0.390  -3.486  0.00  0.00    +0.072 C 
BRANCH  24  30
ATOM     25  C   UNL     1       2.736   1.900  -3.258  0.00  0.00    -0.076 C 
ATOM     26  C   UNL     1       3.171   3.361  -3.390  0.00  0.00    -0.019 C 
ATOM     27  C   UNL     1       3.498   3.661  -4.856  0.00  0.00    -0.004 C 
ATOM     28  C   UNL     1       4.591   2.701  -5.333  0.00  0.00    -0.019 C 
ATOM     29  C   UNL     1       4.116   1.259  -5.144  0.00  0.00    -0.076 C 
ATOM     30  N   UNL     1       3.841   1.028  -3.710  0.00  0.00    +0.393 N 
ATOM     31  H   UNL     1       4.685   1.252  -3.169  0.00  0.00    -0.079 HD
ENDBRANCH  24  30
ENDBRANCH   4  24
TORSDOF 5
