REMARK  Name = ZINC28973171
REMARK  8 active torsions:
REMARK  status: ('A' for Active; 'I' for Inactive)
REMARK    1  A    between atoms: C_3  and  C_6
REMARK    2  A    between atoms: C_6  and  N_7
REMARK    3  A    between atoms: N_7  and  C_8
REMARK    4  A    between atoms: N_7  and  C_18
REMARK    5  A    between atoms: C_8  and  C_9
REMARK    6  A    between atoms: C_12  and  C_15
REMARK    7  A    between atoms: C_18  and  C_19
REMARK    8  A    between atoms: C_22  and  C_25
REMARK                            x       y       z     vdW  Elec       q    Type
REMARK                         _______ _______ _______ _____ _____    ______ ____
ROOT
ATOM      1  N   UNL     1       1.169   3.962   1.435  0.00  0.00    +0.390 N 
ATOM      2  H   UNL     1       2.047   3.483   1.895  0.00  0.00    -0.080 HD
ENDROOT
BRANCH   1   3
ATOM      3  C   UNL     1      -0.029   3.467   2.126  0.00  0.00    -0.002 C 
BRANCH   3   6
ATOM      4  C   UNL     1       0.594  -0.012   3.172  0.00  0.00    +0.041 A 
ATOM      5  C   UNL     1       0.724   1.382   3.367  0.00  0.00    +0.042 A 
ATOM      6  C   UNL     1       0.093   1.980   2.340  0.00  0.00    +0.089 A 
ATOM      7  O   UNL     1      -0.414   1.027   1.541  0.00  0.00    -0.470 OA
ATOM      8  C   UNL     1      -0.108  -0.183   2.038  0.00  0.00    +0.195 A 
ENDBRANCH   3   6
ENDBRANCH   1   3
BRANCH   1   9
ATOM      9  C   UNL     1       1.147   3.594   0.013  0.00  0.00    -0.042 C 
BRANCH   9  10
ATOM     10  C   UNL     1       2.544   3.670  -0.547  0.00  0.00    -0.064 A 
ATOM     11  C   UNL     1       3.402   2.594  -0.406  0.00  0.00    +0.002 A 
ATOM     12  C   UNL     1       4.682   2.657  -0.917  0.00  0.00    +0.013 A 
ATOM     13  C   UNL     1       5.110   3.809  -1.578  0.00  0.00    +0.037 A 
ATOM     14  C   UNL     1       4.239   4.891  -1.717  0.00  0.00    +0.013 A 
ATOM     15  C   UNL     1       2.962   4.815  -1.202  0.00  0.00    +0.002 A 
BRANCH  13  16
ATOM     16  C   UNL     1       6.481   3.884  -2.127  0.00  0.00    +0.242 C 
ATOM     17  O   UNL     1       7.237   2.940  -2.004  0.00  0.00    -0.270 OA
ATOM     18  N   UNL     1       6.891   4.998  -2.765  0.00  0.00    -0.325 N 
ATOM     19  H   UNL     1       7.911   5.053  -3.174  0.00  0.00    +0.145 HD
ATOM     20  H   UNL     1       6.207   5.852  -2.876  0.00  0.00    +0.145 HD
ENDBRANCH  13  16
ENDBRANCH   9  10
ENDBRANCH   1   9
BRANCH   1  21
ATOM     21  C   UNL     1       1.310   5.415   1.601  0.00  0.00    -0.042 C 
BRANCH  21  22
ATOM     22  C   UNL     1       1.575   5.732   3.050  0.00  0.00    -0.064 A 
ATOM     23  C   UNL     1       0.516   5.974   3.907  0.00  0.00    +0.002 A 
ATOM     24  C   UNL     1       0.751   6.260   5.236  0.00  0.00    +0.013 A 
ATOM     25  C   UNL     1       2.062   6.315   5.713  0.00  0.00    +0.037 A 
ATOM     26  C   UNL     1       3.126   6.075   4.842  0.00  0.00    +0.013 A 
ATOM     27  C   UNL     1       2.876   5.785   3.516  0.00  0.00    +0.002 A 
BRANCH  25  28
ATOM     28  C   UNL     1       2.322   6.626   7.135  0.00  0.00    +0.242 C 
ATOM     29  O   UNL     1       3.464   6.673   7.547  0.00  0.00    -0.270 OA
ATOM     30  N   UNL     1       1.292   6.857   7.973  0.00  0.00    -0.325 N 
ATOM     31  H   UNL     1       1.486   7.089   9.031  0.00  0.00    +0.145 HD
ATOM     32  H   UNL     1       0.259   6.815   7.599  0.00  0.00    +0.145 HD
ENDBRANCH  25  28
ENDBRANCH  21  22
ENDBRANCH   1  21
TORSDOF 8
