REMARK  Name = ZINC60354887
REMARK  12 active torsions:
REMARK  status: ('A' for Active; 'I' for Inactive)
REMARK    1  A    between atoms: C_1  and  C_2
REMARK    2  A    between atoms: C_5  and  C_7
REMARK    3  A    between atoms: C_7  and  C_9
REMARK    4  A    between atoms: C_7  and  N_32
REMARK    5  A    between atoms: C_9  and  N_10
REMARK    6  A    between atoms: C_11  and  C_13
REMARK    7  A    between atoms: C_13  and  C_15
REMARK    8  A    between atoms: C_13  and  N_18
REMARK    9  A    between atoms: C_15  and  C_16
REMARK   10  A    between atoms: C_15  and  C_17
REMARK   11  A    between atoms: C_19  and  C_21
REMARK   12  A    between atoms: C_21  and  C_22
REMARK                            x       y       z     vdW  Elec       q    Type
REMARK                         _______ _______ _______ _____ _____    ______ ____
ROOT
ATOM      1  C   UNL     1       4.816  -6.041  -2.547  0.00  0.00    +0.161 C 
ENDROOT
BRANCH   1   3
ATOM      2  N   UNL     1       3.139  -4.616  -1.418  0.00  0.00    -0.315 N 
ATOM      3  C   UNL     1       3.698  -5.031  -2.572  0.00  0.00    +0.234 C 
ATOM      4  O   UNL     1       3.300  -4.593  -3.630  0.00  0.00    -0.274 OA
ATOM      5  H   UNL     1       3.457  -4.966  -0.571  0.00  0.00    +0.149 HD
BRANCH   2   6
ATOM      6  C   UNL     1       2.052  -3.634  -1.442  0.00  0.00    +0.096 C 
BRANCH   6   7
ATOM      7  C   UNL     1       1.514  -3.434  -0.023  0.00  0.00    +0.016 C 
BRANCH   7  12
ATOM      8  C   UNL     1      -1.860  -7.123   0.647  0.00  0.00    +0.086 C 
ATOM      9  C   UNL     1      -0.591  -6.316   0.749  0.00  0.00    +0.102 A 
ATOM     10  C   UNL     1       0.498  -6.649   1.464  0.00  0.00    +0.044 A 
ATOM     11  C   UNL     1       1.444  -5.615   1.276  0.00  0.00    +0.043 A 
ATOM     12  C   UNL     1       0.876  -4.712   0.457  0.00  0.00    +0.093 A 
ATOM     13  O   UNL     1      -0.355  -5.144   0.137  0.00  0.00    -0.466 OA
ENDBRANCH   7  12
BRANCH   7  14
ATOM     14  N   UNL     1       0.514  -2.358  -0.026  0.00  0.00    +0.387 N 
ATOM     15  C   UNL     1      -0.017  -2.148   1.345  0.00  0.00    -0.078 C 
ATOM     16  C   UNL     1      -0.573  -0.703   1.292  0.00  0.00    -0.020 C 
ATOM     17  C   UNL     1       0.455   0.031   0.401  0.00  0.00    -0.020 C 
ATOM     18  C   UNL     1       1.143  -1.077  -0.416  0.00  0.00    -0.078 C 
ATOM     19  H   UNL     1      -0.238  -2.583  -0.661  0.00  0.00    -0.081 HD
ENDBRANCH   7  14
ENDBRANCH   6   7
ENDBRANCH   2   6
ENDBRANCH   1   3
BRANCH   1  20
ATOM     20  N   UNL     1       5.248  -6.325  -3.918  0.00  0.00    -0.303 N 
ATOM     21  C   UNL     1       6.498  -6.769  -4.152  0.00  0.00    +0.218 C 
ATOM     22  O   UNL     1       7.267  -6.933  -3.228  0.00  0.00    -0.275 OA
ATOM     23  H   UNL     1       4.633  -6.194  -4.657  0.00  0.00    +0.149 HD
BRANCH  21  24
ATOM     24  C   UNL     1       6.942  -7.062  -5.562  0.00  0.00    +0.131 C 
BRANCH  24  25
ATOM     25  C   UNL     1       8.371  -7.541  -5.550  0.00  0.00    -0.038 A 
ATOM     26  C   UNL     1       9.406  -6.614  -5.655  0.00  0.00    +0.005 A 
ATOM     27  C   UNL     1      10.708  -7.012  -5.648  0.00  0.00    +0.009 A 
ATOM     28  C   UNL     1      11.015  -8.379  -5.532  0.00  0.00    -0.018 A 
ATOM     29  C   UNL     1      12.347  -8.828  -5.520  0.00  0.00    +0.008 A 
ATOM     30  C   UNL     1      12.607 -10.159  -5.406  0.00  0.00    +0.001 A 
ATOM     31  C   UNL     1      11.572 -11.086  -5.300  0.00  0.00    +0.001 A 
ATOM     32  C   UNL     1      10.271 -10.688  -5.308  0.00  0.00    +0.008 A 
ATOM     33  C   UNL     1       9.963  -9.321  -5.424  0.00  0.00    -0.018 A 
ATOM     34  C   UNL     1       8.632  -8.871  -5.430  0.00  0.00    +0.012 A 
ENDBRANCH  24  25
ENDBRANCH  21  24
ENDBRANCH   1  20
BRANCH   1  35
ATOM     35  C   UNL     1       4.324  -7.331  -1.889  0.00  0.00    +0.012 C 
ATOM     36  C   UNL     1       3.231  -7.960  -2.754  0.00  0.00    +0.009 C 
ATOM     37  C   UNL     1       5.492  -8.310  -1.750  0.00  0.00    +0.009 C 
ENDBRANCH   1  35
TORSDOF 9
