REMARK  Name = ZINC58834714
REMARK  9 active torsions:
REMARK  status: ('A' for Active; 'I' for Inactive)
REMARK    1  A    between atoms: C_3  and  C_6
REMARK    2  A    between atoms: C_6  and  C_7
REMARK    3  A    between atoms: C_7  and  N_8
REMARK    4  A    between atoms: N_8  and  C_9
REMARK    5  A    between atoms: C_9  and  N_11
REMARK    6  A    between atoms: N_11  and  N_12
REMARK    7  A    between atoms: C_13  and  C_15
REMARK    8  A    between atoms: C_15  and  N_16
REMARK    9  A    between atoms: N_19  and  C_20
REMARK                            x       y       z     vdW  Elec       q    Type
REMARK                         _______ _______ _______ _____ _____    ______ ____
ROOT
ATOM      1  N   UNL     1       8.195   3.427   1.337  0.00  0.00    -0.234 N 
ATOM      2  C   UNL     1       9.463   3.883   1.327  0.00  0.00    +0.246 C 
ATOM      3  O   UNL     1      10.044   4.082   2.373  0.00  0.00    -0.273 OA
ATOM      4  H   UNL     1       7.730   3.267   0.501  0.00  0.00    +0.173 HD
ENDROOT
BRANCH   1   5
ATOM      5  N   UNL     1       7.547   3.184   2.555  0.00  0.00    -0.246 N 
ATOM      6  H   UNL     1       8.012   3.344   3.392  0.00  0.00    +0.172 HD
BRANCH   5   7
ATOM      7  C   UNL     1       6.279   2.728   2.565  0.00  0.00    +0.147 C 
ATOM      8  S   UNL     1       5.488   2.431   4.054  0.00  0.00    -0.017 S 
BRANCH   7   9
ATOM      9  N   UNL     1       5.633   2.506   1.403  0.00  0.00    -0.325 N 
ATOM     10  H   UNL     1       6.082   2.674   0.560  0.00  0.00    +0.148 HD
BRANCH   9  11
ATOM     11  C   UNL     1       4.255   2.011   1.414  0.00  0.00    +0.108 C 
BRANCH  11  12
ATOM     12  C   UNL     1       3.761   1.845  -0.024  0.00  0.00    +0.061 C 
BRANCH  12  15
ATOM     13  C   UNL     1      -0.016   1.351   0.009  0.00  0.00    +0.008 A 
ATOM     14  C   UNL     1       1.183   2.038   0.002  0.00  0.00    +0.011 A 
ATOM     15  C   UNL     1       2.343   1.336  -0.013  0.00  0.00    -0.009 A 
ATOM     16  S   UNL     1       1.754  -0.349  -0.017  0.00  0.00    -0.102 S 
ATOM     17  C   UNL     1       0.002  -0.004   0.002  0.00  0.00    +0.045 A 
ENDBRANCH  12  15
ENDBRANCH  11  12
ENDBRANCH   9  11
ENDBRANCH   7   9
ENDBRANCH   5   7
ENDBRANCH   1   5
BRANCH   2  18
ATOM     18  C   UNL     1      10.159   4.144   0.016  0.00  0.00    +0.203 C 
BRANCH  18  19
ATOM     19  N   UNL     1      11.517   4.630   0.273  0.00  0.00    -0.291 N 
ATOM     20  C   UNL     1      12.332   4.931  -0.758  0.00  0.00    +0.300 C 
ATOM     21  O   UNL     1      11.939   4.800  -1.901  0.00  0.00    -0.253 OA
ATOM     22  N   UNL     1      13.581   5.378  -0.521  0.00  0.00    -0.297 N 
ATOM     23  H   UNL     1      11.831   4.734   1.185  0.00  0.00    +0.151 HD
ATOM     24  H   UNL     1      13.894   5.483   0.391  0.00  0.00    +0.151 HD
BRANCH  22  25
ATOM     25  C   UNL     1      14.466   5.706  -1.642  0.00  0.00    +0.074 C 
ATOM     26  C   UNL     1      15.169   4.435  -2.124  0.00  0.00    +0.022 C 
ATOM     27  C   UNL     1      16.093   4.778  -3.295  0.00  0.00    +0.002 C 
ATOM     28  C   UNL     1      17.139   5.797  -2.838  0.00  0.00    +0.000 C 
ATOM     29  C   UNL     1      16.436   7.067  -2.355  0.00  0.00    +0.002 C 
ATOM     30  C   UNL     1      15.511   6.725  -1.185  0.00  0.00    +0.022 C 
ENDBRANCH  22  25
ENDBRANCH  18  19
ENDBRANCH   2  18
TORSDOF 9
