REMARK  Name = ZINC43554111
REMARK  10 active torsions:
REMARK  status: ('A' for Active; 'I' for Inactive)
REMARK    1  A    between atoms: C_1  and  C_2
REMARK    2  A    between atoms: C_5  and  O_31
REMARK    3  A    between atoms: C_7  and  C_28
REMARK    4  A    between atoms: C_7  and  C_29
REMARK    5  A    between atoms: C_12  and  O_27
REMARK    6  A    between atoms: C_14  and  C_16
REMARK    7  A    between atoms: C_16  and  C_17
REMARK    8  A    between atoms: N_19  and  C_20
REMARK    9  A    between atoms: C_20  and  C_21
REMARK   10  A    between atoms: C_29  and  O_30
REMARK                            x       y       z     vdW  Elec       q    Type
REMARK                         _______ _______ _______ _____ _____    ______ ____
ROOT
ATOM      1  C   UNL     1       0.179   1.516  -0.016  0.00  0.00    +0.012 C 
ATOM      2  C   UNL     1       0.170  -0.025  -0.010  0.00  0.00    -0.023 C 
ATOM      3  C   UNL     1      -1.277  -0.505   0.010  0.00  0.00    +0.010 C 
ATOM      4  C   UNL     1      -1.965  -0.027   1.291  0.00  0.00    +0.032 C 
ATOM      5  C   UNL     1      -1.260  -0.599   2.512  0.00  0.00    +0.123 C 
ATOM      6  C   UNL     1       0.230  -0.280   2.529  0.00  0.00    +0.020 C 
ATOM      7  C   UNL     1       0.919  -0.572   1.203  0.00  0.00    +0.006 C 
ATOM      8  C   UNL     1       1.122  -2.083   1.050  0.00  0.00    +0.007 C 
ATOM      9  C   UNL     1       1.890  -2.405  -0.234  0.00  0.00    +0.032 C 
ATOM     10  C   UNL     1       1.084  -1.923  -1.438  0.00  0.00    +0.119 C 
ATOM     11  C   UNL     1       0.868  -0.424  -1.312  0.00  0.00    +0.032 C 
ATOM     12  C   UNL     1       0.442   1.173   2.977  0.00  0.00    +0.016 C 
ENDROOT
BRANCH  10  13
ATOM     13  O   UNL     1      -0.152  -2.624  -1.527  0.00  0.00    -0.391 OA
ATOM     14  H   UNL     1      -0.055  -3.581  -1.627  0.00  0.00    +0.210 HD
ENDBRANCH  10  13
BRANCH   5  15
ATOM     15  O   UNL     1      -1.457  -2.015   2.568  0.00  0.00    -0.391 OA
ATOM     16  H   UNL     1      -2.384  -2.281   2.628  0.00  0.00    +0.210 HD
ENDBRANCH   5  15
BRANCH  11  17
ATOM     17  C   UNL     1       0.091   0.101  -2.521  0.00  0.00    +0.102 C 
BRANCH  17  18
ATOM     18  C   UNL     1       0.862  -0.198  -3.781  0.00  0.00    +0.214 C 
ATOM     19  O   UNL     1       1.927  -0.774  -3.719  0.00  0.00    -0.276 OA
ATOM     20  N   UNL     1       0.366   0.175  -4.978  0.00  0.00    -0.311 N 
ATOM     21  H   UNL     1      -0.485   0.637  -5.028  0.00  0.00    +0.149 HD
BRANCH  20  22
ATOM     22  C   UNL     1       1.115  -0.115  -6.203  0.00  0.00    +0.139 C 
BRANCH  22  23
ATOM     23  C   UNL     1       0.350   0.402  -7.394  0.00  0.00    -0.030 A 
ATOM     24  C   UNL     1      -0.569  -0.410  -8.031  0.00  0.00    +0.005 A 
ATOM     25  C   UNL     1      -1.271   0.064  -9.124  0.00  0.00    +0.000 A 
ATOM     26  C   UNL     1      -1.054   1.352  -9.578  0.00  0.00    +0.000 A 
ATOM     27  C   UNL     1      -0.136   2.165  -8.940  0.00  0.00    +0.000 A 
ATOM     28  C   UNL     1       0.563   1.691  -7.845  0.00  0.00    +0.005 A 
ENDBRANCH  22  23
ENDBRANCH  20  22
ENDBRANCH  17  18
ENDBRANCH  11  17
BRANCH   6  29
ATOM     29  C   UNL     1       0.864  -1.144   3.645  0.00  0.00    +0.165 C 
BRANCH  29  30
ATOM     30  O   UNL     1       0.262  -0.817   4.899  0.00  0.00    -0.394 OA
ATOM     31  H   UNL     1       0.612  -1.322   5.646  0.00  0.00    +0.209 HD
ENDBRANCH  29  30
ENDBRANCH   6  29
TORSDOF 8
