REMARK  Name = ZINC60397013
REMARK  10 active torsions:
REMARK  status: ('A' for Active; 'I' for Inactive)
REMARK    1  A    between atoms: C_1  and  C_2
REMARK    2  A    between atoms: C_2  and  C_3
REMARK    3  A    between atoms: C_3  and  C_4
REMARK    4  A    between atoms: C_3  and  C_5
REMARK    5  A    between atoms: C_3  and  N_6
REMARK    6  A    between atoms: C_7  and  C_9
REMARK    7  A    between atoms: C_12  and  N_15
REMARK    8  A    between atoms: C_16  and  C_18
REMARK    9  A    between atoms: C_21  and  C_24
REMARK   10  A    between atoms: C_24  and  N_26
REMARK                            x       y       z     vdW  Elec       q    Type
REMARK                         _______ _______ _______ _____ _____    ______ ____
ROOT
ATOM      1  C   UNL     1       1.352  -4.098  -2.278  0.00  0.00    +0.037 A 
ATOM      2  C   UNL     1       0.926  -4.814  -1.156  0.00  0.00    +0.015 A 
ATOM      3  C   UNL     1       0.942  -6.190  -1.171  0.00  0.00    +0.024 A 
ATOM      4  C   UNL     1       1.382  -6.869  -2.303  0.00  0.00    +0.034 A 
ATOM      5  C   UNL     1       1.806  -6.160  -3.423  0.00  0.00    +0.024 A 
ATOM      6  C   UNL     1       1.788  -4.784  -3.416  0.00  0.00    +0.015 A 
ENDROOT
BRANCH   1   8
ATOM      7  N   UNL     1       0.915  -1.963  -1.167  0.00  0.00    -0.306 N 
ATOM      8  C   UNL     1       1.335  -2.623  -2.265  0.00  0.00    +0.244 C 
ATOM      9  O   UNL     1       1.702  -2.002  -3.244  0.00  0.00    -0.270 OA
ATOM     10  H   UNL     1       0.623  -2.459  -0.386  0.00  0.00    +0.150 HD
BRANCH   7  11
ATOM     11  C   UNL     1       0.899  -0.498  -1.154  0.00  0.00    +0.029 C 
ATOM     12  C   UNL     1      -0.020   0.011  -2.266  0.00  0.00    +0.031 C 
ATOM     13  C   UNL     1       2.317   0.029  -1.382  0.00  0.00    +0.031 C 
BRANCH  11  15
ATOM     14  C   UNL     1       0.366   1.524   0.213  0.00  0.00    +0.006 C 
ATOM     15  C   UNL     1       0.383  -0.006   0.200  0.00  0.00    +0.022 C 
ENDBRANCH  11  15
ENDBRANCH   7  11
ENDBRANCH   1   8
BRANCH   4  16
ATOM     16  N   UNL     1       1.397  -8.263  -2.316  0.00  0.00    -0.282 N 
ATOM     17  C   UNL     1       0.454  -8.953  -1.645  0.00  0.00    +0.248 C 
ATOM     18  O   UNL     1      -0.465  -8.364  -1.110  0.00  0.00    -0.270 OA
ATOM     19  H   UNL     1       2.087  -8.736  -2.807  0.00  0.00    +0.155 HD
BRANCH  17  20
ATOM     20  C   UNL     1       0.537 -10.428  -1.561  0.00  0.00    +0.037 A 
ATOM     21  C   UNL     1       1.596 -11.103  -2.171  0.00  0.00    +0.014 A 
ATOM     22  C   UNL     1       1.673 -12.476  -2.092  0.00  0.00    +0.011 A 
ATOM     23  C   UNL     1       0.693 -13.193  -1.402  0.00  0.00    +0.003 A 
ATOM     24  C   UNL     1      -0.367 -12.516  -0.792  0.00  0.00    +0.011 A 
ATOM     25  C   UNL     1      -0.440 -11.143  -0.866  0.00  0.00    +0.014 A 
BRANCH  23  26
ATOM     26  C   UNL     1       0.775 -14.665  -1.318  0.00  0.00    +0.077 C 
ATOM     27  S   UNL     1       2.302 -15.432  -1.206  0.00  0.00    -0.035 S 
BRANCH  26  28
ATOM     28  N   UNL     1      -0.351 -15.405  -1.329  0.00  0.00    -0.352 N 
ATOM     29  H   UNL     1      -1.216 -14.970  -1.392  0.00  0.00    +0.143 HD
ATOM     30  H   UNL     1      -0.297 -16.372  -1.273  0.00  0.00    +0.143 HD
ENDBRANCH  26  28
ENDBRANCH  23  26
ENDBRANCH  17  20
ENDBRANCH   4  16
TORSDOF 7
