REMARK  Name = ZINC13651282
REMARK  16 active torsions:
REMARK  status: ('A' for Active; 'I' for Inactive)
REMARK    1  A    between atoms: C_1  and  C_2
REMARK    2  A    between atoms: C_2  and  N_3
REMARK    3  A    between atoms: N_3  and  C_4
REMARK    4  A    between atoms: N_3  and  C_6
REMARK    5  A    between atoms: C_4  and  C_5
REMARK    6  A    between atoms: C_10  and  N_11
REMARK    7  A    between atoms: N_11  and  C_12
REMARK    8  A    between atoms: N_11  and  C_14
REMARK    9  A    between atoms: C_12  and  C_13
REMARK   10  A    between atoms: C_14  and  C_15
REMARK   11  A    between atoms: C_22  and  C_24
REMARK   12  A    between atoms: C_24  and  C_38
REMARK   13  A    between atoms: C_28  and  C_37
REMARK   14  A    between atoms: C_29  and  O_36
REMARK   15  A    between atoms: C_30  and  C_35
REMARK   16  A    between atoms: C_31  and  C_34
REMARK                            x       y       z     vdW  Elec       q    Type
REMARK                         _______ _______ _______ _____ _____    ______ ____
ROOT
ATOM      1  C   UNL     1      -3.816   8.818  -6.777  0.00  0.00    +0.068 A 
ATOM      2  C   UNL     1      -4.516   8.007  -5.893  0.00  0.00    +0.030 A 
ATOM      3  C   UNL     1      -3.915   6.839  -5.449  0.00  0.00    +0.043 A 
ATOM      4  C   UNL     1      -2.641   6.517  -5.897  0.00  0.00    +0.100 A 
ATOM      5  C   UNL     1      -2.539   8.434  -7.187  0.00  0.00    +0.122 A 
ATOM      6  N   UNL     1      -2.031   5.345  -5.455  0.00  0.00    -0.314 N 
ATOM      7  C   UNL     1      -0.695   5.192  -6.045  0.00  0.00    +0.125 C 
ATOM      8  C   UNL     1      -0.134   3.813  -5.680  0.00  0.00    +0.127 C 
ATOM      9  N   UNL     1      -0.191   3.657  -4.219  0.00  0.00    -0.295 N 
ATOM     10  C   UNL     1      -1.468   3.922  -3.540  0.00  0.00    +0.127 C 
ATOM     11  C   UNL     1      -1.975   5.303  -3.988  0.00  0.00    +0.125 C 
ATOM     12  C   UNL     1       0.897   3.275  -3.521  0.00  0.00    +0.259 C 
ATOM     13  O   UNL     1       1.966   3.154  -4.082  0.00  0.00    -0.271 OA
ATOM     14  N   UNL     1      -1.923   7.294  -6.761  0.00  0.00    -0.330 N 
ATOM     15  H   UNL     1      -0.978   7.036  -7.069  0.00  0.00    +0.168 HD
ENDROOT
BRANCH  12  16
ATOM     16  C   UNL     1       0.786   2.999  -2.044  0.00  0.00    +0.183 C 
ATOM     17  C   UNL     1       1.914   2.055  -1.608  0.00  0.00    +0.062 C 
ATOM     18  C   UNL     1       1.854   0.799  -2.482  0.00  0.00    +0.043 C 
ATOM     19  C   UNL     1       0.438   0.284  -2.535  0.00  0.00    +0.001 A 
ATOM     20  C   UNL     1       0.220  -1.020  -2.948  0.00  0.00    -0.002 A 
ATOM     21  C   UNL     1      -1.069  -1.524  -3.019  0.00  0.00    +0.123 A 
ATOM     22  C   UNL     1      -2.145  -0.717  -2.679  0.00  0.00    -0.002 A 
ATOM     23  C   UNL     1      -1.928   0.579  -2.259  0.00  0.00    -0.002 A 
ATOM     24  C   UNL     1      -0.634   1.085  -2.186  0.00  0.00    +0.129 A 
ATOM     25  O   UNL     1      -0.464   2.366  -1.765  0.00  0.00    -0.476 OA
ATOM     26  C   UNL     1      -3.098   1.452  -1.884  0.00  0.00    +0.048 C 
ATOM     27  C   UNL     1      -3.549  -1.258  -2.762  0.00  0.00    +0.048 C 
ATOM     28  C   UNL     1       1.389  -1.894  -3.324  0.00  0.00    +0.048 C 
ATOM     29  C   UNL     1       0.884   4.312  -1.264  0.00  0.00    +0.066 C 
BRANCH  21  30
ATOM     30  O   UNL     1      -1.278  -2.804  -3.426  0.00  0.00    -0.506 OA
ATOM     31  H   UNL     1      -1.277  -3.450  -2.708  0.00  0.00    +0.292 HD
ENDBRANCH  21  30
ENDBRANCH  12  16
BRANCH   1  32
ATOM     32  N   UNL     1      -4.386  10.010  -7.252  0.00  0.00    -0.328 N 
BRANCH  32  34
ATOM     33  C   UNL     1      -5.626   9.039  -9.127  0.00  0.00    +0.024 C 
ATOM     34  C   UNL     1      -5.732   9.772  -7.789  0.00  0.00    +0.102 C 
ENDBRANCH  32  34
BRANCH  32  35
ATOM     35  C   UNL     1      -4.412  11.036  -6.201  0.00  0.00    +0.102 C 
ATOM     36  C   UNL     1      -4.677  12.405  -6.832  0.00  0.00    +0.024 C 
ENDBRANCH  32  35
ENDBRANCH   1  32
BRANCH   5  37
ATOM     37  N   UNL     1      -1.827   9.239  -8.073  0.00  0.00    -0.316 N 
BRANCH  37  38
ATOM     38  C   UNL     1      -0.398   8.900  -8.059  0.00  0.00    +0.103 C 
ATOM     39  C   UNL     1       0.237   9.416  -6.766  0.00  0.00    +0.024 C 
ENDBRANCH  37  38
BRANCH  37  40
ATOM     40  C   UNL     1      -2.378   9.143  -9.431  0.00  0.00    +0.103 C 
ATOM     41  C   UNL     1      -1.721  10.197 -10.324  0.00  0.00    +0.024 C 
ENDBRANCH  37  40
ENDBRANCH   5  37
TORSDOF 8
