REMARK  Name = ZINC08831613
REMARK  10 active torsions:
REMARK  status: ('A' for Active; 'I' for Inactive)
REMARK    1  A    between atoms: C_1  and  C_2
REMARK    2  A    between atoms: C_9  and  N_14
REMARK    3  A    between atoms: C_10  and  C_11
REMARK    4  A    between atoms: N_14  and  C_15
REMARK    5  A    between atoms: C_15  and  N_17
REMARK    6  A    between atoms: C_18  and  C_20
REMARK    7  A    between atoms: C_21  and  C_22
REMARK    8  A    between atoms: C_25  and  C_28
REMARK    9  A    between atoms: C_28  and  C_29
REMARK   10  A    between atoms: C_28  and  C_30
REMARK                            x       y       z     vdW  Elec       q    Type
REMARK                         _______ _______ _______ _____ _____    ______ ____
ROOT
ATOM      1  N   UNL     1      -3.434  -4.884   0.009  0.00  0.00    -0.291 N 
ATOM      2  H   UNL     1      -4.281  -4.411   0.019  0.00  0.00    +0.154 HD
ENDROOT
BRANCH   1  10
ATOM      3  C   UNL     1      -2.896 -12.686  -0.136  0.00  0.00    +0.008 C 
ATOM      4  C   UNL     1      -3.386 -11.262  -0.408  0.00  0.00    -0.009 C 
ATOM      5  C   UNL     1      -4.627 -10.974   0.442  0.00  0.00    +0.008 C 
ATOM      6  C   UNL     1      -5.266  -9.656  -0.000  0.00  0.00    +0.037 C 
ATOM      7  C   UNL     1      -4.197  -8.570  -0.004  0.00  0.00    -0.023 A 
ATOM      8  C   UNL     1      -2.884  -8.886  -0.018  0.00  0.00    -0.004 A 
ATOM      9  S   UNL     1      -2.044  -7.328  -0.017  0.00  0.00    -0.077 S 
ATOM     10  C   UNL     1      -3.416  -6.270   0.001  0.00  0.00    +0.084 A 
ATOM     11  C   UNL     1      -4.491  -7.147   0.012  0.00  0.00    +0.068 A 
ATOM     12  C   UNL     1      -2.285 -10.259  -0.032  0.00  0.00    +0.046 C 
BRANCH  11  13
ATOM     13  C   UNL     1      -5.872  -6.656   0.036  0.00  0.00    +0.244 C 
ATOM     14  O   UNL     1      -6.462  -6.447  -1.008  0.00  0.00    -0.270 OA
ATOM     15  N   UNL     1      -6.489  -6.437   1.214  0.00  0.00    -0.325 N 
ATOM     16  H   UNL     1      -6.020  -6.604   2.046  0.00  0.00    +0.145 HD
ATOM     17  H   UNL     1      -7.403  -6.112   1.229  0.00  0.00    +0.145 HD
ENDBRANCH  11  13
ENDBRANCH   1  10
BRANCH   1  18
ATOM     18  C   UNL     1      -2.276  -4.195   0.001  0.00  0.00    +0.141 C 
ATOM     19  S   UNL     1      -0.782  -5.030  -0.018  0.00  0.00    -0.018 S 
BRANCH  18  20
ATOM     20  N   UNL     1      -2.295  -2.847   0.009  0.00  0.00    -0.264 N 
ATOM     21  C   UNL     1      -1.137  -2.157   0.001  0.00  0.00    +0.242 C 
ATOM     22  O   UNL     1      -0.075  -2.751  -0.012  0.00  0.00    -0.270 OA
ATOM     23  H   UNL     1      -3.141  -2.373   0.019  0.00  0.00    +0.157 HD
BRANCH  21  24
ATOM     24  C   UNL     1      -1.157  -0.694   0.009  0.00  0.00    +0.068 C 
ATOM     25  C   UNL     1       0.002  -0.004   0.002  0.00  0.00    +0.013 C 
BRANCH  25  26
ATOM     26  C   UNL     1      -0.018   1.468   0.010  0.00  0.00    -0.025 A 
ATOM     27  C   UNL     1      -1.236   2.154   0.020  0.00  0.00    +0.008 A 
ATOM     28  C   UNL     1      -1.247   3.533   0.032  0.00  0.00    +0.004 A 
ATOM     29  C   UNL     1      -0.056   4.237   0.024  0.00  0.00    -0.045 A 
ATOM     30  C   UNL     1       1.154   3.565   0.010  0.00  0.00    +0.004 A 
ATOM     31  C   UNL     1       1.181   2.187   0.003  0.00  0.00    +0.008 A 
BRANCH  29  32
ATOM     32  C   UNL     1      -0.076   5.744   0.032  0.00  0.00    +0.013 C 
ATOM     33  C   UNL     1      -0.816   6.251  -1.208  0.00  0.00    +0.012 C 
ATOM     34  C   UNL     1      -0.792   6.238   1.291  0.00  0.00    +0.012 C 
ENDBRANCH  29  32
ENDBRANCH  25  26
ENDBRANCH  21  24
ENDBRANCH  18  20
ENDBRANCH   1  18
TORSDOF 7
