REMARK  Name = ZINC63708245
REMARK  13 active torsions:
REMARK  status: ('A' for Active; 'I' for Inactive)
REMARK    1  A    between atoms: C_1  and  C_2
REMARK    2  A    between atoms: C_2  and  C_3
REMARK    3  A    between atoms: C_6  and  N_9
REMARK    4  A    between atoms: C_10  and  C_12
REMARK    5  A    between atoms: C_12  and  C_14
REMARK    6  A    between atoms: C_12  and  S_16
REMARK    7  A    between atoms: C_14  and  C_15
REMARK    8  A    between atoms: S_16  and  C_17
REMARK    9  A    between atoms: C_29  and  C_31
REMARK   10  A    between atoms: C_31  and  C_32
REMARK   11  A    between atoms: C_32  and  C_33
REMARK   12  A    between atoms: C_34  and  C_40
REMARK   13  A    between atoms: C_37  and  C_39
REMARK                            x       y       z     vdW  Elec       q    Type
REMARK                         _______ _______ _______ _____ _____    ______ ____
ROOT
ATOM      1  C   UNL     1     -10.116  -2.709  -2.441  0.00  0.00    +0.249 C 
ATOM      2  N   UNL     1     -10.260  -4.085  -1.946  0.00  0.00    -0.356 N 
ATOM      3  C   UNL     1     -10.804  -4.299  -0.756  0.00  0.00    +0.048 A 
ATOM      4  C   UNL     1     -10.953  -5.613  -0.261  0.00  0.00    +0.026 A 
ATOM      5  C   UNL     1     -11.513  -5.811   0.963  0.00  0.00    +0.002 A 
ATOM      6  C   UNL     1     -11.948  -4.745   1.746  0.00  0.00    +0.001 A 
ATOM      7  C   UNL     1     -11.834  -3.455   1.326  0.00  0.00    +0.013 A 
ATOM      8  C   UNL     1     -11.263  -3.179   0.072  0.00  0.00    +0.038 A 
ATOM      9  C   UNL     1     -11.135  -1.851  -0.381  0.00  0.00    +0.128 C 
ATOM     10  N   UNL     1     -10.577  -1.601  -1.606  0.00  0.00    -0.204 N 
ATOM     11  N   UNL     1     -10.589  -0.210  -1.768  0.00  0.00    -0.249 N 
ATOM     12  C   UNL     1     -11.146   0.303  -0.649  0.00  0.00    +0.090 C 
ATOM     13  N   UNL     1     -11.464  -0.672   0.162  0.00  0.00    -0.332 N 
ATOM     14  H   UNL     1     -10.261   0.287  -2.534  0.00  0.00    +0.171 HD
ATOM     15  H   UNL     1      -9.959  -4.832  -2.487  0.00  0.00    +0.162 HD
ATOM     16  H   UNL     1     -11.879  -0.558   1.032  0.00  0.00    +0.168 HD
ENDROOT
BRANCH   1  17
ATOM     17  S   UNL     1      -8.356  -2.436  -2.786  0.00  0.00    -0.103 S 
BRANCH  17  18
ATOM     18  C   UNL     1      -7.551  -2.669  -1.177  0.00  0.00    +0.136 C 
BRANCH  18  20
ATOM     19  N   UNL     1      -7.630  -1.512   1.007  0.00  0.00    -0.285 N 
ATOM     20  C   UNL     1      -7.749  -1.437  -0.333  0.00  0.00    +0.230 C 
ATOM     21  O   UNL     1      -8.016  -0.377  -0.860  0.00  0.00    -0.274 OA
ATOM     22  H   UNL     1      -7.365  -2.346   1.425  0.00  0.00    +0.155 HD
BRANCH  19  26
ATOM     23  C   UNL     1      -8.399   1.840   3.358  0.00  0.00    -0.048 A 
ATOM     24  C   UNL     1      -9.105   1.643   2.186  0.00  0.00    +0.005 A 
ATOM     25  C   UNL     1      -8.852   0.533   1.404  0.00  0.00    +0.023 A 
ATOM     26  C   UNL     1      -7.888  -0.386   1.797  0.00  0.00    +0.033 A 
ATOM     27  C   UNL     1      -7.180  -0.185   2.974  0.00  0.00    +0.023 A 
ATOM     28  C   UNL     1      -7.434   0.930   3.749  0.00  0.00    +0.005 A 
BRANCH  23  30
ATOM     29  C   UNL     1      -7.774   4.205   3.765  0.00  0.00    +0.009 C 
ATOM     30  C   UNL     1      -8.677   3.053   4.209  0.00  0.00    +0.032 C 
ENDBRANCH  23  30
ENDBRANCH  19  26
ENDBRANCH  18  20
BRANCH  18  31
ATOM     31  C   UNL     1      -6.055  -2.910  -1.386  0.00  0.00    +0.020 C 
ATOM     32  C   UNL     1      -5.848  -4.245  -2.105  0.00  0.00    +0.005 C 
ENDBRANCH  18  31
ENDBRANCH  17  18
ENDBRANCH   1  17
BRANCH  12  33
ATOM     33  C   UNL     1     -11.365   1.770  -0.378  0.00  0.00    +0.075 C 
BRANCH  33  34
ATOM     34  C   UNL     1     -12.776   2.164  -0.818  0.00  0.00    +0.042 C 
BRANCH  34  35
ATOM     35  C   UNL     1     -12.996   3.630  -0.547  0.00  0.00    -0.021 C 
ATOM     36  C   UNL     1     -12.843   4.654  -1.389  0.00  0.00    +0.061 C 
ATOM     37  N   UNL     1     -13.134   5.825  -0.780  0.00  0.00    -0.159 NA
ATOM     38  N   UNL     1     -13.474   5.717   0.401  0.00  0.00    -0.180 NA
ATOM     39  C   UNL     1     -13.448   4.285   0.746  0.00  0.00    +0.153 C 
ATOM     40  C   UNL     1     -12.441   4.020   1.868  0.00  0.00    +0.039 C 
ATOM     41  C   UNL     1     -12.405   4.523  -2.825  0.00  0.00    +0.067 C 
ENDBRANCH  34  35
ENDBRANCH  33  34
ENDBRANCH  12  33
TORSDOF 9
