REMARK  Name = ZINC02793650
REMARK  8 active torsions:
REMARK  status: ('A' for Active; 'I' for Inactive)
REMARK    1  A    between atoms: C_3  and  C_6
REMARK    2  A    between atoms: C_6  and  N_7
REMARK    3  A    between atoms: N_7  and  C_8
REMARK    4  A    between atoms: C_8  and  N_10
REMARK    5  A    between atoms: N_10  and  N_11
REMARK    6  A    between atoms: C_12  and  C_14
REMARK    7  A    between atoms: C_19  and  C_32
REMARK    8  A    between atoms: C_22  and  C_25
REMARK                            x       y       z     vdW  Elec       q    Type
REMARK                         _______ _______ _______ _____ _____    ______ ____
ROOT
ATOM      1  C   UNL     1       6.326   2.431  -0.045  0.00  0.00    +0.150 A 
ATOM      2  C   UNL     1       7.695   2.780  -0.062  0.00  0.00    +0.078 A 
ATOM      3  C   UNL     1       8.407   1.636  -0.069  0.00  0.00    +0.119 A 
ATOM      4  N   UNL     1       7.530   0.589  -0.068  0.00  0.00    -0.238 N 
ATOM      5  N   UNL     1       6.238   1.112  -0.052  0.00  0.00    -0.164 NA
ATOM      6  C   UNL     1       7.943  -0.817  -0.084  0.00  0.00    +0.215 C 
ATOM      7  C   UNL     1       9.391  -0.904  -0.579  0.00  0.00    +0.063 C 
ATOM      8  C   UNL     1      10.268   0.083   0.198  0.00  0.00    +0.104 C 
ATOM      9  N   UNL     1       9.793   1.453  -0.079  0.00  0.00    -0.322 N 
ATOM     10  H   UNL     1      10.517   2.257  -0.278  0.00  0.00    +0.148 HD
ENDROOT
BRANCH   8  11
ATOM     11  C   UNL     1      11.702  -0.058  -0.244  0.00  0.00    -0.027 A 
ATOM     12  C   UNL     1      12.126   0.538  -1.417  0.00  0.00    +0.007 A 
ATOM     13  C   UNL     1      13.442   0.413  -1.820  0.00  0.00    +0.020 A 
ATOM     14  C   UNL     1      14.333  -0.317  -1.054  0.00  0.00    +0.041 A 
ATOM     15  C   UNL     1      13.907  -0.918   0.117  0.00  0.00    +0.020 A 
ATOM     16  C   UNL     1      12.592  -0.788   0.522  0.00  0.00    +0.007 A 
ATOM     17 CL   UNL     1      15.985  -0.480  -1.563  0.00  0.00    -0.084 Cl
ENDBRANCH   8  11
BRANCH   1  19
ATOM     18  N   UNL     1       3.926   2.909  -0.020  0.00  0.00    -0.230 N 
ATOM     19  C   UNL     1       5.190   3.375  -0.029  0.00  0.00    +0.280 C 
ATOM     20  O   UNL     1       5.396   4.574  -0.025  0.00  0.00    -0.267 OA
ATOM     21  H   UNL     1       3.740   1.825  -0.024  0.00  0.00    +0.173 HD
BRANCH  18  22
ATOM     22  N   UNL     1       2.849   3.805  -0.005  0.00  0.00    -0.246 N 
ATOM     23  H   UNL     1       3.035   4.889  -0.001  0.00  0.00    +0.172 HD
BRANCH  22  24
ATOM     24  C   UNL     1       1.584   3.338   0.005  0.00  0.00    +0.147 C 
ATOM     25  S   UNL     1       0.268   4.433   0.023  0.00  0.00    -0.017 S 
BRANCH  24  26
ATOM     26  N   UNL     1       1.356   2.010  -0.000  0.00  0.00    -0.318 N 
ATOM     27  H   UNL     1       2.202   1.307  -0.012  0.00  0.00    +0.148 HD
BRANCH  26  28
ATOM     28  C   UNL     1      -0.018   1.503   0.010  0.00  0.00    +0.177 C 
BRANCH  28  31
ATOM     29  C   UNL     1       0.037  -2.131   0.622  0.00  0.00    +0.041 A 
ATOM     30  C   UNL     1       0.023  -0.796   1.089  0.00  0.00    +0.046 A 
ATOM     31  C   UNL     1       0.002  -0.004   0.002  0.00  0.00    +0.122 A 
ATOM     32  O   UNL     1      -0.004  -0.784  -1.092  0.00  0.00    -0.466 OA
ATOM     33  C   UNL     1       0.023  -2.074  -0.722  0.00  0.00    +0.195 A 
ENDBRANCH  28  31
ENDBRANCH  26  28
ENDBRANCH  24  26
ENDBRANCH  22  24
ENDBRANCH  18  22
ENDBRANCH   1  19
BRANCH   6  34
ATOM     34  C   UNL     1       7.031  -1.608  -1.023  0.00  0.00    +0.412 C 
ATOM     35  F   UNL     1       7.124  -1.082  -2.316  0.00  0.00    -0.168 F 
ATOM     36  F   UNL     1       7.426  -2.950  -1.037  0.00  0.00    -0.168 F 
ATOM     37  F   UNL     1       5.708  -1.516  -0.577  0.00  0.00    -0.168 F 
ENDBRANCH   6  34
TORSDOF 8
