REMARK  Name = ZINC00672889
REMARK  6 active torsions:
REMARK  status: ('A' for Active; 'I' for Inactive)
REMARK    1  A    between atoms: C_1  and  C_2
REMARK    2  A    between atoms: C_2  and  C_3
REMARK    3  A    between atoms: C_10  and  N_15
REMARK    4  A    between atoms: C_11  and  C_12
REMARK    5  A    between atoms: N_18  and  C_19
REMARK    6  A    between atoms: C_23  and  C_25
REMARK                            x       y       z     vdW  Elec       q    Type
REMARK                         _______ _______ _______ _____ _____    ______ ____
ROOT
ATOM      1  C   UNL     1       0.202   1.755   1.183  0.00  0.00    -0.006 C 
ATOM      2  C   UNL     1       0.759   1.262  -0.155  0.00  0.00    +0.008 C 
ATOM      3  C   UNL     1      -0.162   1.705  -1.294  0.00  0.00    +0.037 C 
ATOM      4  C   UNL     1      -0.391   3.207  -1.184  0.00  0.00    -0.023 A 
ATOM      5  C   UNL     1      -0.145   3.865  -0.031  0.00  0.00    -0.004 A 
ATOM      6  S   UNL     1      -0.551   5.553  -0.377  0.00  0.00    -0.077 S 
ATOM      7  C   UNL     1      -1.042   5.389  -2.031  0.00  0.00    +0.086 A 
ATOM      8  C   UNL     1      -0.880   4.032  -2.275  0.00  0.00    +0.068 A 
ATOM      9  C   UNL     1       0.360   3.282   1.253  0.00  0.00    +0.046 C 
ENDROOT
BRANCH   7  10
ATOM     10  N   UNL     1      -1.489   6.373  -2.899  0.00  0.00    -0.263 N 
ATOM     11  C   UNL     1      -1.581   7.651  -2.479  0.00  0.00    +0.308 C 
ATOM     12  O   UNL     1      -1.273   7.940  -1.339  0.00  0.00    -0.252 OA
ATOM     13  N   UNL     1      -2.015   8.608  -3.322  0.00  0.00    -0.269 N 
ATOM     14  H   UNL     1      -1.735   6.143  -3.808  0.00  0.00    +0.157 HD
ATOM     15  H   UNL     1      -2.188   8.393  -4.253  0.00  0.00    +0.156 HD
BRANCH  13  16
ATOM     16  C   UNL     1      -2.217   9.912  -2.857  0.00  0.00    +0.035 A 
ATOM     17  C   UNL     1      -2.655  10.127  -1.556  0.00  0.00    +0.023 A 
ATOM     18  C   UNL     1      -2.849  11.415  -1.099  0.00  0.00    +0.002 A 
ATOM     19  C   UNL     1      -2.618  12.490  -1.937  0.00  0.00    +0.003 A 
ATOM     20  C   UNL     1      -2.187  12.280  -3.234  0.00  0.00    -0.049 A 
ATOM     21  C   UNL     1      -1.986  10.994  -3.696  0.00  0.00    +0.026 A 
ATOM     22  C   UNL     1      -1.937  13.455  -4.144  0.00  0.00    +0.044 C 
ENDBRANCH  13  16
ENDBRANCH   7  10
BRANCH   8  23
ATOM     23  C   UNL     1      -1.190   3.454  -3.586  0.00  0.00    +0.244 C 
ATOM     24  O   UNL     1      -2.311   3.039  -3.818  0.00  0.00    -0.270 OA
ATOM     25  N   UNL     1      -0.235   3.382  -4.534  0.00  0.00    -0.325 N 
ATOM     26  H   UNL     1       0.658   3.713  -4.349  0.00  0.00    +0.145 HD
ATOM     27  H   UNL     1      -0.440   2.999  -5.401  0.00  0.00    +0.145 HD
ENDBRANCH   8  23
BRANCH   1  29
ATOM     28  C   UNL     1       0.342   1.504   3.665  0.00  0.00    +0.004 C 
ATOM     29  C   UNL     1       0.979   1.108   2.332  0.00  0.00    +0.000 C 
ENDBRANCH   1  29
TORSDOF 4
