REMARK  Name = ZINC12788203
REMARK  11 active torsions:
REMARK  status: ('A' for Active; 'I' for Inactive)
REMARK    1  A    between atoms: C_1  and  N_2
REMARK    2  A    between atoms: N_2  and  C_3
REMARK    3  A    between atoms: N_2  and  S_4
REMARK    4  A    between atoms: S_4  and  C_7
REMARK    5  A    between atoms: C_11  and  C_13
REMARK    6  A    between atoms: N_15  and  C_16
REMARK    7  A    between atoms: C_16  and  C_17
REMARK    8  A    between atoms: C_17  and  C_19
REMARK    9  A    between atoms: C_17  and  N_62
REMARK   10  A    between atoms: C_22  and  O_25
REMARK   11  A    between atoms: O_25  and  C_26
REMARK                            x       y       z     vdW  Elec       q    Type
REMARK                         _______ _______ _______ _____ _____    ______ ____
ROOT
ATOM      1  C   UNL     1      -5.253  -0.016  -2.291  0.00  0.00    +0.245 C 
ATOM      2  O   UNL     1      -4.915   0.424  -3.373  0.00  0.00    -0.270 OA
ATOM      3  N   UNL     1      -4.467   0.172  -1.212  0.00  0.00    -0.313 N 
ATOM      4  H   UNL     1      -4.736  -0.179  -0.349  0.00  0.00    +0.149 HD
ENDROOT
BRANCH   1   9
ATOM      5  C   UNL     1      -8.103  -1.955  -0.802  0.00  0.00    +0.106 A 
ATOM      6  C   UNL     1      -8.908  -2.146  -1.911  0.00  0.00    +0.030 A 
ATOM      7  C   UNL     1      -8.528  -1.647  -3.144  0.00  0.00    +0.022 A 
ATOM      8  C   UNL     1      -7.341  -0.954  -3.275  0.00  0.00    +0.053 A 
ATOM      9  C   UNL     1      -6.524  -0.757  -2.159  0.00  0.00    +0.057 A 
ATOM     10  C   UNL     1      -6.912  -1.268  -0.919  0.00  0.00    +0.043 A 
ATOM     11 CL   UNL     1      -6.865  -0.328  -4.823  0.00  0.00    -0.083 Cl
BRANCH   5  12
ATOM     12  S   UNL     1      -8.597  -2.595   0.763  0.00  0.00    +0.060 S 
ATOM     13  O   UNL     1      -7.937  -1.812   1.749  0.00  0.00    -0.153 OA
ATOM     14  O   UNL     1     -10.011  -2.730   0.719  0.00  0.00    -0.153 OA
BRANCH  12  16
ATOM     15  C   UNL     1      -6.649  -4.336   1.461  0.00  0.00    +0.131 C 
ATOM     16  N   UNL     1      -7.978  -4.127   0.883  0.00  0.00    -0.183 NA
ATOM     17  C   UNL     1      -8.761  -5.271   0.412  0.00  0.00    +0.131 C 
ENDBRANCH  12  16
ENDBRANCH   5  12
ENDBRANCH   1   9
BRANCH   3  18
ATOM     18  C   UNL     1      -3.206   0.907  -1.343  0.00  0.00    +0.094 C 
BRANCH  18  19
ATOM     19  C   UNL     1      -2.513   0.977   0.019  0.00  0.00    -0.020 C 
BRANCH  19  25
ATOM     20  C   UNL     1      -3.801   2.933   0.634  0.00  0.00    -0.078 C 
ATOM     21  C   UNL     1      -4.866   3.455   1.600  0.00  0.00    -0.019 C 
ATOM     22  C   UNL     1      -4.312   3.425   3.028  0.00  0.00    -0.004 C 
ATOM     23  C   UNL     1      -3.890   1.994   3.373  0.00  0.00    -0.019 C 
ATOM     24  C   UNL     1      -2.853   1.514   2.355  0.00  0.00    -0.078 C 
ATOM     25  N   UNL     1      -3.456   1.544   1.005  0.00  0.00    +0.385 N 
ATOM     26  H   UNL     1      -4.313   0.978   1.011  0.00  0.00    -0.081 HD
ENDBRANCH  19  25
BRANCH  19  27
ATOM     27  C   UNL     1      -1.280   1.836  -0.089  0.00  0.00    -0.059 A 
ATOM     28  C   UNL     1      -1.359   3.089  -0.667  0.00  0.00    +0.005 A 
ATOM     29  C   UNL     1      -0.231   3.881  -0.762  0.00  0.00    +0.046 A 
ATOM     30  C   UNL     1       0.984   3.415  -0.281  0.00  0.00    +0.120 A 
ATOM     31  C   UNL     1       1.063   2.155   0.293  0.00  0.00    +0.046 A 
ATOM     32  C   UNL     1      -0.069   1.367   0.386  0.00  0.00    +0.005 A 
BRANCH  30  33
ATOM     33  O   UNL     1       2.095   4.192  -0.373  0.00  0.00    -0.495 OA
ATOM     34  C   UNL     1       3.312   3.648   0.143  0.00  0.00    +0.277 C 
ENDBRANCH  30  33
ENDBRANCH  19  27
ENDBRANCH  18  19
ENDBRANCH   3  18
TORSDOF 8
