REMARK  Name = ZINC02624865
REMARK  8 active torsions:
REMARK  status: ('A' for Active; 'I' for Inactive)
REMARK    1  A    between atoms: C_3  and  C_6
REMARK    2  A    between atoms: N_10  and  C_23
REMARK    3  A    between atoms: C_11  and  S_13
REMARK    4  A    between atoms: S_13  and  C_14
REMARK    5  A    between atoms: C_14  and  C_15
REMARK    6  A    between atoms: C_15  and  C_17
REMARK    7  A    between atoms: C_26  and  O_29
REMARK    8  A    between atoms: O_29  and  C_30
REMARK                            x       y       z     vdW  Elec       q    Type
REMARK                         _______ _______ _______ _____ _____    ______ ____
ROOT
ATOM      1  C   UNL     1      -2.638   1.557   0.024  0.00  0.00    +0.079 C 
ATOM      2  C   UNL     1      -1.292   1.875   0.015  0.00  0.00    +0.132 C 
ATOM      3  C   UNL     1      -0.162   0.938  -0.061  0.00  0.00    +0.275 C 
ATOM      4  O   UNL     1      -0.214  -0.277  -0.127  0.00  0.00    -0.268 OA
ATOM      5  N   UNL     1       0.948   1.708  -0.047  0.00  0.00    -0.214 N 
ATOM      6  C   UNL     1       0.560   3.023   0.036  0.00  0.00    +0.169 C 
ATOM      7  N   UNL     1      -0.742   3.124   0.076  0.00  0.00    -0.220 NA
ENDROOT
BRANCH   5   8
ATOM      8  C   UNL     1       2.271   1.244  -0.108  0.00  0.00    +0.044 A 
ATOM      9  C   UNL     1       3.061   1.540  -1.211  0.00  0.00    +0.027 A 
ATOM     10  C   UNL     1       4.364   1.087  -1.268  0.00  0.00    +0.048 A 
ATOM     11  C   UNL     1       4.881   0.328  -0.229  0.00  0.00    +0.127 A 
ATOM     12  C   UNL     1       4.091   0.028   0.872  0.00  0.00    +0.048 A 
ATOM     13  C   UNL     1       2.789   0.485   0.932  0.00  0.00    +0.027 A 
BRANCH  11  14
ATOM     14  O   UNL     1       6.163  -0.123  -0.288  0.00  0.00    -0.434 OA
BRANCH  14  15
ATOM     15  C   UNL     1       6.919   0.224  -1.450  0.00  0.00    +0.541 C 
ATOM     16  F   UNL     1       6.287  -0.290  -2.588  0.00  0.00    -0.166 F 
ATOM     17  F   UNL     1       7.005   1.616  -1.553  0.00  0.00    -0.166 F 
ENDBRANCH  14  15
ENDBRANCH  11  14
ENDBRANCH   5   8
BRANCH   1  20
ATOM     18  C   UNL     1      -4.270  -1.654   0.170  0.00  0.00    +0.042 A 
ATOM     19  C   UNL     1      -4.338  -0.262   0.015  0.00  0.00    +0.049 A 
ATOM     20  C   UNL     1      -3.043   0.209   0.120  0.00  0.00    +0.130 A 
ATOM     21  O   UNL     1      -2.236  -0.851   0.337  0.00  0.00    -0.463 OA
ATOM     22  C   UNL     1      -2.971  -1.972   0.367  0.00  0.00    +0.195 A 
ENDBRANCH   1  20
BRANCH   6  23
ATOM     23  S   UNL     1       1.671   4.391   0.084  0.00  0.00    -0.082 S 
BRANCH  23  24
ATOM     24  C   UNL     1       0.485   5.754   0.190  0.00  0.00    +0.157 C 
BRANCH  24  25
ATOM     25  C   UNL     1       1.229   7.064   0.243  0.00  0.00    +0.180 C 
ATOM     26  O   UNL     1       2.443   7.074   0.213  0.00  0.00    -0.291 OA
BRANCH  25  27
ATOM     27  C   UNL     1       0.515   8.278   0.329  0.00  0.00    +0.056 A 
ATOM     28  C   UNL     1       1.003   9.580   0.395  0.00  0.00    +0.020 A 
ATOM     29  C   UNL     1       0.079  10.587   0.470  0.00  0.00    +0.023 A 
ATOM     30  C   UNL     1      -1.247  10.275   0.487  0.00  0.00    +0.056 A 
ATOM     31  S   UNL     1      -1.248   8.544   0.390  0.00  0.00    -0.079 S 
ATOM     32 BR   UNL     1      -2.728  11.446   0.590  0.00  0.00    -0.043 Br
ENDBRANCH  25  27
ENDBRANCH  24  25
ENDBRANCH  23  24
ENDBRANCH   6  23
TORSDOF 8
