REMARK  Name = ZINC36586997
REMARK  19 active torsions:
REMARK  status: ('A' for Active; 'I' for Inactive)
REMARK    1  A    between atoms: C_1  and  C_2
REMARK    2  A    between atoms: C_2  and  C_3
REMARK    3  A    between atoms: C_2  and  C_4
REMARK    4  A    between atoms: C_2  and  C_5
REMARK    5  A    between atoms: C_5  and  C_6
REMARK    6  A    between atoms: C_6  and  C_7
REMARK    7  A    between atoms: C_6  and  C_8
REMARK    8  A    between atoms: C_6  and  N_9
REMARK    9  A    between atoms: C_10  and  C_12
REMARK   10  A    between atoms: C_12  and  C_14
REMARK   11  A    between atoms: C_12  and  N_24
REMARK   12  A    between atoms: C_16  and  N_21
REMARK   13  A    between atoms: N_24  and  C_35
REMARK   14  A    between atoms: C_25  and  C_27
REMARK   15  A    between atoms: C_31  and  O_34
REMARK   16  A    between atoms: C_32  and  O_33
REMARK   17  A    between atoms: C_35  and  C_36
REMARK   18  A    between atoms: C_35  and  C_37
REMARK   19  A    between atoms: C_35  and  C_38
REMARK                            x       y       z     vdW  Elec       q    Type
REMARK                         _______ _______ _______ _____ _____    ______ ____
ROOT
ATOM      1  C   UNL     1       4.972   0.328  -3.775  0.00  0.00    +0.194 C 
ENDROOT
BRANCH   1   2
ATOM      2  C   UNL     1       4.338   1.324  -4.711  0.00  0.00    +0.002 A 
ATOM      3  C   UNL     1       4.855   2.602  -4.816  0.00  0.00    +0.040 A 
ATOM      4  C   UNL     1       4.272   3.515  -5.674  0.00  0.00    +0.127 A 
ATOM      5  C   UNL     1       3.172   3.152  -6.428  0.00  0.00    +0.034 A 
ATOM      6  C   UNL     1       2.654   1.875  -6.325  0.00  0.00    +0.022 A 
ATOM      7  C   UNL     1       3.240   0.958  -5.470  0.00  0.00    +0.047 A 
ATOM      8 CL   UNL     1       2.595  -0.649  -5.345  0.00  0.00    -0.083 Cl
BRANCH   4   9
ATOM      9  N   UNL     1       4.826   4.883  -5.785  0.00  0.00    +0.056 N 
ATOM     10  O   UNL     1       5.788   5.201  -5.125  0.00  0.00    -0.126 OA
ATOM     11  O   UNL     1       4.317   5.683  -6.536  0.00  0.00    -0.126 OA
ENDBRANCH   4   9
ENDBRANCH   1   2
BRANCH   1  13
ATOM     12  N   UNL     1       3.033  -0.108  -2.304  0.00  0.00    -0.308 N 
ATOM     13  C   UNL     1       4.280   0.384  -2.438  0.00  0.00    +0.239 C 
ATOM     14  O   UNL     1       4.846   0.872  -1.482  0.00  0.00    -0.273 OA
ATOM     15  H   UNL     1       2.535  -0.389  -3.087  0.00  0.00    +0.149 HD
BRANCH  12  16
ATOM     16  C   UNL     1       2.428  -0.218  -0.974  0.00  0.00    +0.030 C 
ATOM     17  C   UNL     1       2.309   1.174  -0.351  0.00  0.00    +0.031 C 
ATOM     18  C   UNL     1       3.306  -1.101  -0.086  0.00  0.00    +0.031 C 
BRANCH  16  19
ATOM     19  C   UNL     1       1.036  -0.842  -1.097  0.00  0.00    +0.031 C 
BRANCH  19  21
ATOM     20  C   UNL     1       0.650  -0.682  -3.560  0.00  0.00    +0.010 C 
ATOM     21  C   UNL     1       0.249  -0.122  -2.193  0.00  0.00    -0.036 C 
ATOM     22  C   UNL     1       0.559   1.375  -2.144  0.00  0.00    +0.010 C 
ATOM     23  C   UNL     1      -1.249  -0.340  -1.973  0.00  0.00    +0.010 C 
ENDBRANCH  19  21
ENDBRANCH  16  19
ENDBRANCH  12  16
ENDBRANCH   1  13
BRANCH   1  24
ATOM     24  N   UNL     1       6.391   0.654  -3.605  0.00  0.00    -0.277 N 
ATOM     25  C   UNL     1       6.752   1.736  -2.887  0.00  0.00    +0.252 C 
ATOM     26  O   UNL     1       7.925   1.933  -2.635  0.00  0.00    -0.270 OA
BRANCH  25  27
ATOM     27  C   UNL     1       5.725   2.680  -2.407  0.00  0.00    +0.082 A 
ATOM     28  C   UNL     1       4.382   2.487  -2.744  0.00  0.00    +0.017 A 
ATOM     29  C   UNL     1       3.425   3.370  -2.293  0.00  0.00    +0.005 A 
ATOM     30  C   UNL     1       3.787   4.452  -1.507  0.00  0.00    +0.049 A 
ATOM     31  C   UNL     1       5.113   4.657  -1.166  0.00  0.00    +0.159 A 
ATOM     32  C   UNL     1       6.090   3.770  -1.609  0.00  0.00    +0.171 A 
BRANCH  32  33
ATOM     33  O   UNL     1       7.390   3.964  -1.272  0.00  0.00    -0.503 OA
ATOM     34  H   UNL     1       7.882   4.512  -1.898  0.00  0.00    +0.292 HD
ENDBRANCH  32  33
BRANCH  31  35
ATOM     35  O   UNL     1       5.460   5.722  -0.395  0.00  0.00    -0.503 OA
ATOM     36  H   UNL     1       5.449   5.539   0.555  0.00  0.00    +0.292 HD
ENDBRANCH  31  35
ENDBRANCH  25  27
BRANCH  24  37
ATOM     37  C   UNL     1       7.416  -0.197  -4.214  0.00  0.00    +0.030 C 
ATOM     38  C   UNL     1       6.743  -1.277  -5.065  0.00  0.00    +0.031 C 
ATOM     39  C   UNL     1       8.326   0.656  -5.100  0.00  0.00    +0.031 C 
ATOM     40  C   UNL     1       8.249  -0.859  -3.115  0.00  0.00    +0.031 C 
ENDBRANCH  24  37
ENDBRANCH   1  24
TORSDOF 11
