REMARK  Name = ZINC00943923
REMARK  5 active torsions:
REMARK  status: ('A' for Active; 'I' for Inactive)
REMARK    1  A    between atoms: C_3  and  C_6
REMARK    2  A    between atoms: C_6  and  C_8
REMARK    3  A    between atoms: C_10  and  C_22
REMARK    4  A    between atoms: C_16  and  C_17
REMARK    5  A    between atoms: C_16  and  O_21
REMARK                            x       y       z     vdW  Elec       q    Type
REMARK                         _______ _______ _______ _____ _____    ______ ____
ROOT
ATOM      1  C   UNL     1       0.342  -0.545  -1.041  0.00  0.00    +0.144 C 
ATOM      2  C   UNL     1       0.623  -2.029  -1.305  0.00  0.00    +0.117 C 
ATOM      3  N   UNL     1      -0.647  -2.736  -1.471  0.00  0.00    -0.319 N 
ATOM      4  C   UNL     1      -1.765  -2.315  -0.860  0.00  0.00    +0.133 C 
ATOM      5  S   UNL     1      -3.211  -3.203  -1.089  0.00  0.00    -0.019 S 
ATOM      6  N   UNL     1      -1.795  -1.227  -0.075  0.00  0.00    -0.291 N 
ATOM      7  C   UNL     1      -0.590  -0.433   0.170  0.00  0.00    +0.241 C 
ATOM      8  H   UNL     1      -0.682  -3.525  -2.034  0.00  0.00    +0.148 HD
ATOM      9  H   UNL     1      -2.632  -0.961   0.338  0.00  0.00    +0.151 HD
ENDROOT
BRANCH   2  10
ATOM     10  C   UNL     1       1.376  -2.613  -0.138  0.00  0.00    -0.026 A 
ATOM     11  C   UNL     1       2.747  -2.458  -0.052  0.00  0.00    +0.007 A 
ATOM     12  C   UNL     1       3.438  -2.989   1.021  0.00  0.00    +0.020 A 
ATOM     13  C   UNL     1       2.758  -3.686   2.004  0.00  0.00    +0.041 A 
ATOM     14  C   UNL     1       1.387  -3.846   1.915  0.00  0.00    +0.020 A 
ATOM     15  C   UNL     1       0.697  -3.310   0.844  0.00  0.00    +0.007 A 
ATOM     16 CL   UNL     1       3.626  -4.360   3.348  0.00  0.00    -0.084 Cl
ENDBRANCH   2  10
BRANCH   7  17
ATOM     17  C   UNL     1      -0.978   1.032   0.382  0.00  0.00    +0.436 C 
ATOM     18  F   UNL     1       0.175   1.790   0.613  0.00  0.00    -0.166 F 
ATOM     19  F   UNL     1      -1.631   1.512  -0.758  0.00  0.00    -0.166 F 
ATOM     20  F   UNL     1      -1.831   1.133   1.486  0.00  0.00    -0.166 F 
ENDBRANCH   7  17
BRANCH   1  21
ATOM     21  C   UNL     1      -0.320   0.066  -2.249  0.00  0.00    +0.179 C 
ATOM     22  O   UNL     1      -1.011  -0.620  -2.975  0.00  0.00    -0.291 OA
BRANCH  21  25
ATOM     23  C   UNL     1      -0.315   3.516  -3.628  0.00  0.00    +0.008 A 
ATOM     24  C   UNL     1      -0.649   2.188  -3.590  0.00  0.00    +0.019 A 
ATOM     25  C   UNL     1      -0.138   1.437  -2.536  0.00  0.00    +0.055 A 
ATOM     26  S   UNL     1       0.814   2.656  -1.646  0.00  0.00    -0.094 S 
ATOM     27  C   UNL     1       0.495   4.026  -2.659  0.00  0.00    +0.046 A 
ENDBRANCH  21  25
ENDBRANCH   1  21
BRANCH   7  28
ATOM     28  O   UNL     1       0.077  -0.924   1.334  0.00  0.00    -0.364 OA
ATOM     29  H   UNL     1      -0.456  -0.884   2.139  0.00  0.00    +0.212 HD
ENDBRANCH   7  28
TORSDOF 5
