REMARK  Name = ZINC50998505
REMARK  6 active torsions:
REMARK  status: ('A' for Active; 'I' for Inactive)
REMARK    1  A    between atoms: C_1  and  C_2
REMARK    2  A    between atoms: C_2  and  N_3
REMARK    3  A    between atoms: C_5  and  C_11
REMARK    4  A    between atoms: C_7  and  C_8
REMARK    5  A    between atoms: C_8  and  C_9
REMARK    6  A    between atoms: C_8  and  C_10
REMARK                            x       y       z     vdW  Elec       q    Type
REMARK                         _______ _______ _______ _____ _____    ______ ____
ROOT
ATOM      1  N   UNL     1       0.781  -0.689  -1.127  0.00  0.00    -0.279 N 
ATOM      2  C   UNL     1       0.307  -0.857  -2.410  0.00  0.00    +0.101 C 
ATOM      3  C   UNL     1       1.552  -1.042  -3.256  0.00  0.00    +0.172 C 
ATOM      4  N   UNL     1       2.654  -0.950  -2.285  0.00  0.00    -0.363 N 
ATOM      5  C   UNL     1       2.147  -0.747  -1.120  0.00  0.00    +0.079 C 
ATOM      6  N   UNL     1      -0.924  -0.858  -2.804  0.00  0.00    -0.388 N 
ATOM      7  H   UNL     1      -1.639  -0.729  -2.162  0.00  0.00    +0.157 HD
ATOM      8  H   UNL     1      -1.133  -0.988  -3.743  0.00  0.00    +0.157 HD
ATOM      9  H   UNL     1       3.599  -1.025  -2.488  0.00  0.00    +0.162 HD
ENDROOT
BRANCH   3  10
ATOM     10  C   UNL     1       1.545  -2.394  -3.920  0.00  0.00    -0.018 A 
ATOM     11  C   UNL     1       1.915  -3.518  -3.205  0.00  0.00    +0.007 A 
ATOM     12  C   UNL     1       1.908  -4.758  -3.815  0.00  0.00    +0.015 A 
ATOM     13  C   UNL     1       1.530  -4.876  -5.140  0.00  0.00    +0.018 A 
ATOM     14  C   UNL     1       1.159  -3.751  -5.855  0.00  0.00    +0.015 A 
ATOM     15  C   UNL     1       1.162  -2.512  -5.244  0.00  0.00    +0.007 A 
ATOM     16 BR   UNL     1       1.521  -6.573  -5.974  0.00  0.00    -0.050 Br
ENDBRANCH   3  10
BRANCH   5  17
ATOM     17  C   UNL     1       2.976  -0.593   0.129  0.00  0.00    +0.044 C 
ATOM     18  C   UNL     1       4.253  -1.425  -0.002  0.00  0.00    +0.015 C 
ATOM     19  C   UNL     1       3.343   0.880   0.319  0.00  0.00    +0.015 C 
ENDBRANCH   5  17
BRANCH   1  21
ATOM     20  C   UNL     1      -0.455  -1.826   0.651  0.00  0.00    +0.025 C 
ATOM     21  C   UNL     1      -0.055  -0.474   0.056  0.00  0.00    +0.110 C 
ENDBRANCH   1  21
TORSDOF 3
