REMARK  Name = ZINC35066395
REMARK  14 active torsions:
REMARK  status: ('A' for Active; 'I' for Inactive)
REMARK    1  A    between atoms: C_1  and  C_2
REMARK    2  A    between atoms: C_2  and  C_3
REMARK    3  A    between atoms: C_3  and  C_5
REMARK    4  A    between atoms: C_3  and  N_24
REMARK    5  A    between atoms: N_15  and  C_16
REMARK    6  A    between atoms: C_19  and  O_22
REMARK    7  A    between atoms: O_22  and  C_23
REMARK    8  A    between atoms: N_24  and  C_25
REMARK    9  A    between atoms: C_25  and  C_26
REMARK   10  A    between atoms: C_26  and  C_27
REMARK   11  A    between atoms: C_26  and  C_28
REMARK   12  A    between atoms: N_31  and  C_32
REMARK   13  A    between atoms: C_37  and  O_38
REMARK   14  A    between atoms: O_38  and  C_39
REMARK                            x       y       z     vdW  Elec       q    Type
REMARK                         _______ _______ _______ _____ _____    ______ ____
ROOT
ATOM      1  C   UNL     1       0.876  -0.669   1.023  0.00  0.00    +0.144 C 
ENDROOT
BRANCH   1   2
ATOM      2  C   UNL     1       0.342  -2.064   1.222  0.00  0.00    +0.138 A 
ATOM      3  N   UNL     1       0.458  -2.913   0.246  0.00  0.00    -0.231 NA
ATOM      4  C   UNL     1       0.001  -4.186   0.353  0.00  0.00    +0.078 A 
ATOM      5  C   UNL     1       0.127  -5.100  -0.696  0.00  0.00    +0.028 A 
ATOM      6  C   UNL     1      -0.352  -6.382  -0.544  0.00  0.00    +0.002 A 
ATOM      7  C   UNL     1      -0.959  -6.779   0.640  0.00  0.00    +0.001 A 
ATOM      8  C   UNL     1      -1.095  -5.896   1.689  0.00  0.00    +0.015 A 
ATOM      9  C   UNL     1      -0.617  -4.594   1.556  0.00  0.00    +0.065 A 
ATOM     10  C   UNL     1      -0.734  -3.608   2.641  0.00  0.00    +0.266 A 
ATOM     11  O   UNL     1      -1.256  -3.896   3.702  0.00  0.00    -0.267 OA
ATOM     12  N   UNL     1      -0.234  -2.371   2.415  0.00  0.00    -0.263 N 
BRANCH  12  13
ATOM     13  C   UNL     1      -0.315  -1.396   3.419  0.00  0.00    +0.051 A 
ATOM     14  C   UNL     1      -1.125  -0.282   3.241  0.00  0.00    +0.030 A 
ATOM     15  C   UNL     1      -1.204   0.679   4.229  0.00  0.00    +0.047 A 
ATOM     16  C   UNL     1      -0.474   0.531   5.400  0.00  0.00    +0.120 A 
ATOM     17  C   UNL     1       0.335  -0.582   5.578  0.00  0.00    +0.047 A 
ATOM     18  C   UNL     1       0.410  -1.546   4.593  0.00  0.00    +0.030 A 
BRANCH  16  19
ATOM     19  O   UNL     1      -0.552   1.477   6.373  0.00  0.00    -0.495 OA
ATOM     20  C   UNL     1       0.226   1.261   7.552  0.00  0.00    +0.277 C 
ENDBRANCH  16  19
ENDBRANCH  12  13
ENDBRANCH   1   2
BRANCH   1  21
ATOM     21  N   UNL     1       2.333  -0.722   0.870  0.00  0.00    -0.275 N 
ATOM     22  C   UNL     1       3.126  -0.065   1.740  0.00  0.00    +0.307 C 
ATOM     23  O   UNL     1       2.632   0.571   2.651  0.00  0.00    -0.252 OA
ATOM     24  N   UNL     1       4.465  -0.114   1.599  0.00  0.00    -0.266 N 
ATOM     25  H   UNL     1       4.861  -0.680   0.919  0.00  0.00    +0.156 HD
BRANCH  24  26
ATOM     26  C   UNL     1       5.286   0.655   2.437  0.00  0.00    +0.077 A 
ATOM     27  C   UNL     1       4.787   1.800   3.039  0.00  0.00    +0.027 A 
ATOM     28  C   UNL     1       5.598   2.556   3.864  0.00  0.00    +0.002 A 
ATOM     29  C   UNL     1       6.907   2.173   4.091  0.00  0.00    +0.004 A 
ATOM     30  C   UNL     1       7.411   1.033   3.495  0.00  0.00    +0.047 A 
ATOM     31  C   UNL     1       6.603   0.267   2.671  0.00  0.00    +0.141 A 
BRANCH  31  32
ATOM     32  O   UNL     1       7.096  -0.859   2.087  0.00  0.00    -0.493 OA
ATOM     33  C   UNL     1       8.455  -1.195   2.373  0.00  0.00    +0.277 C 
ENDBRANCH  31  32
ENDBRANCH  24  26
BRANCH  21  34
ATOM     34  C   UNL     1       2.927  -1.488  -0.228  0.00  0.00    +0.113 C 
BRANCH  34  35
ATOM     35  C   UNL     1       3.087  -0.585  -1.452  0.00  0.00    +0.000 C 
ATOM     36  C   UNL     1       4.096   0.523  -1.139  0.00  0.00    +0.009 C 
ATOM     37  C   UNL     1       3.591  -1.414  -2.635  0.00  0.00    +0.009 C 
ENDBRANCH  34  35
ENDBRANCH  21  34
ENDBRANCH   1  21
BRANCH   1  39
ATOM     38  C   UNL     1       0.699   1.399  -0.366  0.00  0.00    +0.006 C 
ATOM     39  C   UNL     1       0.254  -0.058  -0.234  0.00  0.00    +0.027 C 
ENDBRANCH   1  39
TORSDOF 9
