REMARK  Name = ZINC63383806
REMARK  11 active torsions:
REMARK  status: ('A' for Active; 'I' for Inactive)
REMARK    1  A    between atoms: C_1  and  C_2
REMARK    2  A    between atoms: C_2  and  C_3
REMARK    3  A    between atoms: C_3  and  C_4
REMARK    4  A    between atoms: C_4  and  N_5
REMARK    5  A    between atoms: C_6  and  C_8
REMARK    6  A    between atoms: C_8  and  C_10
REMARK    7  A    between atoms: C_8  and  N_14
REMARK    8  A    between atoms: C_10  and  C_11
REMARK    9  A    between atoms: C_11  and  C_12
REMARK   10  A    between atoms: C_11  and  C_13
REMARK   11  A    between atoms: C_15  and  C_17
REMARK                            x       y       z     vdW  Elec       q    Type
REMARK                         _______ _______ _______ _____ _____    ______ ____
ROOT
ATOM      1  C   UNL     1       2.257  -8.080  -4.835  0.00  0.00    +0.167 C 
ATOM      2  C   UNL     1       2.584  -8.726  -3.475  0.00  0.00    +0.065 C 
ATOM      3  C   UNL     1       3.649  -9.764  -3.724  0.00  0.00    -0.034 C 
ATOM      4  C   UNL     1       3.703 -11.046  -3.374  0.00  0.00    -0.001 A 
ATOM      5  C   UNL     1       2.805 -11.873  -2.552  0.00  0.00    +0.010 A 
ATOM      6  C   UNL     1       3.158 -13.178  -2.407  0.00  0.00    +0.001 A 
ATOM      7  C   UNL     1       4.300 -13.736  -2.990  0.00  0.00    +0.002 A 
ATOM      8  C   UNL     1       5.184 -13.048  -3.755  0.00  0.00    +0.026 A 
ATOM      9  C   UNL     1       4.924 -11.664  -3.975  0.00  0.00    +0.043 A 
ATOM     10  N   UNL     1       5.601 -10.775  -4.640  0.00  0.00    -0.375 N 
ATOM     11  C   UNL     1       4.929  -9.483  -4.498  0.00  0.00    +0.131 C 
ATOM     12  C   UNL     1       4.523  -8.896  -5.849  0.00  0.00    +0.134 C 
ATOM     13  N   UNL     1       3.053  -8.758  -5.867  0.00  0.00    -0.276 N 
ATOM     14  C   UNL     1       2.578  -9.370  -6.969  0.00  0.00    +0.248 C 
ATOM     15  O   UNL     1       1.422  -9.333  -7.342  0.00  0.00    -0.270 OA
ATOM     16  C   UNL     1       3.658 -10.085  -7.650  0.00  0.00    +0.042 A 
ATOM     17  C   UNL     1       4.889  -9.804  -6.976  0.00  0.00    -0.013 A 
ATOM     18  C   UNL     1       6.096 -10.331  -7.379  0.00  0.00    +0.006 A 
ATOM     19  C   UNL     1       6.083 -11.154  -8.502  0.00  0.00    +0.000 A 
ATOM     20  C   UNL     1       4.917 -11.432  -9.186  0.00  0.00    +0.001 A 
ATOM     21  C   UNL     1       3.637 -10.912  -8.776  0.00  0.00    +0.013 A 
ATOM     22  H   UNL     1       6.413 -10.941  -5.144  0.00  0.00    +0.160 HD
ENDROOT
BRANCH   1  24
ATOM     23  N   UNL     1       2.008  -5.797  -3.916  0.00  0.00    -0.302 N 
ATOM     24  C   UNL     1       2.611  -6.615  -4.801  0.00  0.00    +0.235 C 
ATOM     25  O   UNL     1       3.437  -6.173  -5.571  0.00  0.00    -0.274 OA
ATOM     26  H   UNL     1       1.401  -6.162  -3.254  0.00  0.00    +0.150 HD
BRANCH  23  27
ATOM     27  C   UNL     1       2.271  -4.356  -3.954  0.00  0.00    +0.159 C 
BRANCH  27  29
ATOM     28  N   UNL     1       2.338  -2.494  -2.327  0.00  0.00    -0.314 N 
ATOM     29  C   UNL     1       1.943  -3.751  -2.614  0.00  0.00    +0.233 C 
ATOM     30  O   UNL     1       1.324  -4.394  -1.792  0.00  0.00    -0.274 OA
ATOM     31  H   UNL     1       2.873  -1.997  -2.965  0.00  0.00    +0.149 HD
BRANCH  28  32
ATOM     32  C   UNL     1       1.959  -1.880  -1.052  0.00  0.00    +0.104 C 
BRANCH  32  33
ATOM     33  C   UNL     1       2.531  -0.463  -0.980  0.00  0.00    +0.018 C 
BRANCH  33  35
ATOM     34  C   UNL     1       2.707   1.596   0.425  0.00  0.00    +0.004 C 
ATOM     35  C   UNL     1       2.135   0.179   0.352  0.00  0.00    -0.002 C 
ENDBRANCH  33  35
ENDBRANCH  32  33
ENDBRANCH  28  32
ENDBRANCH  27  29
BRANCH  27  36
ATOM     36  C   UNL     1       1.401  -3.708  -5.033  0.00  0.00    +0.034 C 
BRANCH  36  37
ATOM     37  C   UNL     1       1.700  -2.209  -5.096  0.00  0.00    -0.015 C 
ATOM     38  C   UNL     1       3.133  -1.995  -5.588  0.00  0.00    +0.007 C 
ATOM     39  C   UNL     1       0.724  -1.534  -6.062  0.00  0.00    +0.007 C 
ENDBRANCH  36  37
ENDBRANCH  27  36
ENDBRANCH  23  27
ENDBRANCH   1  24
TORSDOF 8
