REMARK  Name = ZINC67261385
REMARK  6 active torsions:
REMARK  status: ('A' for Active; 'I' for Inactive)
REMARK    1  A    between atoms: C_1  and  C_2
REMARK    2  A    between atoms: C_2  and  O_3
REMARK    3  A    between atoms: O_3  and  C_4
REMARK    4  A    between atoms: C_8  and  C_10
REMARK    5  A    between atoms: C_10  and  N_11
REMARK    6  A    between atoms: C_22  and  C_25
REMARK                            x       y       z     vdW  Elec       q    Type
REMARK                         _______ _______ _______ _____ _____    ______ ____
ROOT
ATOM      1  N   UNL     1      -4.758  -4.566   1.391  0.00  0.00    -0.324 N 
ATOM      2  C   UNL     1      -6.002  -5.104   1.646  0.00  0.00    +0.131 A 
ATOM      3  C   UNL     1      -6.459  -5.303   3.029  0.00  0.00    +0.040 A 
ATOM      4  C   UNL     1      -5.663  -4.961   4.122  0.00  0.00    +0.013 A 
ATOM      5  C   UNL     1      -6.137  -5.167   5.399  0.00  0.00    +0.001 A 
ATOM      6  C   UNL     1      -7.397  -5.712   5.602  0.00  0.00    +0.002 A 
ATOM      7  C   UNL     1      -8.195  -6.056   4.531  0.00  0.00    +0.028 A 
ATOM      8  C   UNL     1      -7.736  -5.856   3.237  0.00  0.00    +0.080 A 
ATOM      9  N   UNL     1      -8.501  -6.184   2.132  0.00  0.00    -0.193 N 
ATOM     10  C   UNL     1      -8.014  -5.972   0.869  0.00  0.00    +0.186 A 
ATOM     11  N   UNL     1      -6.800  -5.442   0.655  0.00  0.00    -0.210 NA
ATOM     12  C   UNL     1      -9.015  -6.403  -0.002  0.00  0.00    +0.139 A 
ATOM     13  N   UNL     1     -10.041  -6.847   0.729  0.00  0.00    -0.127 NA
ATOM     14  N   UNL     1      -9.779  -6.736   1.983  0.00  0.00    -0.058 NA
ATOM     15  H   UNL     1      -4.176  -4.319   2.126  0.00  0.00    +0.148 HD
ENDROOT
BRANCH  12  16
ATOM     16  C   UNL     1      -8.951  -6.373  -1.482  0.00  0.00    +0.006 A 
ATOM     17  C   UNL     1      -8.284  -5.335  -2.132  0.00  0.00    +0.013 A 
ATOM     18  C   UNL     1      -8.228  -5.311  -3.511  0.00  0.00    +0.039 A 
ATOM     19  C   UNL     1      -8.833  -6.316  -4.248  0.00  0.00    +0.123 A 
ATOM     20  C   UNL     1      -9.497  -7.349  -3.607  0.00  0.00    +0.039 A 
ATOM     21  C   UNL     1      -9.553  -7.385  -2.229  0.00  0.00    +0.013 A 
ATOM     22  F   UNL     1      -8.775  -6.288  -5.598  0.00  0.00    -0.205 F 
ENDBRANCH  12  16
BRANCH   1  23
ATOM     23  C   UNL     1      -4.316  -4.366   0.008  0.00  0.00    +0.138 C 
BRANCH  23  28
ATOM     24  C   UNL     1      -1.498  -1.848   0.006  0.00  0.00    +0.121 A 
ATOM     25  C   UNL     1      -0.387  -2.679  -0.003  0.00  0.00    +0.045 A 
ATOM     26  C   UNL     1      -0.552  -4.051  -0.008  0.00  0.00    +0.004 A 
ATOM     27  C   UNL     1      -1.823  -4.596  -0.004  0.00  0.00    +0.005 A 
ATOM     28  C   UNL     1      -2.932  -3.769   0.004  0.00  0.00    -0.027 A 
ATOM     29  C   UNL     1      -2.772  -2.397   0.016  0.00  0.00    +0.050 A 
BRANCH  24  30
ATOM     30  O   UNL     1      -1.339  -0.499   0.012  0.00  0.00    -0.492 OA
BRANCH  30  32
ATOM     31  C   UNL     1      -0.019   1.526   0.010  0.00  0.00    +0.048 C 
ATOM     32  C   UNL     1       0.002  -0.004   0.002  0.00  0.00    +0.225 C 
ENDBRANCH  30  32
ENDBRANCH  24  30
ENDBRANCH  23  28
ENDBRANCH   1  23
TORSDOF 5
