REMARK  Name = ZINC14956340
REMARK  8 active torsions:
REMARK  status: ('A' for Active; 'I' for Inactive)
REMARK    1  A    between atoms: C_4  and  C_7
REMARK    2  A    between atoms: C_7  and  N_8
REMARK    3  A    between atoms: C_9  and  C_21
REMARK    4  A    between atoms: C_12  and  S_13
REMARK    5  A    between atoms: S_13  and  C_14
REMARK    6  A    between atoms: C_14  and  C_15
REMARK    7  A    between atoms: C_26  and  C_27
REMARK    8  A    between atoms: C_26  and  N_69
REMARK                            x       y       z     vdW  Elec       q    Type
REMARK                         _______ _______ _______ _____ _____    ______ ____
ROOT
ATOM      1  N   UNL     1      -1.094   4.443  -3.389  0.00  0.00    -0.301 N 
ATOM      2  C   UNL     1      -1.566   3.627  -2.398  0.00  0.00    +0.137 A 
ATOM      3  N   UNL     1      -2.811   3.360  -2.675  0.00  0.00    -0.133 NA
ATOM      4  N   UNL     1      -3.159   3.955  -3.760  0.00  0.00    -0.122 NA
ATOM      5  C   UNL     1      -2.142   4.631  -4.243  0.00  0.00    +0.192 A 
ENDROOT
BRANCH   2   6
ATOM      6  C   UNL     1      -0.788   3.123  -1.209  0.00  0.00    +0.054 C 
ATOM      7  C   UNL     1      -0.752   1.593  -1.232  0.00  0.00    -0.008 C 
ATOM      8  C   UNL     1      -0.013   1.086   0.008  0.00  0.00    -0.078 C 
ATOM      9  C   UNL     1      -0.705   3.026   1.284  0.00  0.00    -0.078 C 
ATOM     10  C   UNL     1      -1.465   3.591   0.082  0.00  0.00    -0.008 C 
ATOM     11  N   UNL     1      -0.728   1.550   1.216  0.00  0.00    +0.382 N 
ATOM     12  H   UNL     1      -1.704   1.234   1.167  0.00  0.00    -0.081 HD
BRANCH  11  13
ATOM     13  C   UNL     1      -0.099   0.979   2.425  0.00  0.00    -0.041 C 
BRANCH  13  14
ATOM     14  C   UNL     1      -0.658   1.666   3.644  0.00  0.00    -0.038 A 
ATOM     15  C   UNL     1       0.058   2.641   4.267  0.00  0.00    +0.004 A 
ATOM     16  C   UNL     1      -0.440   3.289   5.396  0.00  0.00    +0.001 A 
ATOM     17  C   UNL     1      -1.660   2.965   5.906  0.00  0.00    +0.010 A 
ATOM     18  C   UNL     1      -2.427   1.964   5.288  0.00  0.00    +0.001 A 
ATOM     19  C   UNL     1      -1.924   1.307   4.138  0.00  0.00    +0.072 A 
ATOM     20  N   UNL     1      -2.654   0.358   3.542  0.00  0.00    -0.255 NA
ATOM     21  C   UNL     1      -3.835   0.019   3.998  0.00  0.00    +0.111 A 
ATOM     22  C   UNL     1      -4.390   0.630   5.122  0.00  0.00    +0.020 A 
ATOM     23  C   UNL     1      -3.693   1.599   5.785  0.00  0.00    +0.011 A 
ENDBRANCH  13  14
ENDBRANCH  11  13
ENDBRANCH   2   6
BRANCH   1  24
ATOM     24  C   UNL     1       0.256   4.999  -3.508  0.00  0.00    +0.160 C 
BRANCH  24  28
ATOM     25  C   UNL     1       2.712   2.310  -5.741  0.00  0.00    +0.000 A 
ATOM     26  C   UNL     1       1.997   3.297  -6.393  0.00  0.00    +0.000 A 
ATOM     27  C   UNL     1       1.202   4.167  -5.671  0.00  0.00    +0.005 A 
ATOM     28  C   UNL     1       1.122   4.050  -4.296  0.00  0.00    -0.028 A 
ATOM     29  C   UNL     1       1.841   3.067  -3.643  0.00  0.00    +0.005 A 
ATOM     30  C   UNL     1       2.632   2.193  -4.366  0.00  0.00    +0.000 A 
ENDBRANCH  24  28
ENDBRANCH   1  24
BRANCH   5  31
ATOM     31  S   UNL     1      -2.133   5.600  -5.715  0.00  0.00    -0.083 S 
BRANCH  31  32
ATOM     32  C   UNL     1      -3.840   5.355  -6.263  0.00  0.00    +0.109 C 
BRANCH  32  33
ATOM     33  C   UNL     1      -4.074   6.125  -7.564  0.00  0.00    +0.129 C 
ATOM     34  C   UNL     1      -5.557   6.033  -7.985  0.00  0.00    +0.034 C 
ATOM     35  C   UNL     1      -5.504   5.929  -9.526  0.00  0.00    +0.031 C 
ATOM     36  C   UNL     1      -3.995   5.971  -9.854  0.00  0.00    +0.160 C 
ATOM     37  O   UNL     1      -3.343   5.512  -8.649  0.00  0.00    -0.376 OA
ENDBRANCH  32  33
ENDBRANCH  31  32
ENDBRANCH   5  31
TORSDOF 8
