REMARK  Name = ZINC14984550
REMARK  14 active torsions:
REMARK  status: ('A' for Active; 'I' for Inactive)
REMARK    1  A    between atoms: C_1  and  C_2
REMARK    2  A    between atoms: C_2  and  C_3
REMARK    3  A    between atoms: C_3  and  N_4
REMARK    4  A    between atoms: C_5  and  C_7
REMARK    5  A    between atoms: C_7  and  C_8
REMARK    6  A    between atoms: C_8  and  C_9
REMARK    7  A    between atoms: C_9  and  C_10
REMARK    8  A    between atoms: C_14  and  C_39
REMARK    9  A    between atoms: C_15  and  C_38
REMARK   10  A    between atoms: C_16  and  O_37
REMARK   11  A    between atoms: C_23  and  O_36
REMARK   12  A    between atoms: C_26  and  C_35
REMARK   13  A    between atoms: C_27  and  C_34
REMARK   14  A    between atoms: C_30  and  O_33
REMARK                            x       y       z     vdW  Elec       q    Type
REMARK                         _______ _______ _______ _____ _____    ______ ____
ROOT
ATOM      1  C   UNL     1       0.011   1.072   2.506  0.00  0.00    -0.002 C 
ATOM      2  C   UNL     1       1.385   1.764   2.625  0.00  0.00    +0.005 C 
ATOM      3  C   UNL     1       1.378   2.522   3.970  0.00  0.00    +0.008 C 
ATOM      4  C   UNL     1       0.323   1.759   4.824  0.00  0.00    -0.019 C 
ATOM      5  C   UNL     1      -0.762   1.452   3.776  0.00  0.00    +0.002 C 
ATOM      6  C   UNL     1      -1.723   0.373   4.218  0.00  0.00    +0.122 C 
ATOM      7  C   UNL     1      -0.988  -0.886   4.671  0.00  0.00    +0.036 C 
ATOM      8  C   UNL     1      -0.038  -0.525   5.819  0.00  0.00    +0.004 C 
ATOM      9  C   UNL     1       0.998   0.471   5.303  0.00  0.00    +0.028 C 
ATOM     10  C   UNL     1       1.974   0.811   6.432  0.00  0.00    +0.119 C 
ATOM     11  C   UNL     1       2.674  -0.463   6.907  0.00  0.00    +0.039 C 
ATOM     12  C   UNL     1       1.628  -1.454   7.422  0.00  0.00    -0.022 C 
ATOM     13  C   UNL     1       0.662  -1.803   6.288  0.00  0.00    -0.023 C 
ATOM     14  C   UNL     1       1.441  -2.428   5.129  0.00  0.00    +0.010 C 
ATOM     15  C   UNL     1       2.142  -3.699   5.612  0.00  0.00    +0.032 C 
ATOM     16  C   UNL     1       3.107  -3.350   6.746  0.00  0.00    +0.115 C 
ATOM     17  C   UNL     1       2.327  -2.726   7.905  0.00  0.00    +0.038 C 
ATOM     18  C   UNL     1      -0.382  -2.799   6.796  0.00  0.00    +0.012 C 
ATOM     19  C   UNL     1       0.851  -0.823   8.579  0.00  0.00    +0.012 C 
ATOM     20  C   UNL     1      -1.564   2.727   3.505  0.00  0.00    +0.014 C 
ATOM     21  C   UNL     1      -0.214   2.606   5.980  0.00  0.00    +0.012 C 
ENDROOT
BRANCH  16  22
ATOM     22  O   UNL     1       4.083  -2.419   6.273  0.00  0.00    -0.392 OA
ATOM     23  H   UNL     1       4.616  -2.748   5.536  0.00  0.00    +0.210 HD
ENDBRANCH  16  22
BRANCH  10  24
ATOM     24  O   UNL     1       2.949   1.740   5.954  0.00  0.00    -0.391 OA
ATOM     25  H   UNL     1       3.603   2.001   6.617  0.00  0.00    +0.210 HD
ENDBRANCH  10  24
BRANCH   6  26
ATOM     26  O   UNL     1      -2.600   0.056   3.135  0.00  0.00    -0.391 OA
ATOM     27  H   UNL     1      -3.248  -0.632   3.342  0.00  0.00    +0.210 HD
ENDBRANCH   6  26
BRANCH   1  28
ATOM     28  C   UNL     1      -0.729   1.579   1.267  0.00  0.00    +0.004 C 
BRANCH  28  29
ATOM     29  C   UNL     1      -0.013   1.086   0.008  0.00  0.00    +0.009 C 
BRANCH  29  30
ATOM     30  C   UNL     1      -0.753   1.593  -1.232  0.00  0.00    +0.096 C 
BRANCH  30  32
ATOM     31  N   UNL     1      -0.524   1.433  -3.689  0.00  0.00    -0.315 N 
ATOM     32  C   UNL     1      -0.047   1.107  -2.471  0.00  0.00    +0.213 C 
ATOM     33  O   UNL     1       0.949   0.422  -2.373  0.00  0.00    -0.276 OA
ATOM     34  H   UNL     1      -1.321   1.980  -3.768  0.00  0.00    +0.149 HD
BRANCH  31  35
ATOM     35  C   UNL     1       0.162   0.960  -4.895  0.00  0.00    +0.104 C 
BRANCH  35  37
ATOM     36  C   UNL     1       0.138   0.974  -7.393  0.00  0.00    +0.005 C 
ATOM     37  C   UNL     1      -0.578   1.467  -6.134  0.00  0.00    +0.015 C 
ENDBRANCH  35  37
ENDBRANCH  31  35
ENDBRANCH  30  32
ENDBRANCH  29  30
ENDBRANCH  28  29
ENDBRANCH   1  28
TORSDOF 9
