REMARK  Name = ZINC20641001
REMARK  15 active torsions:
REMARK  status: ('A' for Active; 'I' for Inactive)
REMARK    1  A    between atoms: C_1  and  C_2
REMARK    2  A    between atoms: C_2  and  O_3
REMARK    3  A    between atoms: O_3  and  C_4
REMARK    4  A    between atoms: C_4  and  C_5
REMARK    5  A    between atoms: C_4  and  O_34
REMARK    6  A    between atoms: C_5  and  C_6
REMARK    7  A    between atoms: C_6  and  N_7
REMARK    8  A    between atoms: C_20  and  S_21
REMARK    9  A    between atoms: S_21  and  C_22
REMARK   10  A    between atoms: C_22  and  C_23
REMARK   11  A    between atoms: N_25  and  C_26
REMARK   12  A    between atoms: C_31  and  O_32
REMARK   13  A    between atoms: O_32  and  C_33
REMARK   14  A    between atoms: O_34  and  C_35
REMARK   15  A    between atoms: C_35  and  C_36
REMARK                            x       y       z     vdW  Elec       q    Type
REMARK                         _______ _______ _______ _____ _____    ______ ____
ROOT
ATOM      1  N   UNL     1      -3.686  -1.775   0.243  0.00  0.00    -0.287 N 
ATOM      2  C   UNL     1      -3.265  -0.489   0.195  0.00  0.00    +0.269 A 
ATOM      3  O   UNL     1      -4.064   0.431   0.143  0.00  0.00    -0.266 OA
ATOM      4  C   UNL     1      -1.888  -0.244   0.206  0.00  0.00    +0.103 A 
ATOM      5  C   UNL     1      -0.965  -1.286   0.265  0.00  0.00    +0.094 A 
ATOM      6  C   UNL     1       0.456  -0.894   0.271  0.00  0.00    +0.015 A 
ATOM      7  C   UNL     1       1.583  -1.746   0.325  0.00  0.00    +0.011 A 
ATOM      8  C   UNL     1       2.843  -1.234   0.323  0.00  0.00    +0.001 A 
ATOM      9  C   UNL     1       3.068   0.135   0.268  0.00  0.00    +0.001 A 
ATOM     10  C   UNL     1       1.993   0.999   0.214  0.00  0.00    +0.016 A 
ATOM     11  C   UNL     1       0.709   0.488   0.216  0.00  0.00    +0.022 A 
ATOM     12  S   UNL     1      -0.902   1.229   0.166  0.00  0.00    -0.081 S 
ATOM     13  N   UNL     1      -1.474  -2.549   0.310  0.00  0.00    -0.222 NA
ATOM     14  C   UNL     1      -2.762  -2.777   0.300  0.00  0.00    +0.173 A 
ENDROOT
BRANCH   1  15
ATOM     15  C   UNL     1      -5.118  -2.087   0.234  0.00  0.00    +0.132 C 
BRANCH  15  16
ATOM     16  C   UNL     1      -5.594  -2.256  -1.210  0.00  0.00    +0.083 C 
BRANCH  16  17
ATOM     17  C   UNL     1      -7.089  -2.582  -1.219  0.00  0.00    +0.252 C 
BRANCH  17  18
ATOM     18  O   UNL     1      -7.559  -2.625  -2.568  0.00  0.00    -0.352 OA
BRANCH  18  20
ATOM     19  C   UNL     1      -9.368  -2.523  -4.166  0.00  0.00    +0.034 C 
ATOM     20  C   UNL     1      -8.948  -2.320  -2.709  0.00  0.00    +0.159 C 
ENDBRANCH  18  20
ENDBRANCH  17  18
BRANCH  17  21
ATOM     21  O   UNL     1      -7.304  -3.851  -0.598  0.00  0.00    -0.352 OA
BRANCH  21  22
ATOM     22  C   UNL     1      -8.678  -4.146  -0.339  0.00  0.00    +0.159 C 
ATOM     23  C   UNL     1      -8.777  -5.440   0.471  0.00  0.00    +0.034 C 
ENDBRANCH  21  22
ENDBRANCH  17  21
ENDBRANCH  16  17
ENDBRANCH  15  16
ENDBRANCH   1  15
BRANCH  14  24
ATOM     24  S   UNL     1      -3.325  -4.445   0.362  0.00  0.00    -0.078 S 
BRANCH  24  25
ATOM     25  C   UNL     1      -1.738  -5.311   0.423  0.00  0.00    +0.173 C 
BRANCH  25  26
ATOM     26  C   UNL     1      -1.978  -6.798   0.483  0.00  0.00    +0.228 C 
ATOM     27  O   UNL     1      -3.112  -7.229   0.483  0.00  0.00    -0.275 OA
ATOM     28  N   UNL     1      -0.934  -7.648   0.535  0.00  0.00    -0.282 N 
ATOM     29  H   UNL     1       0.092  -7.265   0.434  0.00  0.00    +0.155 HD
BRANCH  28  30
ATOM     30  C   UNL     1      -1.155  -9.019   0.718  0.00  0.00    +0.076 A 
ATOM     31  C   UNL     1      -2.327  -9.461   1.315  0.00  0.00    +0.027 A 
ATOM     32  C   UNL     1      -2.545 -10.815   1.490  0.00  0.00    +0.002 A 
ATOM     33  C   UNL     1      -1.594 -11.730   1.080  0.00  0.00    +0.004 A 
ATOM     34  C   UNL     1      -0.422 -11.297   0.488  0.00  0.00    +0.047 A 
ATOM     35  C   UNL     1      -0.197  -9.943   0.305  0.00  0.00    +0.141 A 
BRANCH  35  36
ATOM     36  O   UNL     1       0.955  -9.515  -0.276  0.00  0.00    -0.493 OA
ATOM     37  C   UNL     1       1.892 -10.518  -0.674  0.00  0.00    +0.277 C 
ENDBRANCH  35  36
ENDBRANCH  28  30
ENDBRANCH  25  26
ENDBRANCH  24  25
ENDBRANCH  14  24
TORSDOF 12
