REMARK  Name = ZINC58974427
REMARK  13 active torsions:
REMARK  status: ('A' for Active; 'I' for Inactive)
REMARK    1  A    between atoms: C_1  and  O_2
REMARK    2  A    between atoms: O_2  and  C_3
REMARK    3  A    between atoms: C_8  and  C_9
REMARK    4  A    between atoms: C_11  and  C_32
REMARK    5  A    between atoms: C_13  and  S_15
REMARK    6  A    between atoms: S_15  and  C_16
REMARK    7  A    between atoms: C_16  and  C_17
REMARK    8  A    between atoms: C_17  and  C_18
REMARK    9  A    between atoms: C_18  and  C_19
REMARK   10  A    between atoms: N_21  and  C_22
REMARK   11  A    between atoms: C_27  and  C_28
REMARK   12  A    between atoms: C_28  and  O_30
REMARK   13  A    between atoms: O_30  and  C_31
REMARK                            x       y       z     vdW  Elec       q    Type
REMARK                         _______ _______ _______ _____ _____    ______ ____
ROOT
ATOM      1  C   UNL     1       0.096  -2.832  -0.036  0.00  0.00    +0.079 A 
ATOM      2  C   UNL     1       0.167  -4.227  -0.092  0.00  0.00    +0.061 A 
ATOM      3  C   UNL     1      -0.404  -4.957   0.934  0.00  0.00    +0.148 A 
ATOM      4  N   UNL     1      -0.996  -4.320   1.931  0.00  0.00    -0.218 NA
ATOM      5  C   UNL     1      -1.049  -2.995   1.959  0.00  0.00    +0.189 A 
ATOM      6  N   UNL     1      -0.510  -2.257   1.000  0.00  0.00    -0.222 NA
ENDROOT
BRANCH   1  12
ATOM      7  C   UNL     1       0.622  -0.609  -1.045  0.00  0.00    +0.129 A 
ATOM      8  C   UNL     1       1.188   0.157  -2.053  0.00  0.00    +0.046 A 
ATOM      9  C   UNL     1       1.813  -0.458  -3.121  0.00  0.00    +0.004 A 
ATOM     10  C   UNL     1       1.879  -1.839  -3.192  0.00  0.00    +0.001 A 
ATOM     11  C   UNL     1       1.321  -2.613  -2.196  0.00  0.00    +0.013 A 
ATOM     12  C   UNL     1       0.692  -2.005  -1.111  0.00  0.00    +0.042 A 
BRANCH   7  14
ATOM     13  C   UNL     1      -0.025   1.422   0.005  0.00  0.00    +0.277 C 
ATOM     14  O   UNL     1       0.008  -0.006   0.005  0.00  0.00    -0.494 OA
ENDBRANCH   7  14
ENDBRANCH   1  12
BRANCH   3  15
ATOM     15  C   UNL     1      -0.353  -6.463   0.916  0.00  0.00    +0.434 C 
ATOM     16  F   UNL     1       0.805  -6.898   1.569  0.00  0.00    -0.164 F 
ATOM     17  F   UNL     1      -1.478  -6.976   1.572  0.00  0.00    -0.164 F 
ATOM     18  F   UNL     1      -0.340  -6.914  -0.408  0.00  0.00    -0.164 F 
ENDBRANCH   3  15
BRANCH   5  19
ATOM     19  S   UNL     1      -1.849  -2.196   3.310  0.00  0.00    -0.086 S 
BRANCH  19  20
ATOM     20  C   UNL     1      -2.415  -3.565   4.357  0.00  0.00    +0.078 C 
BRANCH  20  21
ATOM     21  C   UNL     1      -3.137  -3.005   5.584  0.00  0.00    +0.020 C 
BRANCH  21  22
ATOM     22  C   UNL     1      -3.614  -4.159   6.468  0.00  0.00    +0.097 C 
BRANCH  22  23
ATOM     23  C   UNL     1      -4.325  -3.607   7.676  0.00  0.00    +0.217 C 
ATOM     24  O   UNL     1      -4.439  -2.408   7.817  0.00  0.00    -0.275 OA
ATOM     25  N   UNL     1      -4.834  -4.446   8.600  0.00  0.00    -0.285 N 
ATOM     26  H   UNL     1      -4.814  -5.404   8.449  0.00  0.00    +0.155 HD
BRANCH  25  27
ATOM     27  C   UNL     1      -5.389  -3.937   9.772  0.00  0.00    +0.047 A 
ATOM     28  C   UNL     1      -4.985  -2.699  10.254  0.00  0.00    +0.024 A 
ATOM     29  C   UNL     1      -5.536  -2.196  11.416  0.00  0.00    +0.002 A 
ATOM     30  C   UNL     1      -6.494  -2.920  12.108  0.00  0.00    +0.001 A 
ATOM     31  C   UNL     1      -6.907  -4.150  11.645  0.00  0.00    +0.017 A 
ATOM     32  C   UNL     1      -6.362  -4.670  10.467  0.00  0.00    +0.080 A 
BRANCH  32  33
ATOM     33  C   UNL     1      -6.804  -5.982   9.962  0.00  0.00    +0.341 C 
ATOM     34  O   UNL     1      -6.262  -6.473   8.992  0.00  0.00    -0.245 OA
BRANCH  33  35
ATOM     35  O   UNL     1      -7.808  -6.637  10.577  0.00  0.00    -0.464 OA
ATOM     36  C   UNL     1      -8.184  -7.904  10.034  0.00  0.00    +0.280 C 
ENDBRANCH  33  35
ENDBRANCH  32  33
ENDBRANCH  25  27
ENDBRANCH  22  23
ENDBRANCH  21  22
ENDBRANCH  20  21
ENDBRANCH  19  20
ENDBRANCH   5  19
TORSDOF 11
