REMARK  Name = ZINC25260284
REMARK  12 active torsions:
REMARK  status: ('A' for Active; 'I' for Inactive)
REMARK    1  A    between atoms: C_1  and  C_2
REMARK    2  A    between atoms: C_5  and  C_9
REMARK    3  A    between atoms: C_6  and  C_8
REMARK    4  A    between atoms: C_10  and  C_11
REMARK    5  A    between atoms: N_13  and  C_14
REMARK    6  A    between atoms: C_16  and  S_22
REMARK    7  A    between atoms: C_19  and  O_20
REMARK    8  A    between atoms: O_20  and  C_21
REMARK    9  A    between atoms: S_22  and  N_25
REMARK   10  A    between atoms: N_25  and  C_26
REMARK   11  A    between atoms: C_31  and  O_32
REMARK   12  A    between atoms: O_32  and  C_33
REMARK                            x       y       z     vdW  Elec       q    Type
REMARK                         _______ _______ _______ _____ _____    ______ ____
ROOT
ATOM      1  C   UNL     1      -1.719  -1.092   0.444  0.00  0.00    +0.078 A 
ATOM      2  C   UNL     1      -1.638  -2.471   0.318  0.00  0.00    +0.055 A 
ATOM      3  C   UNL     1      -0.409  -3.078   0.140  0.00  0.00    +0.110 A 
ATOM      4  C   UNL     1       0.741  -2.313   0.082  0.00  0.00    +0.032 A 
ATOM      5  C   UNL     1       0.668  -0.938   0.201  0.00  0.00    +0.049 A 
ATOM      6  C   UNL     1      -0.559  -0.322   0.380  0.00  0.00    +0.141 A 
ENDROOT
BRANCH   1   9
ATOM      7  C   UNL     1      -4.063  -0.988   0.045  0.00  0.00    +0.241 C 
ATOM      8  O   UNL     1      -3.992  -2.033  -0.574  0.00  0.00    -0.270 OA
ATOM      9  N   UNL     1      -2.962  -0.475   0.630  0.00  0.00    -0.279 N 
ATOM     10  H   UNL     1      -3.040   0.427   1.254  0.00  0.00    +0.155 HD
BRANCH   7  12
ATOM     11  C   UNL     1      -6.444  -0.799  -0.432  0.00  0.00    +0.013 C 
ATOM     12  C   UNL     1      -5.343  -0.286   0.154  0.00  0.00    +0.068 C 
BRANCH  11  17
ATOM     13  C   UNL     1     -11.473   1.955  -0.005  0.00  0.00    +0.044 C 
ATOM     14  C   UNL     1     -10.154   1.234  -0.117  0.00  0.00    -0.050 A 
ATOM     15  C   UNL     1      -9.026   1.763   0.486  0.00  0.00    +0.004 A 
ATOM     16  C   UNL     1      -7.818   1.106   0.392  0.00  0.00    +0.008 A 
ATOM     17  C   UNL     1      -7.731  -0.093  -0.323  0.00  0.00    -0.022 A 
ATOM     18  C   UNL     1      -8.876  -0.622  -0.928  0.00  0.00    -0.043 A 
ATOM     19  C   UNL     1     -10.078   0.045  -0.822  0.00  0.00    +0.007 A 
ATOM     20  C   UNL     1      -8.795  -1.916  -1.696  0.00  0.00    +0.044 C 
ENDBRANCH  11  17
ENDBRANCH   7  12
ENDBRANCH   1   9
BRANCH   3  21
ATOM     21  S   UNL     1      -0.309  -4.830  -0.014  0.00  0.00    +0.073 S 
ATOM     22  O   UNL     1      -1.579  -5.272  -0.472  0.00  0.00    -0.150 OA
ATOM     23  O   UNL     1       0.894  -5.108  -0.718  0.00  0.00    -0.150 OA
BRANCH  21  24
ATOM     24  N   UNL     1      -0.116  -5.446   1.512  0.00  0.00    -0.213 N 
ATOM     25  H   UNL     1       0.779  -6.035   1.758  0.00  0.00    +0.174 HD
BRANCH  24  26
ATOM     26  C   UNL     1      -1.093  -5.215   2.488  0.00  0.00    +0.090 A 
ATOM     27  C   UNL     1      -2.433  -5.171   2.134  0.00  0.00    +0.028 A 
ATOM     28  C   UNL     1      -3.396  -4.948   3.100  0.00  0.00    +0.002 A 
ATOM     29  C   UNL     1      -3.026  -4.758   4.418  0.00  0.00    +0.004 A 
ATOM     30  C   UNL     1      -1.691  -4.795   4.778  0.00  0.00    +0.047 A 
ATOM     31  C   UNL     1      -0.720  -5.023   3.817  0.00  0.00    +0.142 A 
BRANCH  31  32
ATOM     32  O   UNL     1       0.593  -5.058   4.168  0.00  0.00    -0.493 OA
ATOM     33  C   UNL     1       0.900  -4.853   5.549  0.00  0.00    +0.277 C 
ENDBRANCH  31  32
ENDBRANCH  24  26
ENDBRANCH  21  24
ENDBRANCH   3  21
BRANCH   6  34
ATOM     34  O   UNL     1      -0.632   1.031   0.497  0.00  0.00    -0.493 OA
ATOM     35  C   UNL     1       0.597   1.756   0.428  0.00  0.00    +0.277 C 
ENDBRANCH   6  34
TORSDOF 8
