REMARK  Name = ZINC39470321
REMARK  5 active torsions:
REMARK  status: ('A' for Active; 'I' for Inactive)
REMARK    1  A    between atoms: C_4  and  C_7
REMARK    2  A    between atoms: C_7  and  C_8
REMARK    3  A    between atoms: C_12  and  N_15
REMARK    4  A    between atoms: C_16  and  C_18
REMARK    5  A    between atoms: C_18  and  C_19
REMARK                            x       y       z     vdW  Elec       q    Type
REMARK                         _______ _______ _______ _____ _____    ______ ____
ROOT
ATOM      1  N   UNL     1       7.266   0.788   2.635  0.00  0.00    -0.290 N 
ATOM      2  C   UNL     1       7.561   2.005   3.132  0.00  0.00    +0.219 C 
ATOM      3  O   UNL     1       6.857   2.498   3.988  0.00  0.00    -0.275 OA
ATOM      4  H   UNL     1       7.829   0.394   1.951  0.00  0.00    +0.151 HD
ENDROOT
BRANCH   1   8
ATOM      5  C   UNL     1       4.171  -0.963   1.399  0.00  0.00    +0.134 C 
ATOM      6  N   UNL     1       5.525  -1.602   1.434  0.00  0.00    -0.241 NA
ATOM      7  N   UNL     1       6.150  -1.375   2.731  0.00  0.00    -0.227 NA
ATOM      8  C   UNL     1       6.095   0.060   3.129  0.00  0.00    +0.216 C 
ATOM      9  S   UNL     1       4.558   0.615   2.274  0.00  0.00    -0.101 S 
ATOM     10  H   UNL     1       6.107  -1.255   0.686  0.00  0.00    +0.142 HD
ATOM     11  H   UNL     1       5.736  -1.962   3.440  0.00  0.00    +0.143 HD
BRANCH   5  12
ATOM     12  C   UNL     1       3.711  -0.707  -0.038  0.00  0.00    +0.066 C 
BRANCH  12  16
ATOM     13  C   UNL     1      -0.017   1.378   0.010  0.00  0.00    +0.000 A 
ATOM     14  C   UNL     1       1.171   2.086   0.002  0.00  0.00    +0.000 A 
ATOM     15  C   UNL     1       2.377   1.411  -0.013  0.00  0.00    +0.004 A 
ATOM     16  C   UNL     1       2.396   0.029  -0.020  0.00  0.00    -0.045 A 
ATOM     17  C   UNL     1       1.208  -0.679  -0.012  0.00  0.00    +0.004 A 
ATOM     18  C   UNL     1       0.002  -0.004   0.002  0.00  0.00    +0.000 A 
ENDBRANCH  12  16
ENDBRANCH   5  12
ENDBRANCH   1   8
BRANCH   2  19
ATOM     19  C   UNL     1       8.766   2.755   2.624  0.00  0.00    +0.133 C 
BRANCH  19  20
ATOM     20  C   UNL     1       8.871   4.079   3.336  0.00  0.00    -0.014 A 
ATOM     21  C   UNL     1       9.508   4.323   4.632  0.00  0.00    +0.003 A 
ATOM     22  C   UNL     1      10.166   3.511   5.558  0.00  0.00    +0.010 A 
ATOM     23  C   UNL     1      10.663   4.059   6.707  0.00  0.00    +0.001 A 
ATOM     24  C   UNL     1      10.519   5.416   6.962  0.00  0.00    +0.002 A 
ATOM     25  C   UNL     1       9.873   6.235   6.061  0.00  0.00    +0.026 A 
ATOM     26  C   UNL     1       9.360   5.699   4.885  0.00  0.00    +0.047 A 
ATOM     27  N   UNL     1       8.681   6.238   3.815  0.00  0.00    -0.360 N 
ATOM     28  C   UNL     1       8.404   5.259   2.900  0.00  0.00    +0.087 A 
ATOM     29  H   UNL     1       8.440   7.173   3.721  0.00  0.00    +0.165 HD
ENDBRANCH  19  20
ENDBRANCH   2  19
TORSDOF 5
