REMARK  Name = ZINC18193448
REMARK  8 active torsions:
REMARK  status: ('A' for Active; 'I' for Inactive)
REMARK    1  A    between atoms: C_1  and  N_2
REMARK    2  A    between atoms: N_4  and  C_5
REMARK    3  A    between atoms: N_7  and  C_8
REMARK    4  A    between atoms: C_8  and  C_9
REMARK    5  A    between atoms: C_9  and  S_10
REMARK    6  A    between atoms: S_10  and  C_11
REMARK    7  A    between atoms: C_11  and  C_12
REMARK    8  A    between atoms: C_15  and  N_17
REMARK                            x       y       z     vdW  Elec       q    Type
REMARK                         _______ _______ _______ _____ _____    ______ ____
ROOT
ATOM      1  C   UNL     1       1.194   4.202   4.345  0.00  0.00    +0.125 C 
ENDROOT
BRANCH   1   2
ATOM      2  C   UNL     1       1.246   5.685   4.608  0.00  0.00    +0.061 A 
ATOM      3  C   UNL     1       2.209   6.443   4.029  0.00  0.00    +0.073 A 
ATOM      4  S   UNL     1       1.795   8.058   4.674  0.00  0.00    -0.056 S 
ATOM      5  C   UNL     1       0.383   7.551   5.647  0.00  0.00    +0.196 A 
ATOM      6  N   UNL     1       0.353   6.246   5.396  0.00  0.00    -0.225 NA
BRANCH   5   7
ATOM      7  N   UNL     1      -0.441   8.299   6.428  0.00  0.00    -0.189 NA
ATOM      8  C   UNL     1      -1.363   7.713   7.162  0.00  0.00    +0.195 C 
ATOM      9  N   UNL     1      -1.400   6.346   7.254  0.00  0.00    -0.370 N 
ATOM     10  N   UNL     1      -2.287   8.470   7.835  0.00  0.00    -0.370 N 
ATOM     11  H   UNL     1      -0.619   5.822   7.013  0.00  0.00    +0.159 HD
ATOM     12  H   UNL     1      -2.261   9.438   7.770  0.00  0.00    +0.159 HD
ATOM     13  H   UNL     1      -2.966   8.038   8.376  0.00  0.00    +0.159 HD
ATOM     14  H   UNL     1      -2.206   5.902   7.559  0.00  0.00    +0.159 HD
ENDBRANCH   5   7
ENDBRANCH   1   2
BRANCH   1  15
ATOM     15  S   UNL     1       0.155   3.881   2.893  0.00  0.00    -0.153 S 
BRANCH  15  16
ATOM     16  C   UNL     1       0.196   2.077   2.713  0.00  0.00    +0.090 C 
BRANCH  16  17
ATOM     17  C   UNL     1      -0.652   1.665   1.508  0.00  0.00    +0.126 C 
BRANCH  17  22
ATOM     18  C   UNL     1      -3.016  -0.299  -1.417  0.00  0.00    +0.142 C 
ATOM     19  N   UNL     1      -2.112   0.352  -0.466  0.00  0.00    -0.358 N 
ATOM     20  C   UNL     1      -1.389  -0.402   0.414  0.00  0.00    +0.208 C 
ATOM     21  N   UNL     1      -1.433  -1.721   0.346  0.00  0.00    -0.138 NA
ATOM     22  N   UNL     1      -0.619   0.207   1.364  0.00  0.00    -0.354 N 
ATOM     23  H   UNL     1      -2.028   1.318  -0.460  0.00  0.00    +0.162 HD
ATOM     24  H   UNL     1      -0.051  -0.325   1.943  0.00  0.00    +0.163 HD
BRANCH  21  25
ATOM     25  C   UNL     1      -0.715  -2.469   1.218  0.00  0.00    +0.208 C 
ATOM     26  N   UNL     1      -0.113  -3.096   1.950  0.00  0.00    -0.169 NA
ENDBRANCH  21  25
ENDBRANCH  17  22
ENDBRANCH  16  17
ENDBRANCH  15  16
ENDBRANCH   1  15
TORSDOF 7
