REMARK  Name = ZINC61719894
REMARK  5 active torsions:
REMARK  status: ('A' for Active; 'I' for Inactive)
REMARK    1  A    between atoms: C_1  and  C_2
REMARK    2  A    between atoms: C_2  and  C_4
REMARK    3  A    between atoms: C_2  and  N_17
REMARK    4  A    between atoms: N_6  and  C_7
REMARK    5  A    between atoms: N_23  and  C_26
REMARK                            x       y       z     vdW  Elec       q    Type
REMARK                         _______ _______ _______ _____ _____    ______ ____
ROOT
ATOM      1  N   UNL     1      -1.366  -0.804   0.169  0.00  0.00    -0.288 N 
ATOM      2  C   UNL     1      -2.015  -0.911  -1.008  0.00  0.00    +0.303 C 
ATOM      3  O   UNL     1      -1.425  -0.697  -2.049  0.00  0.00    -0.253 OA
ATOM      4  N   UNL     1      -3.318  -1.255  -1.030  0.00  0.00    -0.283 N 
ATOM      5  C   UNL     1      -4.017  -1.619   0.211  0.00  0.00    +0.128 C 
ATOM      6  C   UNL     1      -5.252  -0.721   0.359  0.00  0.00    +0.124 C 
ATOM      7  N   UNL     1      -6.000  -0.739  -0.906  0.00  0.00    -0.327 N 
ATOM      8  C   UNL     1      -5.301  -0.375  -2.147  0.00  0.00    +0.124 C 
ATOM      9  C   UNL     1      -4.067  -1.267  -2.294  0.00  0.00    +0.128 C 
ATOM     10  H   UNL     1      -1.815  -1.047   0.994  0.00  0.00    +0.151 HD
ENDROOT
BRANCH   7  11
ATOM     11  C   UNL     1      -7.351  -1.095  -0.929  0.00  0.00    +0.030 A 
ATOM     12  C   UNL     1      -8.031  -1.319   0.261  0.00  0.00    +0.024 A 
ATOM     13  C   UNL     1      -9.367  -1.670   0.235  0.00  0.00    +0.022 A 
ATOM     14  C   UNL     1     -10.026  -1.801  -0.975  0.00  0.00    +0.041 A 
ATOM     15  C   UNL     1      -9.350  -1.579  -2.162  0.00  0.00    +0.022 A 
ATOM     16  C   UNL     1      -8.016  -1.222  -2.142  0.00  0.00    +0.024 A 
ATOM     17 CL   UNL     1     -11.704  -2.245  -1.003  0.00  0.00    -0.084 Cl
ENDBRANCH   7  11
BRANCH   1  19
ATOM     18  C   UNL     1       0.023   1.207   0.227  0.00  0.00    +0.038 C 
ATOM     19  C   UNL     1       0.017  -0.323   0.201  0.00  0.00    +0.158 C 
BRANCH  19  20
ATOM     20  C   UNL     1       0.703  -0.848   1.436  0.00  0.00    +0.237 C 
ATOM     21  O   UNL     1       0.096  -1.556   2.212  0.00  0.00    -0.273 OA
ATOM     22  N   UNL     1       1.991  -0.532   1.677  0.00  0.00    -0.284 N 
ATOM     23  H   UNL     1       2.495  -0.020   1.026  0.00  0.00    +0.155 HD
BRANCH  22  24
ATOM     24  C   UNL     1       2.601  -0.943   2.870  0.00  0.00    +0.034 A 
ATOM     25  C   UNL     1       2.268  -2.174   3.432  0.00  0.00    +0.025 A 
ATOM     26  C   UNL     1       2.859  -2.593   4.603  0.00  0.00    +0.028 A 
ATOM     27  C   UNL     1       3.797  -1.784   5.237  0.00  0.00    +0.047 A 
ATOM     28  C   UNL     1       4.136  -0.541   4.673  0.00  0.00    +0.001 A 
ATOM     29  C   UNL     1       3.535  -0.128   3.482  0.00  0.00    +0.033 A 
ATOM     30  C   UNL     1       5.132   0.053   5.568  0.00  0.00    +0.027 A 
ATOM     31  C   UNL     1       5.329  -0.819   6.569  0.00  0.00    +0.083 A 
ATOM     32  N   UNL     1       4.541  -1.922   6.390  0.00  0.00    -0.361 N 
ATOM     33  H   UNL     1       4.510  -2.688   6.984  0.00  0.00    +0.165 HD
ENDBRANCH  22  24
ENDBRANCH  19  20
ENDBRANCH   1  19
TORSDOF 4
