REMARK  Name = ZINC61633155
REMARK  4 active torsions:
REMARK  status: ('A' for Active; 'I' for Inactive)
REMARK    1  A    between atoms: C_3  and  C_9
REMARK    2  A    between atoms: C_6  and  C_7
REMARK    3  A    between atoms: N_11  and  N_12
REMARK    4  A    between atoms: C_13  and  C_15
REMARK                            x       y       z     vdW  Elec       q    Type
REMARK                         _______ _______ _______ _____ _____    ______ ____
ROOT
ATOM      1  N   UNL     1       6.035   2.232  -0.044  0.00  0.00    -0.230 N 
ATOM      2  C   UNL     1       7.212   1.574  -0.058  0.00  0.00    +0.260 C 
ATOM      3  O   UNL     1       7.228   0.359  -0.065  0.00  0.00    -0.269 OA
ATOM      4  H   UNL     1       6.022   3.202  -0.038  0.00  0.00    +0.173 HD
ENDROOT
BRANCH   2   5
ATOM      5  C   UNL     1       8.484   2.332  -0.066  0.00  0.00    +0.040 A 
ATOM      6  C   UNL     1       8.458   3.736  -0.053  0.00  0.00    +0.014 A 
ATOM      7  C   UNL     1       9.614   4.455  -0.060  0.00  0.00    +0.016 A 
ATOM      8  C   UNL     1      10.849   3.792  -0.081  0.00  0.00    +0.065 A 
ATOM      9  C   UNL     1      10.891   2.373  -0.095  0.00  0.00    +0.080 A 
ATOM     10  C   UNL     1       9.690   1.650  -0.082  0.00  0.00    +0.041 A 
ATOM     11  N   UNL     1      12.080   1.754  -0.115  0.00  0.00    -0.223 NA
ATOM     12  C   UNL     1      13.206   2.452  -0.121  0.00  0.00    +0.180 A 
ATOM     13  N   UNL     1      13.220   3.795  -0.108  0.00  0.00    -0.301 N 
ATOM     14  H   UNL     1      14.069   4.264  -0.114  0.00  0.00    +0.171 HD
ATOM     15  C   UNL     1      12.069   4.501  -0.088  0.00  0.00    +0.260 A 
ATOM     16  O   UNL     1      12.085   5.845  -0.075  0.00  0.00    -0.267 OA
ATOM     17  S   UNL     1      14.697   1.611  -0.145  0.00  0.00    -0.011 S 
ENDBRANCH   2   5
BRANCH   1  20
ATOM     18  C   UNL     1       3.656   2.173  -0.021  0.00  0.00    +0.260 C 
ATOM     19  O   UNL     1       3.639   3.388  -0.015  0.00  0.00    -0.269 OA
ATOM     20  N   UNL     1       4.832   1.515  -0.036  0.00  0.00    -0.230 N 
ATOM     21  H   UNL     1       4.845   0.545  -0.041  0.00  0.00    +0.173 HD
BRANCH  18  24
ATOM     22  C   UNL     1      -0.017   1.393   0.010  0.00  0.00    +0.019 A 
ATOM     23  C   UNL     1       1.167   2.097   0.002  0.00  0.00    +0.014 A 
ATOM     24  C   UNL     1       2.385   1.416  -0.013  0.00  0.00    +0.038 A 
ATOM     25  C   UNL     1       2.404   0.019  -0.021  0.00  0.00    +0.014 A 
ATOM     26  C   UNL     1       1.221  -0.686  -0.014  0.00  0.00    +0.019 A 
ATOM     27  C   UNL     1       0.002  -0.004   0.002  0.00  0.00    +0.052 A 
BRANCH  27  28
ATOM     28  C   UNL     1      -1.228  -0.737   0.010  0.00  0.00    +0.099 C 
ATOM     29  N   UNL     1      -2.204  -1.318   0.017  0.00  0.00    -0.191 NA
ENDBRANCH  27  28
ENDBRANCH  18  24
ENDBRANCH   1  20
TORSDOF 4
