REMARK  Name = ZINC16041248
REMARK  7 active torsions:
REMARK  status: ('A' for Active; 'I' for Inactive)
REMARK    1  A    between atoms: C_3  and  N_29
REMARK    2  A    between atoms: C_6  and  C_7
REMARK    3  A    between atoms: N_9  and  C_10
REMARK    4  A    between atoms: C_10  and  C_12
REMARK    5  A    between atoms: C_10  and  O_16
REMARK    6  A    between atoms: O_16  and  C_17
REMARK    7  A    between atoms: C_17  and  C_18
REMARK                            x       y       z     vdW  Elec       q    Type
REMARK                         _______ _______ _______ _____ _____    ______ ____
ROOT
ATOM      1  C   UNL     1      -6.310   6.073   0.068  0.00  0.00    +0.257 C 
ENDROOT
BRANCH   1   4
ATOM      2  C   UNL     1      -5.013   4.010   0.050  0.00  0.00    +0.246 C 
ATOM      3  O   UNL     1      -6.058   3.388   0.051  0.00  0.00    -0.270 OA
ATOM      4  N   UNL     1      -5.032   5.358   0.057  0.00  0.00    -0.283 N 
ATOM      5  H   UNL     1      -4.198   5.854   0.056  0.00  0.00    +0.152 HD
BRANCH   2  11
ATOM      6  C   UNL     1      -3.700   1.893   0.030  0.00  0.00    +0.015 A 
ATOM      7  C   UNL     1      -2.493   1.225   0.021  0.00  0.00    +0.033 A 
ATOM      8  C   UNL     1      -1.306   1.936   0.019  0.00  0.00    +0.126 A 
ATOM      9  C   UNL     1      -1.321   3.320   0.032  0.00  0.00    +0.033 A 
ATOM     10  C   UNL     1      -2.522   3.999   0.037  0.00  0.00    +0.015 A 
ATOM     11  C   UNL     1      -3.723   3.288   0.038  0.00  0.00    +0.037 A 
BRANCH   8  12
ATOM     12  N   UNL     1      -0.014   1.214   0.009  0.00  0.00    +0.056 N 
ATOM     13  O   UNL     1       0.002  -0.004   0.002  0.00  0.00    -0.126 OA
ATOM     14  O   UNL     1       1.032   1.837   0.002  0.00  0.00    -0.126 OA
ENDBRANCH   8  12
ENDBRANCH   2  11
ENDBRANCH   1   4
BRANCH   1  15
ATOM     15  C   UNL     1      -6.174   7.348   0.902  0.00  0.00    +0.233 C 
ATOM     16 CL   UNL     1      -7.747   8.228   0.916  0.00  0.00    -0.079 Cl
ATOM     17 CL   UNL     1      -5.713   6.916   2.591  0.00  0.00    -0.079 Cl
ATOM     18 CL   UNL     1      -4.901   8.403   0.183  0.00  0.00    -0.079 Cl
ENDBRANCH   1  15
BRANCH   1  19
ATOM     19  O   UNL     1      -6.676   6.415  -1.270  0.00  0.00    -0.354 OA
BRANCH  19  20
ATOM     20  C   UNL     1      -7.156   5.313  -2.042  0.00  0.00    +0.164 C 
BRANCH  20  21
ATOM     21  C   UNL     1      -7.515   5.794  -3.449  0.00  0.00    +0.001 C 
ATOM     22  C   UNL     1      -6.249   6.271  -4.162  0.00  0.00    +0.002 C 
ATOM     23  C   UNL     1      -5.284   5.088  -4.292  0.00  0.00    -0.018 C 
ATOM     24  C   UNL     1      -5.973   3.973  -5.076  0.00  0.00    -0.078 C 
ATOM     25  C   UNL     1      -8.150   4.641  -4.234  0.00  0.00    -0.063 C 
ATOM     26  C   UNL     1      -9.387   4.166  -3.462  0.00  0.00    -0.015 C 
ATOM     27  C   UNL     1     -10.030   2.984  -4.189  0.00  0.00    -0.003 C 
ATOM     28  C   UNL     1      -8.992   1.864  -4.320  0.00  0.00    -0.019 C 
ATOM     29  C   UNL     1      -7.785   2.398  -5.090  0.00  0.00    -0.078 C 
ATOM     30  N   UNL     1      -7.178   3.526  -4.358  0.00  0.00    +0.382 N 
ATOM     31  H   UNL     1      -6.912   3.212  -3.417  0.00  0.00    -0.081 HD
ENDBRANCH  20  21
ENDBRANCH  19  20
ENDBRANCH   1  19
TORSDOF 7
