REMARK  Name = ZINC38673161
REMARK  10 active torsions:
REMARK  status: ('A' for Active; 'I' for Inactive)
REMARK    1  A    between atoms: C_1  and  N_2
REMARK    2  A    between atoms: N_5  and  C_8
REMARK    3  A    between atoms: C_8  and  C_10
REMARK    4  A    between atoms: C_8  and  C_26
REMARK    5  A    between atoms: C_10  and  N_11
REMARK    6  A    between atoms: N_11  and  S_12
REMARK    7  A    between atoms: S_12  and  C_15
REMARK    8  A    between atoms: C_18  and  O_21
REMARK    9  A    between atoms: O_21  and  C_22
REMARK   10  A    between atoms: N_35  and  C_36
REMARK                            x       y       z     vdW  Elec       q    Type
REMARK                         _______ _______ _______ _____ _____    ______ ____
ROOT
ATOM      1  C   UNL     1       1.364  -3.756   0.012  0.00  0.00    +0.102 C 
ENDROOT
BRANCH   1   2
ATOM      2  C   UNL     1       0.011  -4.389   0.212  0.00  0.00    -0.029 A 
ATOM      3  C   UNL     1      -0.492  -4.553   1.490  0.00  0.00    +0.007 A 
ATOM      4  C   UNL     1      -1.730  -5.134   1.673  0.00  0.00    +0.024 A 
ATOM      5  C   UNL     1      -2.472  -5.553   0.574  0.00  0.00    +0.033 A 
ATOM      6  C   UNL     1      -1.969  -5.385  -0.707  0.00  0.00    -0.026 A 
ATOM      7  C   UNL     1      -0.727  -4.799  -0.882  0.00  0.00    +0.010 A 
ATOM      8  C   UNL     1      -2.749  -5.817  -1.921  0.00  0.00    +0.038 C 
ATOM      9  C   UNL     1      -3.806  -6.853  -1.538  0.00  0.00    +0.024 C 
ATOM     10  C   UNL     1      -4.629  -6.310  -0.363  0.00  0.00    +0.105 C 
ATOM     11  N   UNL     1      -3.724  -6.143   0.782  0.00  0.00    -0.333 N 
ATOM     12  C   UNL     1      -4.123  -6.590   2.118  0.00  0.00    +0.129 C 
ENDBRANCH   1   2
BRANCH   1  17
ATOM     13  C   UNL     1      -0.109   1.515   1.351  0.00  0.00    -0.096 C 
ATOM     14  N   UNL     1      -0.081   0.074   1.065  0.00  0.00    +0.379 N 
ATOM     15  C   UNL     1       0.359  -0.141  -0.320  0.00  0.00    -0.064 C 
ATOM     16  C   UNL     1       0.371  -1.641  -0.624  0.00  0.00    +0.066 C 
ATOM     17  N   UNL     1       1.281  -2.320   0.309  0.00  0.00    -0.298 NA
ATOM     18  C   UNL     1       0.868  -2.093   1.701  0.00  0.00    +0.066 C 
ATOM     19  C   UNL     1       0.852  -0.589   1.986  0.00  0.00    -0.064 C 
ATOM     20  H   UNL     1      -1.005  -0.311   1.188  0.00  0.00    -0.082 HD
ENDBRANCH   1  17
BRANCH   1  21
ATOM     21  C   UNL     1       2.378  -4.414   0.950  0.00  0.00    +0.129 C 
BRANCH  21  22
ATOM     22  N   UNL     1       3.664  -3.720   0.842  0.00  0.00    -0.188 NA
ATOM     23  H   UNL     1       3.831  -3.120   0.098  0.00  0.00    +0.148 HD
BRANCH  22  24
ATOM     24  S   UNL     1       4.833  -3.960   1.990  0.00  0.00    +0.058 S 
ATOM     25  O   UNL     1       5.955  -3.182   1.597  0.00  0.00    -0.153 OA
ATOM     26  O   UNL     1       4.201  -3.802   3.253  0.00  0.00    -0.153 OA
BRANCH  24  27
ATOM     27  C   UNL     1       5.329  -5.648   1.884  0.00  0.00    +0.105 A 
ATOM     28  C   UNL     1       4.676  -6.608   2.635  0.00  0.00    +0.032 A 
ATOM     29  C   UNL     1       5.063  -7.931   2.553  0.00  0.00    +0.048 A 
ATOM     30  C   UNL     1       6.108  -8.297   1.717  0.00  0.00    +0.130 A 
ATOM     31  C   UNL     1       6.761  -7.332   0.964  0.00  0.00    +0.048 A 
ATOM     32  C   UNL     1       6.367  -6.011   1.045  0.00  0.00    +0.032 A 
BRANCH  30  33
ATOM     33  O   UNL     1       6.491  -9.598   1.636  0.00  0.00    -0.406 OA
BRANCH  33  34
ATOM     34  C   UNL     1       7.574  -9.902   0.754  0.00  0.00    +0.575 C 
ATOM     35  F   UNL     1       8.714  -9.199   1.157  0.00  0.00    -0.133 F 
ATOM     36  F   UNL     1       7.835 -11.276   0.793  0.00  0.00    -0.133 F 
ATOM     37  F   UNL     1       7.232  -9.528  -0.550  0.00  0.00    -0.133 F 
ENDBRANCH  33  34
ENDBRANCH  30  33
ENDBRANCH  24  27
ENDBRANCH  22  24
ENDBRANCH  21  22
ENDBRANCH   1  21
TORSDOF 8
