REMARK  Name = ZINC54643266
REMARK  10 active torsions:
REMARK  status: ('A' for Active; 'I' for Inactive)
REMARK    1  A    between atoms: C_1  and  C_2
REMARK    2  A    between atoms: C_2  and  C_3
REMARK    3  A    between atoms: C_3  and  O_4
REMARK    4  A    between atoms: O_4  and  C_5
REMARK    5  A    between atoms: C_5  and  C_7
REMARK    6  A    between atoms: C_8  and  C_32
REMARK    7  A    between atoms: C_12  and  S_23
REMARK    8  A    between atoms: C_15  and  C_17
REMARK    9  A    between atoms: S_23  and  C_24
REMARK   10  A    between atoms: C_24  and  C_25
REMARK                            x       y       z     vdW  Elec       q    Type
REMARK                         _______ _______ _______ _____ _____    ______ ____
ROOT
ATOM      1  C   UNL     1      -2.693  -4.015  -0.201  0.00  0.00    +0.085 C 
ATOM      2  C   UNL     1      -3.862  -4.597   0.112  0.00  0.00    +0.020 C 
ATOM      3  N   UNL     1      -3.973  -5.950   0.312  0.00  0.00    -0.287 N 
ATOM      4  C   UNL     1      -2.901  -6.744  -0.071  0.00  0.00    +0.220 A 
ATOM      5  N   UNL     1      -2.820  -8.040  -0.201  0.00  0.00    -0.187 NA
ATOM      6  C   UNL     1      -1.584  -8.374  -0.601  0.00  0.00    +0.211 A 
ATOM      7  N   UNL     1      -0.865  -7.279  -0.728  0.00  0.00    -0.141 NA
ATOM      8  N   UNL     1      -1.695  -6.213  -0.387  0.00  0.00    -0.217 N 
ATOM      9  C   UNL     1      -1.407  -4.782  -0.352  0.00  0.00    +0.215 C 
ATOM     10  C   UNL     1      -5.092  -3.737   0.247  0.00  0.00    +0.061 C 
ATOM     11  H   UNL     1      -4.771  -6.337   0.707  0.00  0.00    +0.155 HD
ENDROOT
BRANCH   9  12
ATOM     12  C   UNL     1      -0.504  -4.485   0.818  0.00  0.00    +0.136 A 
ATOM     13  C   UNL     1       0.720  -3.933   0.745  0.00  0.00    +0.048 A 
ATOM     14  C   UNL     1       1.205  -3.836   2.070  0.00  0.00    +0.057 A 
ATOM     15  C   UNL     1       0.246  -4.334   2.873  0.00  0.00    +0.170 A 
ATOM     16  O   UNL     1      -0.788  -4.721   2.109  0.00  0.00    -0.451 OA
ATOM     17 BR   UNL     1       0.339  -4.463   4.758  0.00  0.00    -0.008 Br
ENDBRANCH   9  12
BRANCH   1  18
ATOM     18  C   UNL     1      -2.671  -2.617  -0.402  0.00  0.00    +0.339 C 
ATOM     19  O   UNL     1      -2.697  -2.164  -1.532  0.00  0.00    -0.245 OA
BRANCH  18  20
ATOM     20  O   UNL     1      -2.621  -1.783   0.658  0.00  0.00    -0.461 OA
BRANCH  20  21
ATOM     21  C   UNL     1      -2.601  -0.381   0.380  0.00  0.00    +0.232 C 
BRANCH  21  23
ATOM     22  C   UNL     1      -2.522   1.899   1.398  0.00  0.00    +0.007 C 
ATOM     23  C   UNL     1      -2.543   0.399   1.695  0.00  0.00    +0.038 C 
ENDBRANCH  21  23
ENDBRANCH  20  21
ENDBRANCH  18  20
ENDBRANCH   1  18
BRANCH   6  24
ATOM     24  S   UNL     1      -1.015 -10.013  -0.907  0.00  0.00    -0.080 S 
BRANCH  24  25
ATOM     25  C   UNL     1      -2.461 -11.052  -0.556  0.00  0.00    +0.115 C 
BRANCH  25  26
ATOM     26  C   UNL     1      -2.106 -12.499  -0.782  0.00  0.00    -0.002 A 
ATOM     27  C   UNL     1      -2.282 -13.068  -2.029  0.00  0.00    +0.007 A 
ATOM     28  C   UNL     1      -1.957 -14.395  -2.236  0.00  0.00    +0.000 A 
ATOM     29  C   UNL     1      -1.455 -15.155  -1.197  0.00  0.00    +0.003 A 
ATOM     30  C   UNL     1      -1.277 -14.589   0.051  0.00  0.00    +0.038 A 
ATOM     31  C   UNL     1      -1.597 -13.258   0.259  0.00  0.00    +0.127 A 
ATOM     32  F   UNL     1      -1.420 -12.701   1.477  0.00  0.00    -0.205 F 
ENDBRANCH  25  26
ENDBRANCH  24  25
ENDBRANCH   6  24
TORSDOF 8
