REMARK  Name = ZINC66772875
REMARK  8 active torsions:
REMARK  status: ('A' for Active; 'I' for Inactive)
REMARK    1  A    between atoms: C_1  and  C_2
REMARK    2  A    between atoms: C_2  and  C_3
REMARK    3  A    between atoms: C_2  and  C_4
REMARK    4  A    between atoms: C_2  and  N_11
REMARK    5  A    between atoms: C_12  and  C_14
REMARK    6  A    between atoms: C_14  and  C_15
REMARK    7  A    between atoms: C_15  and  C_17
REMARK    8  A    between atoms: C_15  and  N_22
REMARK                            x       y       z     vdW  Elec       q    Type
REMARK                         _______ _______ _______ _____ _____    ______ ____
ROOT
ATOM      1  N   UNL     1       0.556  -0.272  -1.328  0.00  0.00    -0.306 N 
ATOM      2  C   UNL     1       1.849   0.006  -1.588  0.00  0.00    +0.216 C 
ATOM      3  O   UNL     1       2.554   0.478  -0.721  0.00  0.00    -0.276 OA
ATOM      4  H   UNL     1      -0.008  -0.650  -2.021  0.00  0.00    +0.150 HD
ENDROOT
BRANCH   1   6
ATOM      5  C   UNL     1       0.156   1.483   0.328  0.00  0.00    +0.036 C 
ATOM      6  C   UNL     1       0.002  -0.004   0.002  0.00  0.00    +0.054 C 
ATOM      7  C   UNL     1       0.753  -0.835   1.044  0.00  0.00    +0.036 C 
BRANCH   6   8
ATOM      8  C   UNL     1      -1.459  -0.374   0.022  0.00  0.00    -0.025 A 
ATOM      9  C   UNL     1      -2.073  -0.699   1.217  0.00  0.00    +0.007 A 
ATOM     10  C   UNL     1      -3.412  -1.039   1.236  0.00  0.00    +0.020 A 
ATOM     11  C   UNL     1      -4.139  -1.054   0.059  0.00  0.00    +0.041 A 
ATOM     12  C   UNL     1      -3.523  -0.729  -1.137  0.00  0.00    +0.020 A 
ATOM     13  C   UNL     1      -2.185  -0.384  -1.154  0.00  0.00    +0.007 A 
ATOM     14 CL   UNL     1      -5.821  -1.481   0.082  0.00  0.00    -0.084 Cl
ENDBRANCH   6   8
ENDBRANCH   1   6
BRANCH   2  15
ATOM     15  C   UNL     1       2.418  -0.270  -2.956  0.00  0.00    +0.123 C 
BRANCH  15  16
ATOM     16  C   UNL     1       3.894   0.132  -2.984  0.00  0.00    +0.120 C 
BRANCH  16  17
ATOM     17  N   UNL     1       4.008   1.581  -2.802  0.00  0.00    -0.292 N 
ATOM     18  C   UNL     1       5.141   2.109  -2.297  0.00  0.00    +0.298 C 
ATOM     19  O   UNL     1       6.068   1.383  -1.993  0.00  0.00    -0.253 OA
ATOM     20  N   UNL     1       5.247   3.442  -2.129  0.00  0.00    -0.313 N 
ATOM     21  H   UNL     1       3.269   2.161  -3.044  0.00  0.00    +0.151 HD
ATOM     22  H   UNL     1       4.507   4.022  -2.371  0.00  0.00    +0.146 HD
ATOM     23  H   UNL     1       6.062   3.822  -1.766  0.00  0.00    +0.146 HD
ENDBRANCH  16  17
BRANCH  16  24
ATOM     24  C   UNL     1       4.495  -0.256  -4.311  0.00  0.00    +0.010 A 
ATOM     25  C   UNL     1       5.252  -1.337  -4.621  0.00  0.00    +0.013 A 
ATOM     26  C   UNL     1       5.699  -1.491  -5.920  0.00  0.00    +0.008 A 
ATOM     27  C   UNL     1       5.367  -0.557  -6.845  0.00  0.00    +0.045 A 
ATOM     28  S   UNL     1       4.388   0.584  -5.882  0.00  0.00    -0.100 S 
ENDBRANCH  16  24
ENDBRANCH  15  16
ENDBRANCH   2  15
TORSDOF 6
