REMARK  Name = ZINC58891232
REMARK  10 active torsions:
REMARK  status: ('A' for Active; 'I' for Inactive)
REMARK    1  A    between atoms: C_4  and  C_7
REMARK    2  A    between atoms: C_7  and  C_9
REMARK    3  A    between atoms: C_7  and  O_35
REMARK    4  A    between atoms: C_9  and  C_10
REMARK    5  A    between atoms: C_10  and  C_11
REMARK    6  A    between atoms: N_13  and  N_14
REMARK    7  A    between atoms: C_15  and  C_16
REMARK    8  A    between atoms: N_18  and  C_25
REMARK    9  A    between atoms: C_25  and  C_26
REMARK   10  A    between atoms: C_30  and  N_32
REMARK                            x       y       z     vdW  Elec       q    Type
REMARK                         _______ _______ _______ _____ _____    ______ ____
ROOT
ATOM      1  C   UNL     1       9.409  -3.997   3.485  0.00  0.00    +0.020 A 
ATOM      2  C   UNL     1      10.546  -4.744   3.524  0.00  0.00    +0.096 A 
ATOM      3  N   UNL     1      11.179  -4.680   2.319  0.00  0.00    -0.342 N 
ATOM      4  C   UNL     1      10.469  -3.881   1.448  0.00  0.00    +0.050 A 
ATOM      5  C   UNL     1       9.329  -3.423   2.130  0.00  0.00    +0.009 A 
ATOM      6  C   UNL     1       8.417  -2.592   1.484  0.00  0.00    +0.010 A 
ATOM      7  C   UNL     1       8.635  -2.226   0.174  0.00  0.00    +0.001 A 
ATOM      8  C   UNL     1       9.758  -2.681  -0.502  0.00  0.00    +0.002 A 
ATOM      9  C   UNL     1      10.674  -3.496   0.127  0.00  0.00    +0.026 A 
ENDROOT
BRANCH   1  11
ATOM     10  N   UNL     1       8.809  -4.009   5.810  0.00  0.00    -0.188 NA
ATOM     11  C   UNL     1       8.445  -3.805   4.580  0.00  0.00    +0.140 C 
BRANCH  10  14
ATOM     12  C   UNL     1      10.528  -4.535   7.371  0.00  0.00    +0.232 C 
ATOM     13  O   UNL     1       9.686  -4.655   8.237  0.00  0.00    -0.274 OA
ATOM     14  N   UNL     1      10.162  -4.209   6.116  0.00  0.00    -0.207 N 
ATOM     15  H   UNL     1      10.835  -4.113   5.424  0.00  0.00    +0.177 HD
BRANCH  12  16
ATOM     16  C   UNL     1      11.983  -4.750   7.700  0.00  0.00    +0.100 C 
BRANCH  16  17
ATOM     17  C   UNL     1      12.124  -5.107   9.181  0.00  0.00    +0.045 C 
BRANCH  17  18
ATOM     18  C   UNL     1      13.601  -5.326   9.515  0.00  0.00    +0.145 C 
BRANCH  18  22
ATOM     19  C   UNL     1      13.967  -6.659  13.556  0.00  0.00    +0.000 A 
ATOM     20  C   UNL     1      14.030  -7.571  12.520  0.00  0.00    +0.000 A 
ATOM     21  C   UNL     1      13.911  -7.139  11.212  0.00  0.00    +0.006 A 
ATOM     22  C   UNL     1      13.729  -5.796  10.941  0.00  0.00    -0.019 A 
ATOM     23  C   UNL     1      13.666  -4.884  11.978  0.00  0.00    +0.006 A 
ATOM     24  C   UNL     1      13.786  -5.316  13.286  0.00  0.00    +0.000 A 
ENDBRANCH  18  22
BRANCH  18  25
ATOM     25  O   UNL     1      14.313  -4.097   9.353  0.00  0.00    -0.387 OA
ATOM     26  H   UNL     1      13.995  -3.381   9.919  0.00  0.00    +0.210 HD
ENDBRANCH  18  25
ENDBRANCH  17  18
ENDBRANCH  16  17
ENDBRANCH  12  16
ENDBRANCH  10  14
ENDBRANCH   1  11
BRANCH   3  27
ATOM     27  C   UNL     1      12.435  -5.361   1.996  0.00  0.00    +0.157 C 
BRANCH  27  28
ATOM     28  C   UNL     1      13.589  -4.417   2.214  0.00  0.00    -0.026 A 
ATOM     29  C   UNL     1      14.025  -3.608   1.181  0.00  0.00    +0.005 A 
ATOM     30  C   UNL     1      15.084  -2.742   1.380  0.00  0.00    +0.003 A 
ATOM     31  C   UNL     1      15.707  -2.684   2.613  0.00  0.00    +0.033 A 
ATOM     32  C   UNL     1      15.271  -3.493   3.646  0.00  0.00    +0.127 A 
ATOM     33  C   UNL     1      14.209  -4.356   3.448  0.00  0.00    +0.038 A 
BRANCH  32  34
ATOM     34  N   UNL     1      15.938  -3.431   4.966  0.00  0.00    +0.056 N 
ATOM     35  O   UNL     1      16.864  -2.674   5.140  0.00  0.00    -0.126 OA
ATOM     36  O   UNL     1      15.556  -4.138   5.870  0.00  0.00    -0.126 OA
ENDBRANCH  32  34
ENDBRANCH  27  28
ENDBRANCH   3  27
TORSDOF 10
