REMARK  Name = ZINC20974876
REMARK  9 active torsions:
REMARK  status: ('A' for Active; 'I' for Inactive)
REMARK    1  A    between atoms: C_1  and  C_2
REMARK    2  A    between atoms: C_2  and  N_3
REMARK    3  A    between atoms: N_6  and  C_9
REMARK    4  A    between atoms: C_12  and  C_31
REMARK    5  A    between atoms: C_14  and  N_15
REMARK    6  A    between atoms: C_16  and  C_18
REMARK    7  A    between atoms: C_24  and  N_27
REMARK    8  A    between atoms: C_31  and  O_33
REMARK    9  A    between atoms: O_33  and  C_34
REMARK                            x       y       z     vdW  Elec       q    Type
REMARK                         _______ _______ _______ _____ _____    ______ ____
ROOT
ATOM      1  C   UNL     1      -6.038   2.914  -0.140  0.00  0.00    +0.051 A 
ATOM      2  C   UNL     1      -7.304   2.346  -0.234  0.00  0.00    +0.026 A 
ATOM      3  C   UNL     1      -7.449   0.977  -0.233  0.00  0.00    +0.017 A 
ATOM      4  C   UNL     1      -6.323   0.153  -0.143  0.00  0.00    +0.061 A 
ATOM      5  C   UNL     1      -5.049   0.722  -0.054  0.00  0.00    +0.040 A 
ATOM      6  C   UNL     1      -4.907   2.096  -0.055  0.00  0.00    +0.056 A 
ENDROOT
BRANCH   1  10
ATOM      7  N   UNL     1      -6.827   6.989  -0.174  0.00  0.00    +0.382 N 
ATOM      8  C   UNL     1      -6.192   6.398  -1.360  0.00  0.00    -0.060 C 
ATOM      9  C   UNL     1      -6.438   4.888  -1.369  0.00  0.00    +0.086 C 
ATOM     10  N   UNL     1      -5.896   4.299  -0.136  0.00  0.00    -0.332 N 
ATOM     11  C   UNL     1      -6.532   4.890   1.050  0.00  0.00    +0.086 C 
ATOM     12  C   UNL     1      -6.286   6.400   1.058  0.00  0.00    -0.060 C 
ATOM     13  H   UNL     1      -7.903   6.761  -0.216  0.00  0.00    -0.082 HD
BRANCH   7  15
ATOM     14  C   UNL     1      -7.125   9.005   1.185  0.00  0.00    -0.017 C 
ATOM     15  C   UNL     1      -6.678   8.450  -0.170  0.00  0.00    -0.082 C 
ENDBRANCH   7  15
ENDBRANCH   1  10
BRANCH   6  16
ATOM     16  N   UNL     1      -3.632   2.670   0.034  0.00  0.00    -0.279 N 
ATOM     17  C   UNL     1      -2.623   1.984   0.606  0.00  0.00    +0.256 C 
ATOM     18  O   UNL     1      -2.841   0.910   1.135  0.00  0.00    -0.269 OA
ATOM     19  H   UNL     1      -3.455   3.681  -0.363  0.00  0.00    +0.155 HD
BRANCH  17  20
ATOM     20  C   UNL     1      -1.262   2.533   0.592  0.00  0.00    +0.094 A 
ATOM     21  C   UNL     1      -0.125   1.995   1.112  0.00  0.00    +0.068 A 
ATOM     22  C   UNL     1       1.097   2.683   0.989  0.00  0.00    +0.010 A 
ATOM     23  C   UNL     1       2.378   2.289   1.454  0.00  0.00    +0.010 A 
ATOM     24  C   UNL     1       3.464   3.077   1.249  0.00  0.00    +0.003 A 
ATOM     25  C   UNL     1       3.367   4.292   0.582  0.00  0.00    +0.034 A 
ATOM     26  C   UNL     1       2.140   4.714   0.112  0.00  0.00    +0.140 A 
ATOM     27  C   UNL     1       1.028   3.924   0.313  0.00  0.00    +0.052 A 
ATOM     28  S   UNL     1      -0.691   4.072  -0.108  0.00  0.00    -0.080 S 
ATOM     29 CL   UNL     1      -0.180   0.459   1.919  0.00  0.00    -0.082 Cl
BRANCH  26  30
ATOM     30  N   UNL     1       2.018   6.005  -0.601  0.00  0.00    +0.058 N 
ATOM     31  O   UNL     1       3.004   6.699  -0.776  0.00  0.00    -0.126 OA
ATOM     32  O   UNL     1       0.933   6.373  -1.014  0.00  0.00    -0.126 OA
ENDBRANCH  26  30
ENDBRANCH  17  20
ENDBRANCH   6  16
BRANCH   4  33
ATOM     33  C   UNL     1      -6.479  -1.313  -0.142  0.00  0.00    +0.339 C 
ATOM     34  O   UNL     1      -5.499  -2.028  -0.064  0.00  0.00    -0.245 OA
BRANCH  33  35
ATOM     35  O   UNL     1      -7.707  -1.860  -0.228  0.00  0.00    -0.464 OA
ATOM     36  C   UNL     1      -7.785  -3.309  -0.221  0.00  0.00    +0.280 C 
ENDBRANCH  33  35
ENDBRANCH   4  33
TORSDOF 7
