REMARK  Name = ZINC35069365
REMARK  13 active torsions:
REMARK  status: ('A' for Active; 'I' for Inactive)
REMARK    1  A    between atoms: C_1  and  C_2
REMARK    2  A    between atoms: C_2  and  C_3
REMARK    3  A    between atoms: C_3  and  C_5
REMARK    4  A    between atoms: C_3  and  N_23
REMARK    5  A    between atoms: N_15  and  C_16
REMARK    6  A    between atoms: N_23  and  C_24
REMARK    7  A    between atoms: C_24  and  C_25
REMARK    8  A    between atoms: C_25  and  N_26
REMARK    9  A    between atoms: N_26  and  C_27
REMARK   10  A    between atoms: N_26  and  C_28
REMARK   11  A    between atoms: C_29  and  C_31
REMARK   12  A    between atoms: C_31  and  C_32
REMARK   13  A    between atoms: C_31  and  C_33
REMARK                            x       y       z     vdW  Elec       q    Type
REMARK                         _______ _______ _______ _____ _____    ______ ____
ROOT
ATOM      1  C   UNL     1      -2.431  -2.807   1.075  0.00  0.00    +0.138 A 
ATOM      2  N   UNL     1      -2.144  -3.932   1.657  0.00  0.00    -0.231 NA
ATOM      3  C   UNL     1      -1.786  -5.029   0.945  0.00  0.00    +0.078 A 
ATOM      4  C   UNL     1      -1.478  -6.239   1.570  0.00  0.00    +0.028 A 
ATOM      5  C   UNL     1      -1.120  -7.329   0.808  0.00  0.00    +0.002 A 
ATOM      6  C   UNL     1      -1.060  -7.240  -0.576  0.00  0.00    +0.001 A 
ATOM      7  C   UNL     1      -1.360  -6.057  -1.216  0.00  0.00    +0.015 A 
ATOM      8  C   UNL     1      -1.725  -4.943  -0.464  0.00  0.00    +0.065 A 
ATOM      9  C   UNL     1      -2.056  -3.656  -1.092  0.00  0.00    +0.266 A 
ATOM     10  O   UNL     1      -2.024  -3.515  -2.300  0.00  0.00    -0.267 OA
ATOM     11  N   UNL     1      -2.404  -2.635  -0.274  0.00  0.00    -0.263 N 
ENDROOT
BRANCH  11  12
ATOM     12  C   UNL     1      -2.733  -1.388  -0.822  0.00  0.00    +0.051 A 
ATOM     13  C   UNL     1      -1.753  -0.614  -1.429  0.00  0.00    +0.027 A 
ATOM     14  C   UNL     1      -2.081   0.615  -1.968  0.00  0.00    +0.017 A 
ATOM     15  C   UNL     1      -3.384   1.075  -1.903  0.00  0.00    +0.018 A 
ATOM     16  C   UNL     1      -4.362   0.306  -1.298  0.00  0.00    +0.017 A 
ATOM     17  C   UNL     1      -4.042  -0.927  -0.764  0.00  0.00    +0.027 A 
ATOM     18 BR   UNL     1      -3.829   2.758  -2.642  0.00  0.00    -0.050 Br
ENDBRANCH  11  12
BRANCH   1  19
ATOM     19  C   UNL     1      -2.821  -1.634   1.938  0.00  0.00    +0.142 C 
BRANCH  19  20
ATOM     20  N   UNL     1      -3.162  -2.108   3.281  0.00  0.00    -0.293 N 
ATOM     21  C   UNL     1      -2.224  -2.708   4.043  0.00  0.00    +0.219 C 
ATOM     22  O   UNL     1      -1.078  -2.774   3.653  0.00  0.00    -0.275 OA
BRANCH  21  23
ATOM     23  C   UNL     1      -2.601  -3.296   5.378  0.00  0.00    +0.069 C 
ATOM     24  C   UNL     1      -1.630  -4.424   5.731  0.00  0.00    +0.017 C 
ATOM     25  C   UNL     1      -2.532  -2.208   6.452  0.00  0.00    +0.017 C 
ENDBRANCH  21  23
BRANCH  20  26
ATOM     26  C   UNL     1      -4.521  -1.931   3.798  0.00  0.00    +0.090 C 
BRANCH  26  27
ATOM     27  C   UNL     1      -5.409  -3.072   3.298  0.00  0.00    -0.060 C 
BRANCH  27  28
ATOM     28  N   UNL     1      -6.772  -2.895   3.816  0.00  0.00    +0.377 N 
ATOM     29  C   UNL     1      -7.356  -1.672   3.249  0.00  0.00    -0.097 C 
ATOM     30  C   UNL     1      -7.595  -4.051   3.437  0.00  0.00    -0.097 C 
ATOM     31  H   UNL     1      -6.743  -2.818   4.822  0.00  0.00    -0.083 HD
ENDBRANCH  27  28
ENDBRANCH  26  27
ENDBRANCH  20  26
ENDBRANCH  19  20
BRANCH  19  33
ATOM     32  C   UNL     1      -2.076   0.582   2.819  0.00  0.00    +0.006 C 
ATOM     33  C   UNL     1      -1.649  -0.654   2.025  0.00  0.00    +0.027 C 
ENDBRANCH  19  33
ENDBRANCH   1  19
TORSDOF 8
