REMARK  Name = ZINC13319537
REMARK  8 active torsions:
REMARK  status: ('A' for Active; 'I' for Inactive)
REMARK    1  A    between atoms: C_9  and  C_27
REMARK    2  A    between atoms: C_10  and  O_11
REMARK    3  A    between atoms: O_11  and  C_12
REMARK    4  A    between atoms: C_12  and  C_13
REMARK    5  A    between atoms: N_15  and  C_16
REMARK    6  A    between atoms: C_16  and  C_17
REMARK    7  A    between atoms: C_20  and  S_23
REMARK    8  A    between atoms: S_23  and  N_26
REMARK                            x       y       z     vdW  Elec       q    Type
REMARK                         _______ _______ _______ _____ _____    ______ ____
ROOT
ATOM      1  C   UNL     1      -3.142   6.980   1.141  0.00  0.00    +0.251 C 
ATOM      2  O   UNL     1      -3.555   7.214   0.025  0.00  0.00    -0.272 OA
ATOM      3  N   UNL     1      -3.846   7.380   2.218  0.00  0.00    -0.308 N 
ATOM      4  H   UNL     1      -3.515   7.193   3.111  0.00  0.00    +0.149 HD
ENDROOT
BRANCH   1   5
ATOM      5  C   UNL     1      -1.841   6.241   1.323  0.00  0.00    +0.324 C 
BRANCH   5   6
ATOM      6  O   UNL     1      -1.289   5.926   0.043  0.00  0.00    -0.481 OA
BRANCH   6  16
ATOM      7  C   UNL     1      -0.013   1.076   0.008  0.00  0.00    +0.001 A 
ATOM      8  C   UNL     1      -1.234   1.745   0.017  0.00  0.00    +0.001 A 
ATOM      9  C   UNL     1      -1.286   3.106   0.030  0.00  0.00    +0.012 A 
ATOM     10  C   UNL     1      -0.093   3.848   0.023  0.00  0.00    +0.025 A 
ATOM     11  C   UNL     1       1.150   3.167   0.008  0.00  0.00    -0.014 A 
ATOM     12  C   UNL     1       1.163   1.763   0.000  0.00  0.00    +0.008 A 
ATOM     13  C   UNL     1       2.350   3.904  -0.000  0.00  0.00    +0.009 A 
ATOM     14  C   UNL     1       2.319   5.259   0.006  0.00  0.00    +0.019 A 
ATOM     15  C   UNL     1       1.095   5.955   0.021  0.00  0.00    +0.105 A 
ATOM     16  C   UNL     1      -0.112   5.257   0.029  0.00  0.00    +0.143 A 
BRANCH  15  17
ATOM     17  C   UNL     1       1.090   7.427   0.029  0.00  0.00    +0.390 C 
ATOM     18  O   UNL     1       0.035   8.030   0.042  0.00  0.00    -0.240 OA
ATOM     19  O   UNL     1       2.255   8.105   0.021  0.00  0.00    -0.240 OA
ENDBRANCH  15  17
ENDBRANCH   6  16
ENDBRANCH   5   6
ENDBRANCH   1   5
BRANCH   3  20
ATOM     20  C   UNL     1      -5.110   8.098   2.041  0.00  0.00    +0.139 C 
BRANCH  20  21
ATOM     21  C   UNL     1      -5.693   8.430   3.391  0.00  0.00    -0.030 A 
ATOM     22  C   UNL     1      -6.556   7.544   4.008  0.00  0.00    +0.007 A 
ATOM     23  C   UNL     1      -7.087   7.846   5.248  0.00  0.00    +0.029 A 
ATOM     24  C   UNL     1      -6.762   9.039   5.867  0.00  0.00    +0.105 A 
ATOM     25  C   UNL     1      -5.903   9.927   5.248  0.00  0.00    +0.029 A 
ATOM     26  C   UNL     1      -5.369   9.623   4.010  0.00  0.00    +0.007 A 
BRANCH  24  27
ATOM     27  S   UNL     1      -7.442   9.426   7.446  0.00  0.00    +0.056 S 
ATOM     28  O   UNL     1      -7.786   8.189   8.054  0.00  0.00    -0.153 OA
ATOM     29  O   UNL     1      -6.554  10.354   8.054  0.00  0.00    -0.153 OA
BRANCH  27  30
ATOM     30  N   UNL     1      -8.863  10.235   7.182  0.00  0.00    -0.204 NA
ATOM     31  H   UNL     1      -9.588  10.164   7.823  0.00  0.00    +0.144 HD
ATOM     32  H   UNL     1      -8.971  10.779   6.386  0.00  0.00    +0.144 HD
ENDBRANCH  27  30
ENDBRANCH  24  27
ENDBRANCH  20  21
ENDBRANCH   3  20
TORSDOF 8
