REMARK  Name = ZINC12532980
REMARK  9 active torsions:
REMARK  status: ('A' for Active; 'I' for Inactive)
REMARK    1  A    between atoms: C_1  and  C_2
REMARK    2  A    between atoms: C_2  and  N_3
REMARK    3  A    between atoms: N_3  and  C_4
REMARK    4  A    between atoms: C_12  and  C_14
REMARK    5  A    between atoms: C_14  and  S_15
REMARK    6  A    between atoms: S_15  and  C_16
REMARK    7  A    between atoms: C_19  and  C_27
REMARK    8  A    between atoms: N_20  and  C_21
REMARK    9  A    between atoms: C_27  and  C_28
REMARK                            x       y       z     vdW  Elec       q    Type
REMARK                         _______ _______ _______ _____ _____    ______ ____
ROOT
ATOM      1  C   UNL     1      -1.909   6.665  -3.312  0.00  0.00    +0.192 A 
ATOM      2  N   UNL     1      -3.218   6.619  -3.224  0.00  0.00    -0.122 NA
ATOM      3  N   UNL     1      -3.561   6.105  -2.096  0.00  0.00    -0.133 NA
ATOM      4  C   UNL     1      -2.501   5.795  -1.405  0.00  0.00    +0.139 A 
ATOM      5  N   UNL     1      -1.411   6.146  -2.152  0.00  0.00    -0.303 N 
ENDROOT
BRANCH   5   6
ATOM      6  C   UNL     1      -0.001   5.993  -1.785  0.00  0.00    +0.091 C 
ATOM      7  C   UNL     1       0.675   7.365  -1.773  0.00  0.00    +0.025 C 
ATOM      8  C   UNL     1       2.147   7.205  -1.389  0.00  0.00    +0.002 C 
ATOM      9  C   UNL     1       2.845   6.303  -2.409  0.00  0.00    +0.000 C 
ATOM     10  C   UNL     1       2.169   4.930  -2.421  0.00  0.00    +0.002 C 
ATOM     11  C   UNL     1       0.696   5.090  -2.805  0.00  0.00    +0.025 C 
ENDBRANCH   5   6
BRANCH   1  12
ATOM     12  S   UNL     1      -0.972   7.286  -4.669  0.00  0.00    -0.077 S 
BRANCH  12  13
ATOM     13  C   UNL     1      -2.315   7.782  -5.777  0.00  0.00    +0.173 C 
BRANCH  13  15
ATOM     14  N   UNL     1      -2.553   8.800  -8.019  0.00  0.00    -0.296 N 
ATOM     15  C   UNL     1      -1.735   8.360  -7.042  0.00  0.00    +0.226 C 
ATOM     16  O   UNL     1      -0.532   8.429  -7.181  0.00  0.00    -0.275 OA
BRANCH  14  17
ATOM     17  C   UNL     1      -1.988   9.361  -9.249  0.00  0.00    +0.098 C 
ATOM     18  C   UNL     1      -1.089   8.317  -9.932  0.00  0.00    +0.046 C 
ATOM     19  C   UNL     1      -0.245   8.992 -11.040  0.00  0.00    +0.168 C 
ATOM     20  S   UNL     1      -0.086  10.720 -10.431  0.00  0.00    -0.029 S 
ATOM     21  O   UNL     1      -0.721  11.595 -11.353  0.00  0.00    -0.174 OA
ATOM     22  O   UNL     1       1.265  10.957 -10.059  0.00  0.00    -0.174 OA
ATOM     23  C   UNL     1      -1.116  10.603  -8.908  0.00  0.00    +0.188 C 
ENDBRANCH  14  17
BRANCH  14  25
ATOM     24  C   UNL     1      -4.518  10.001  -7.196  0.00  0.00    +0.024 C 
ATOM     25  C   UNL     1      -4.005   8.716  -7.851  0.00  0.00    +0.105 C 
ENDBRANCH  14  25
ENDBRANCH  13  15
ENDBRANCH  12  13
ENDBRANCH   1  12
BRANCH   4  26
ATOM     26  C   UNL     1      -2.481   5.173  -0.033  0.00  0.00    +0.112 C 
BRANCH  26  27
ATOM     27  C   UNL     1      -2.601   6.253   1.011  0.00  0.00    -0.032 A 
ATOM     28  C   UNL     1      -1.483   6.778   1.584  0.00  0.00    +0.004 A 
ATOM     29  C   UNL     1      -1.575   7.777   2.551  0.00  0.00    +0.001 A 
ATOM     30  C   UNL     1      -2.784   8.259   2.950  0.00  0.00    +0.008 A 
ATOM     31  C   UNL     1      -3.959   7.746   2.376  0.00  0.00    -0.018 A 
ATOM     32  C   UNL     1      -3.867   6.725   1.397  0.00  0.00    -0.014 A 
ATOM     33  C   UNL     1      -5.043   6.207   0.828  0.00  0.00    +0.009 A 
ATOM     34  C   UNL     1      -6.252   6.688   1.228  0.00  0.00    +0.001 A 
ATOM     35  C   UNL     1      -6.343   7.688   2.194  0.00  0.00    +0.001 A 
ATOM     36  C   UNL     1      -5.226   8.213   2.767  0.00  0.00    +0.008 A 
ENDBRANCH  26  27
ENDBRANCH   4  26
TORSDOF 8
