REMARK  Name = ZINC09952498
REMARK  4 active torsions:
REMARK  status: ('A' for Active; 'I' for Inactive)
REMARK    1  A    between atoms: C_3  and  C_6
REMARK    2  A    between atoms: C_15  and  C_17
REMARK    3  A    between atoms: C_17  and  N_60
REMARK    4  A    between atoms: C_23  and  C_25
REMARK                            x       y       z     vdW  Elec       q    Type
REMARK                         _______ _______ _______ _____ _____    ______ ____
ROOT
ATOM      1  C   UNL     1       5.048   0.285  -1.774  0.00  0.00    -0.059 C 
ATOM      2  C   UNL     1       5.818   1.589  -1.539  0.00  0.00    +0.089 C 
ATOM      3  N   UNL     1       7.136   1.258  -0.975  0.00  0.00    -0.301 N 
ATOM      4  C   UNL     1       7.188   0.369   0.196  0.00  0.00    +0.089 C 
ATOM      5  C   UNL     1       6.364  -0.886  -0.108  0.00  0.00    -0.059 C 
ATOM      6  C   UNL     1       8.265   1.754  -1.518  0.00  0.00    +0.247 C 
ATOM      7  O   UNL     1       9.340   1.526  -0.999  0.00  0.00    -0.270 OA
ATOM      8  N   UNL     1       5.000  -0.474  -0.506  0.00  0.00    +0.386 N 
ATOM      9  H   UNL     1       4.607   0.127   0.228  0.00  0.00    -0.081 HD
ENDROOT
BRANCH   6  10
ATOM     10  C   UNL     1       8.196   2.577  -2.745  0.00  0.00    +0.037 A 
ATOM     11  C   UNL     1       7.293   3.639  -2.830  0.00  0.00    +0.013 A 
ATOM     12  C   UNL     1       7.242   4.397  -3.978  0.00  0.00    +0.004 A 
ATOM     13  C   UNL     1       8.071   4.111  -5.057  0.00  0.00    -0.044 A 
ATOM     14  C   UNL     1       8.963   3.062  -4.980  0.00  0.00    -0.043 A 
ATOM     15  C   UNL     1       9.026   2.295  -3.827  0.00  0.00    +0.017 A 
ATOM     16  C   UNL     1       9.894   2.705  -6.109  0.00  0.00    +0.035 C 
ATOM     17  C   UNL     1       9.418   3.333  -7.417  0.00  0.00    +0.005 C 
ATOM     18  C   UNL     1       9.176   4.828  -7.176  0.00  0.00    +0.005 C 
ATOM     19  C   UNL     1       7.946   4.978  -6.283  0.00  0.00    +0.035 C 
ENDBRANCH   6  10
BRANCH   8  20
ATOM     20  C   UNL     1       4.139  -1.665  -0.663  0.00  0.00    -0.003 C 
BRANCH  20  30
ATOM     21  C   UNL     1      -1.182   0.254  -1.369  0.00  0.00    +0.010 A 
ATOM     22  C   UNL     1      -1.251   1.609  -1.355  0.00  0.00    +0.057 A 
ATOM     23  S   UNL     1       0.445   2.105  -1.116  0.00  0.00    -0.076 S 
ATOM     24  C   UNL     1       1.198   0.501  -1.035  0.00  0.00    +0.116 A 
ATOM     25  C   UNL     1       0.118  -0.383  -1.194  0.00  0.00    +0.080 A 
ATOM     26  C   UNL     1       0.449  -1.775  -1.168  0.00  0.00    +0.260 A 
ATOM     27  O   UNL     1      -0.421  -2.620  -1.299  0.00  0.00    -0.267 OA
ATOM     28  N   UNL     1       1.733  -2.138  -0.998  0.00  0.00    -0.312 N 
ATOM     29  H   UNL     1       1.963  -3.081  -0.980  0.00  0.00    +0.170 HD
ATOM     30  C   UNL     1       2.715  -1.211  -0.851  0.00  0.00    +0.094 A 
ATOM     31  N   UNL     1       2.445   0.066  -0.871  0.00  0.00    -0.229 NA
BRANCH  21  34
ATOM     32  C   UNL     1      -4.607  -1.355  -1.245  0.00  0.00    +0.008 A 
ATOM     33  C   UNL     1      -3.600  -0.481  -0.894  0.00  0.00    +0.016 A 
ATOM     34  C   UNL     1      -2.402  -0.560  -1.553  0.00  0.00    +0.021 A 
ATOM     35  S   UNL     1      -2.693  -1.909  -2.686  0.00  0.00    -0.097 S 
ATOM     36  C   UNL     1      -4.378  -2.271  -2.220  0.00  0.00    +0.046 A 
ENDBRANCH  21  34
ENDBRANCH  20  30
ENDBRANCH   8  20
TORSDOF 4
