REMARK  Name = ZINC17258632
REMARK  6 active torsions:
REMARK  status: ('A' for Active; 'I' for Inactive)
REMARK    1  A    between atoms: C_6  and  N_7
REMARK    2  A    between atoms: N_8  and  C_9
REMARK    3  A    between atoms: N_17  and  C_18
REMARK    4  A    between atoms: C_18  and  C_19
REMARK    5  A    between atoms: C_19  and  C_22
REMARK    6  A    between atoms: C_22  and  O_23
REMARK                            x       y       z     vdW  Elec       q    Type
REMARK                         _______ _______ _______ _____ _____    ______ ____
ROOT
ATOM      1  C   UNL     1      -1.651  -1.645  -1.061  0.00  0.00    +0.162 A 
ATOM      2  C   UNL     1      -1.042  -0.412  -0.741  0.00  0.00    +0.153 A 
ATOM      3  N   UNL     1      -1.801   0.675  -0.660  0.00  0.00    -0.198 NA
ATOM      4  C   UNL     1      -3.108   0.608  -0.871  0.00  0.00    +0.216 A 
ATOM      5  N   UNL     1      -3.716  -0.533  -1.169  0.00  0.00    -0.201 NA
ATOM      6  C   UNL     1      -3.037  -1.663  -1.269  0.00  0.00    +0.163 A 
ATOM      7 CL   UNL     1      -3.850  -3.147  -1.661  0.00  0.00    -0.059 Cl
ATOM      8  N   UNL     1      -3.860   1.762  -0.777  0.00  0.00    -0.327 N 
ATOM      9  N   UNL     1       0.319  -0.336  -0.520  0.00  0.00    -0.327 N 
ATOM     10  H   UNL     1      -4.946   1.726  -0.948  0.00  0.00    +0.145 HD
ATOM     11  H   UNL     1      -3.373   2.717  -0.530  0.00  0.00    +0.145 HD
ATOM     12  H   UNL     1       0.938  -1.243  -0.585  0.00  0.00    +0.148 HD
ENDROOT
BRANCH   1  14
ATOM     13  N   UNL     1      -1.489  -3.902  -1.455  0.00  0.00    -0.149 NA
ATOM     14  N   UNL     1      -0.914  -2.785  -1.161  0.00  0.00    -0.143 NA
BRANCH  13  20
ATOM     15  C   UNL     1       0.633  -5.010  -1.345  0.00  0.00    +0.031 A 
ATOM     16  C   UNL     1       1.374  -6.169  -1.442  0.00  0.00    +0.022 A 
ATOM     17  C   UNL     1       0.753  -7.366  -1.758  0.00  0.00    +0.041 A 
ATOM     18  C   UNL     1      -0.615  -7.409  -1.973  0.00  0.00    +0.022 A 
ATOM     19  C   UNL     1      -1.367  -6.258  -1.873  0.00  0.00    +0.031 A 
ATOM     20  C   UNL     1      -0.748  -5.047  -1.555  0.00  0.00    +0.086 A 
ATOM     21 CL   UNL     1       1.694  -8.820  -1.885  0.00  0.00    -0.084 Cl
ENDBRANCH  13  20
ENDBRANCH   1  14
BRANCH   9  22
ATOM     22  C   UNL     1       0.939   0.952  -0.201  0.00  0.00    +0.112 C 
BRANCH  22  23
ATOM     23  C   UNL     1       2.422   0.741   0.109  0.00  0.00    +0.009 C 
ATOM     24  C   UNL     1       3.423   1.697  -0.544  0.00  0.00    +0.011 C 
ATOM     25  C   UNL     1       3.318   0.250  -1.030  0.00  0.00    +0.011 C 
BRANCH  23  26
ATOM     26  C   UNL     1       2.738   0.244   1.521  0.00  0.00    +0.164 C 
BRANCH  26  27
ATOM     27  O   UNL     1       2.367   1.244   2.472  0.00  0.00    -0.394 OA
ATOM     28  H   UNL     1       2.520   1.065   3.546  0.00  0.00    +0.209 HD
ENDBRANCH  26  27
ENDBRANCH  23  26
ENDBRANCH  22  23
ENDBRANCH   9  22
TORSDOF 6
