REMARK  Name = ZINC04113129
REMARK  4 active torsions:
REMARK  status: ('A' for Active; 'I' for Inactive)
REMARK    1  A    between atoms: C_4  and  C_7
REMARK    2  A    between atoms: C_7  and  N_55
REMARK    3  A    between atoms: C_18  and  C_21
REMARK    4  A    between atoms: C_26  and  C_27
REMARK                            x       y       z     vdW  Elec       q    Type
REMARK                         _______ _______ _______ _____ _____    ______ ____
ROOT
ATOM      1  C   UNL     1       1.157   1.220  -1.602  0.00  0.00    -0.073 C 
ATOM      2  C   UNL     1       1.634   0.809  -0.207  0.00  0.00    +0.018 C 
ATOM      3  C   UNL     1       0.579   1.243   0.805  0.00  0.00    -0.027 A 
ATOM      4  C   UNL     1      -0.346   2.170   0.461  0.00  0.00    -0.021 A 
ATOM      5  S   UNL     1      -1.354   2.366   1.905  0.00  0.00    -0.080 S 
ATOM      6  C   UNL     1      -0.567   1.247   2.935  0.00  0.00    +0.080 A 
ATOM      7  C   UNL     1       0.478   0.725   2.157  0.00  0.00    +0.068 A 
ATOM      8  C   UNL     1       1.360  -0.285   2.786  0.00  0.00    +0.248 C 
ATOM      9  O   UNL     1       2.216  -0.866   2.144  0.00  0.00    -0.270 OA
ATOM     10  N   UNL     1       1.175  -0.536   4.099  0.00  0.00    -0.289 N 
ATOM     11  C   UNL     1       0.340   0.289   4.966  0.00  0.00    +0.194 C 
ATOM     12  N   UNL     1      -0.803   0.856   4.227  0.00  0.00    -0.316 N 
ATOM     13  C   UNL     1      -0.464   2.861  -0.861  0.00  0.00    -0.035 C 
ATOM     14  H   UNL     1       1.621  -1.305   4.487  0.00  0.00    +0.151 HD
ATOM     15  H   UNL     1      -1.678   0.948   4.636  0.00  0.00    +0.149 HD
ATOM     16  N   UNL     1       0.807   2.656  -1.597  0.00  0.00    +0.386 N 
ATOM     17  H   UNL     1       1.554   3.180  -1.127  0.00  0.00    -0.081 HD
ENDROOT
BRANCH  11  18
ATOM     18  C   UNL     1       1.171   1.413   5.528  0.00  0.00    +0.036 A 
ATOM     19  C   UNL     1       1.265   2.663   5.024  0.00  0.00    +0.112 A 
ATOM     20  N   UNL     1       2.105   3.369   5.810  0.00  0.00    -0.284 N 
ATOM     21  H   UNL     1       2.365   4.325   5.681  0.00  0.00    +0.188 HD
ATOM     22  N   UNL     1       2.549   2.528   6.839  0.00  0.00    -0.174 NA
ATOM     23  C   UNL     1       1.985   1.349   6.676  0.00  0.00    +0.099 A 
BRANCH  23  24
ATOM     24  C   UNL     1       2.175   0.163   7.547  0.00  0.00    +0.002 A 
ATOM     25  C   UNL     1       1.081  -0.619   7.913  0.00  0.00    +0.010 A 
ATOM     26  C   UNL     1       1.265  -1.725   8.718  0.00  0.00    +0.001 A 
ATOM     27  C   UNL     1       2.531  -2.052   9.170  0.00  0.00    +0.000 A 
ATOM     28  C   UNL     1       3.620  -1.276   8.814  0.00  0.00    +0.001 A 
ATOM     29  C   UNL     1       3.448  -0.171   8.005  0.00  0.00    +0.010 A 
ENDBRANCH  23  24
ENDBRANCH  11  18
BRANCH  16  30
ATOM     30  C   UNL     1       0.673   3.149  -2.985  0.00  0.00    -0.043 C 
BRANCH  30  34
ATOM     31  C   UNL     1       0.291   7.403  -2.908  0.00  0.00    +0.000 A 
ATOM     32  C   UNL     1       1.543   6.823  -2.978  0.00  0.00    +0.000 A 
ATOM     33  C   UNL     1       1.667   5.447  -3.004  0.00  0.00    +0.002 A 
ATOM     34  C   UNL     1       0.538   4.650  -2.957  0.00  0.00    -0.064 A 
ATOM     35  C   UNL     1      -0.715   5.230  -2.892  0.00  0.00    +0.002 A 
ATOM     36  C   UNL     1      -0.838   6.607  -2.862  0.00  0.00    +0.000 A 
ENDBRANCH  30  34
ENDBRANCH  16  30
TORSDOF 4
