REMARK  Name = ZINC63491720
REMARK  9 active torsions:
REMARK  status: ('A' for Active; 'I' for Inactive)
REMARK    1  A    between atoms: C_1  and  C_2
REMARK    2  A    between atoms: C_2  and  O_3
REMARK    3  A    between atoms: O_3  and  C_4
REMARK    4  A    between atoms: C_4  and  C_6
REMARK    5  A    between atoms: C_6  and  C_7
REMARK    6  A    between atoms: C_7  and  N_8
REMARK    7  A    between atoms: C_17  and  O_33
REMARK    8  A    between atoms: C_24  and  C_26
REMARK    9  A    between atoms: O_33  and  C_34
REMARK                            x       y       z     vdW  Elec       q    Type
REMARK                         _______ _______ _______ _____ _____    ______ ____
ROOT
ATOM      1  N   UNL     1       3.339  -4.702  -3.156  0.00  0.00    -0.299 N 
ATOM      2  C   UNL     1       3.033  -5.967  -3.506  0.00  0.00    +0.303 C 
ATOM      3  O   UNL     1       2.589  -6.737  -2.676  0.00  0.00    -0.253 OA
ATOM      4  N   UNL     1       3.219  -6.378  -4.776  0.00  0.00    -0.276 N 
ATOM      5  C   UNL     1       3.876  -5.488  -5.738  0.00  0.00    +0.114 C 
ATOM      6  C   UNL     1       2.941  -5.250  -6.938  0.00  0.00    +0.052 C 
ATOM      7  C   UNL     1       2.388  -6.598  -7.329  0.00  0.00    -0.035 C 
ATOM      8  C   UNL     1       2.347  -7.225  -8.497  0.00  0.00    +0.003 A 
ATOM      9  C   UNL     1       2.723  -6.799  -9.854  0.00  0.00    +0.055 A 
ATOM     10  C   UNL     1       2.569  -7.718 -10.847  0.00  0.00    +0.121 A 
ATOM     11  C   UNL     1       2.081  -9.017 -10.645  0.00  0.00    +0.047 A 
ATOM     12  C   UNL     1       1.697  -9.509  -9.439  0.00  0.00    +0.029 A 
ATOM     13  C   UNL     1       1.811  -8.605  -8.287  0.00  0.00    +0.043 A 
ATOM     14  N   UNL     1       1.504  -8.789  -7.038  0.00  0.00    -0.375 N 
ATOM     15  C   UNL     1       1.746  -7.539  -6.316  0.00  0.00    +0.131 C 
ATOM     16  C   UNL     1       2.766  -7.718  -5.181  0.00  0.00    +0.134 C 
ATOM     17  H   UNL     1       3.761  -4.109  -3.798  0.00  0.00    +0.150 HD
ATOM     18  H   UNL     1       1.172  -9.614  -6.650  0.00  0.00    +0.160 HD
ENDROOT
BRANCH  16  19
ATOM     19  C   UNL     1       2.116  -8.412  -4.011  0.00  0.00    -0.025 A 
ATOM     20  C   UNL     1       0.926  -7.931  -3.497  0.00  0.00    +0.008 A 
ATOM     21  C   UNL     1       0.329  -8.567  -2.425  0.00  0.00    +0.038 A 
ATOM     22  C   UNL     1       0.923  -9.686  -1.866  0.00  0.00    +0.123 A 
ATOM     23  C   UNL     1       2.115 -10.166  -2.381  0.00  0.00    +0.038 A 
ATOM     24  C   UNL     1       2.708  -9.532  -3.457  0.00  0.00    +0.008 A 
ATOM     25  F   UNL     1       0.341 -10.308  -0.818  0.00  0.00    -0.205 F 
ENDBRANCH  16  19
BRANCH  10  26
ATOM     26  O   UNL     1       2.908  -7.354 -12.112  0.00  0.00    -0.495 OA
ATOM     27  C   UNL     1       2.737  -8.334 -13.138  0.00  0.00    +0.277 C 
ENDBRANCH  10  26
BRANCH   1  28
ATOM     28  C   UNL     1       3.034  -4.221  -1.806  0.00  0.00    +0.117 C 
BRANCH  28  29
ATOM     29  C   UNL     1       3.478  -2.763  -1.671  0.00  0.00    +0.139 C 
BRANCH  29  30
ATOM     30  C   UNL     1       3.164  -2.269  -0.282  0.00  0.00    +0.309 C 
ATOM     31  O   UNL     1       2.639  -3.007   0.517  0.00  0.00    -0.251 OA
BRANCH  30  32
ATOM     32  O   UNL     1       3.469  -1.009   0.066  0.00  0.00    -0.465 OA
BRANCH  32  34
ATOM     33  C   UNL     1       3.562   0.849   1.609  0.00  0.00    +0.048 C 
ATOM     34  C   UNL     1       3.143  -0.608   1.399  0.00  0.00    +0.229 C 
ENDBRANCH  32  34
ENDBRANCH  30  32
ENDBRANCH  29  30
ENDBRANCH  28  29
ENDBRANCH   1  28
TORSDOF 7
