REMARK  Name = ZINC58279785
REMARK  7 active torsions:
REMARK  status: ('A' for Active; 'I' for Inactive)
REMARK    1  A    between atoms: C_1  and  C_2
REMARK    2  A    between atoms: C_12  and  C_16
REMARK    3  A    between atoms: N_17  and  CA_18
REMARK    4  A    between atoms: CA_18  and  CB_20
REMARK    5  A    between atoms: CA_18  and  C_23
REMARK    6  A    between atoms: CB_20  and  CG1_21
REMARK    7  A    between atoms: CB_20  and  CG2_22
REMARK                            x       y       z     vdW  Elec       q    Type
REMARK                         _______ _______ _______ _____ _____    ______ ____
ROOT
ATOM      1  C   UNK A   0      -0.485   1.458   0.033  0.00  0.00    +0.088 C 
ATOM      2  C   UNK A   0      -0.217  -0.025   0.013  0.00  0.00    +0.129 A 
ATOM      3  N   UNK A   0      -0.206  -0.664  -1.144  0.00  0.00    -0.217 NA
ATOM      4  C   UNK A   0       0.022  -1.965  -1.228  0.00  0.00    +0.131 A 
ATOM      5  C   UNK A   0       0.265  -2.704  -0.037  0.00  0.00    +0.051 A 
ATOM      6  C   UNK A   0       0.537  -4.134   0.115  0.00  0.00    -0.025 A 
ATOM      7  C   UNK A   0       0.734  -4.589   1.368  0.00  0.00    -0.004 A 
ATOM      8  S   UNK A   0       0.574  -3.163   2.409  0.00  0.00    -0.073 S 
ATOM      9  C   UNK A   0       0.238  -1.954   1.156  0.00  0.00    +0.114 A 
ATOM     10  N   UNK A   0       0.007  -0.656   1.149  0.00  0.00    -0.225 NA
ATOM     11  C   UNK A   0       1.026  -5.998   1.787  0.00  0.00    +0.046 C 
ATOM     12  C   UNK A   0       0.701  -6.931   0.611  0.00  0.00    -0.009 C 
ATOM     13  C   UNK A   0       1.335  -6.357  -0.659  0.00  0.00    +0.008 C 
ATOM     14  C   UNK A   0       0.598  -5.084  -1.078  0.00  0.00    +0.037 C 
ATOM     15  C   UNK A   0       1.269  -8.324   0.888  0.00  0.00    +0.008 C 
ATOM     16  N   VAL A   1       0.025  -2.597  -2.459  0.00  0.00    -0.315 N 
ATOM     17  H   VAL A   1       0.110  -3.562  -2.508  0.00  0.00    +0.148 HD
ENDROOT
BRANCH  16  18
ATOM     18  CA  VAL A   1      -0.102  -1.810  -3.688  0.00  0.00    +0.188 C 
BRANCH  18  19
ATOM     19  CB  VAL A   1      -0.684  -2.687  -4.798  0.00  0.00    +0.014 C 
ATOM     20  CG1 VAL A   1      -0.816  -1.864  -6.081  0.00  0.00    +0.009 C 
ATOM     21  CG2 VAL A   1       0.244  -3.877  -5.048  0.00  0.00    +0.009 C 
ENDBRANCH  18  19
BRANCH  18  22
ATOM     22  C   VAL A   1       1.257  -1.308  -4.104  0.00  0.00    +0.376 C 
ATOM     23  O   VAL A   1       2.255  -1.956  -3.837  0.00  0.00    -0.244 OA
ATOM     24  OXT VAL A   1       1.358  -0.255  -4.710  0.00  0.00    -0.244 OA
ENDBRANCH  18  22
ENDBRANCH  16  18
TORSDOF 3
