REMARK  Name = ZINC63272541
REMARK  8 active torsions:
REMARK  status: ('A' for Active; 'I' for Inactive)
REMARK    1  A    between atoms: C_1  and  C_2
REMARK    2  A    between atoms: C_3  and  C_13
REMARK    3  A    between atoms: C_4  and  C_12
REMARK    4  A    between atoms: C_13  and  C_14
REMARK    5  A    between atoms: C_14  and  C_15
REMARK    6  A    between atoms: N_17  and  C_18
REMARK    7  A    between atoms: N_21  and  C_24
REMARK    8  A    between atoms: C_24  and  C_25
REMARK                            x       y       z     vdW  Elec       q    Type
REMARK                         _______ _______ _______ _____ _____    ______ ____
ROOT
ATOM      1  C   UNL     1      -4.321   1.261   1.043  0.00  0.00    +0.214 C 
ATOM      2  O   UNL     1      -4.931   1.557   0.038  0.00  0.00    -0.276 OA
ATOM      3  N   UNL     1      -4.816   1.587   2.254  0.00  0.00    -0.313 N 
ATOM      4  H   UNL     1      -4.327   1.351   3.057  0.00  0.00    +0.149 HD
ENDROOT
BRANCH   3   5
ATOM      5  C   UNL     1      -6.092   2.299   2.355  0.00  0.00    +0.069 C 
ATOM      6  C   UNL     1      -5.850   3.806   2.221  0.00  0.00    +0.003 C 
ATOM      7  C   UNL     1      -7.175   4.548   2.408  0.00  0.00    -0.077 C 
ATOM      8  N   UNL     1      -7.721   4.255   3.738  0.00  0.00    +0.380 N 
ATOM      9  C   UNL     1      -8.023   2.823   3.848  0.00  0.00    -0.077 C 
ATOM     10  C   UNL     1      -6.731   2.014   3.717  0.00  0.00    +0.003 C 
ATOM     11  H   UNL     1      -7.045   4.510   4.442  0.00  0.00    -0.082 HD
BRANCH   8  12
ATOM     12  C   UNL     1      -8.952   5.030   3.942  0.00  0.00    -0.075 C 
BRANCH  12  13
ATOM     13  C   UNL     1      -8.614   6.522   3.990  0.00  0.00    -0.028 C 
ATOM     14  C   UNL     1      -7.776   6.833   5.248  0.00  0.00    +0.002 C 
ATOM     15  C   UNL     1      -8.285   8.222   5.709  0.00  0.00    +0.000 C 
ATOM     16  C   UNL     1      -9.806   8.139   5.428  0.00  0.00    +0.000 C 
ATOM     17  C   UNL     1      -9.904   7.352   4.105  0.00  0.00    +0.002 C 
ENDBRANCH  12  13
ENDBRANCH   8  12
ENDBRANCH   3   5
BRANCH   1  18
ATOM     18  C   UNL     1      -3.008   0.528   0.939  0.00  0.00    +0.100 C 
BRANCH  18  19
ATOM     19  C   UNL     1      -2.677   0.282  -0.535  0.00  0.00    +0.048 C 
BRANCH  19  22
ATOM     20  C   UNL     1      -0.167   1.758  -0.512  0.00  0.00    +0.066 C 
ATOM     21  C   UNL     1      -0.156   0.256  -0.628  0.00  0.00    +0.047 A 
ATOM     22  C   UNL     1      -1.364  -0.451  -0.639  0.00  0.00    -0.005 A 
ATOM     23  C   UNL     1      -1.339  -1.805  -0.745  0.00  0.00    +0.048 A 
ATOM     24  N   UNL     1      -0.141  -2.438  -0.837  0.00  0.00    -0.199 N 
ATOM     25  C   UNL     1       1.021  -1.718  -0.823  0.00  0.00    +0.255 A 
ATOM     26  N   UNL     1       0.987  -0.384  -0.725  0.00  0.00    -0.216 NA
ATOM     27  N   UNL     1       2.024  -2.584  -0.926  0.00  0.00    -0.176 NA
ATOM     28  C   UNL     1       1.543  -3.822  -1.003  0.00  0.00    +0.234 A 
ATOM     29  N   UNL     1       0.227  -3.785  -0.953  0.00  0.00    -0.128 NA
ATOM     30  N   UNL     1       2.311  -4.977  -1.119  0.00  0.00    -0.326 N 
ATOM     31  C   UNL     1      -2.623  -2.594  -0.759  0.00  0.00    +0.066 C 
ATOM     32  H   UNL     1       3.278  -4.916  -1.149  0.00  0.00    +0.145 HD
ATOM     33  H   UNL     1       1.878  -5.844  -1.171  0.00  0.00    +0.145 HD
ENDBRANCH  19  22
ENDBRANCH  18  19
ENDBRANCH   1  18
TORSDOF 6
