REMARK  Name = ZINC40003839
REMARK  16 active torsions:
REMARK  status: ('A' for Active; 'I' for Inactive)
REMARK    1  A    between atoms: C_1  and  C_2
REMARK    2  A    between atoms: C_2  and  C_3
REMARK    3  A    between atoms: C_3  and  O_4
REMARK    4  A    between atoms: O_4  and  C_5
REMARK    5  A    between atoms: C_8  and  C_11
REMARK    6  A    between atoms: C_13  and  C_26
REMARK    7  A    between atoms: N_17  and  C_18
REMARK    8  A    between atoms: C_18  and  C_19
REMARK    9  A    between atoms: C_19  and  N_20
REMARK   10  A    between atoms: N_20  and  C_21
REMARK   11  A    between atoms: N_20  and  C_23
REMARK   12  A    between atoms: C_21  and  C_22
REMARK   13  A    between atoms: C_23  and  C_24
REMARK   14  A    between atoms: C_26  and  C_28
REMARK   15  A    between atoms: C_29  and  C_38
REMARK   16  A    between atoms: C_36  and  C_37
REMARK                            x       y       z     vdW  Elec       q    Type
REMARK                         _______ _______ _______ _____ _____    ______ ____
ROOT
ATOM      1  C   UNL     1      -7.407  -5.098   0.566  0.00  0.00    +0.145 C 
ATOM      2  C   UNL     1      -7.597  -5.287   2.053  0.00  0.00    +0.078 C 
ATOM      3  C   UNL     1      -7.929  -6.584   2.242  0.00  0.00    +0.249 C 
ATOM      4  C   UNL     1      -7.968  -7.271   0.937  0.00  0.00    +0.288 C 
ATOM      5  O   UNL     1      -8.237  -8.445   0.774  0.00  0.00    -0.266 OA
ATOM      6  N   UNL     1      -7.664  -6.405  -0.049  0.00  0.00    -0.285 N 
ATOM      7  O   UNL     1      -8.185  -7.162   3.440  0.00  0.00    -0.282 OA
ENDROOT
BRANCH   1  11
ATOM      8  C   UNL     1      -3.404  -3.847  -0.254  0.00  0.00    +0.121 A 
ATOM      9  C   UNL     1      -4.462  -2.977  -0.471  0.00  0.00    +0.046 A 
ATOM     10  C   UNL     1      -5.755  -3.384  -0.205  0.00  0.00    +0.009 A 
ATOM     11  C   UNL     1      -5.995  -4.657   0.277  0.00  0.00    -0.022 A 
ATOM     12  C   UNL     1      -4.942  -5.526   0.494  0.00  0.00    +0.009 A 
ATOM     13  C   UNL     1      -3.648  -5.126   0.224  0.00  0.00    +0.046 A 
BRANCH   8  14
ATOM     14  O   UNL     1      -2.131  -3.450  -0.515  0.00  0.00    -0.492 OA
BRANCH  14  15
ATOM     15  C   UNL     1      -1.954  -2.119  -1.006  0.00  0.00    +0.229 C 
BRANCH  15  17
ATOM     16  C   UNL     1      -0.277  -0.431  -1.765  0.00  0.00    +0.007 C 
ATOM     17  C   UNL     1      -0.465  -1.855  -1.240  0.00  0.00    +0.038 C 
ENDBRANCH  15  17
ENDBRANCH  14  15
ENDBRANCH   8  14
ENDBRANCH   1  11
BRANCH   2  18
ATOM     18  C   UNL     1      -7.451  -4.261   3.093  0.00  0.00    +0.213 C 
ATOM     19  O   UNL     1      -6.339  -3.919   3.460  0.00  0.00    -0.285 OA
BRANCH  18  20
ATOM     20  C   UNL     1      -8.601  -3.667   3.669  0.00  0.00    +0.116 A 
ATOM     21  C   UNL     1      -9.921  -3.860   3.281  0.00  0.00    +0.068 A 
ATOM     22  N   UNL     1     -10.693  -3.130   4.066  0.00  0.00    -0.232 NA
ATOM     23  C   UNL     1      -9.944  -2.468   4.949  0.00  0.00    +0.141 A 
ATOM     24  N   UNL     1      -8.633  -2.785   4.734  0.00  0.00    -0.296 N 
ATOM     25  C   UNL     1      -7.654  -2.246   5.508  0.00  0.00    +0.093 A 
ATOM     26  C   UNL     1      -7.959  -1.389   6.509  0.00  0.00    +0.018 A 
ATOM     27  C   UNL     1      -9.294  -1.046   6.758  0.00  0.00    +0.008 A 
ATOM     28  C   UNL     1     -10.282  -1.576   5.981  0.00  0.00    -0.008 A 
ATOM     29  C   UNL     1     -11.724  -1.220   6.237  0.00  0.00    +0.047 C 
ATOM     30  C   UNL     1     -10.390  -4.748   2.157  0.00  0.00    +0.068 C 
ENDBRANCH  18  20
ENDBRANCH   2  18
BRANCH   6  31
ATOM     31  C   UNL     1      -7.600  -6.712  -1.480  0.00  0.00    +0.090 C 
BRANCH  31  32
ATOM     32  C   UNL     1      -6.182  -7.157  -1.844  0.00  0.00    -0.060 C 
BRANCH  32  33
ATOM     33  N   UNL     1      -6.118  -7.465  -3.279  0.00  0.00    +0.380 N 
ATOM     34  H   UNL     1      -6.825  -8.148  -3.508  0.00  0.00    -0.082 HD
BRANCH  33  35
ATOM     35  C   UNL     1      -6.352  -6.239  -4.053  0.00  0.00    -0.082 C 
ATOM     36  C   UNL     1      -6.444  -6.586  -5.541  0.00  0.00    -0.017 C 
ENDBRANCH  33  35
BRANCH  33  37
ATOM     37  C   UNL     1      -4.792  -8.005  -3.605  0.00  0.00    -0.082 C 
ATOM     38  C   UNL     1      -4.602  -9.351  -2.902  0.00  0.00    -0.017 C 
ENDBRANCH  33  37
ENDBRANCH  32  33
ENDBRANCH  31  32
ENDBRANCH   6  31
TORSDOF 11
