REMARK  Name = ZINC02629626
REMARK  10 active torsions:
REMARK  status: ('A' for Active; 'I' for Inactive)
REMARK    1  A    between atoms: C_1  and  C_2
REMARK    2  A    between atoms: C_2  and  O_3
REMARK    3  A    between atoms: O_3  and  C_4
REMARK    4  A    between atoms: C_7  and  N_10
REMARK    5  A    between atoms: C_11  and  C_32
REMARK    6  A    between atoms: C_14  and  S_15
REMARK    7  A    between atoms: S_15  and  C_16
REMARK    8  A    between atoms: C_16  and  C_17
REMARK    9  A    between atoms: N_23  and  C_24
REMARK   10  A    between atoms: C_29  and  C_30
REMARK                            x       y       z     vdW  Elec       q    Type
REMARK                         _______ _______ _______ _____ _____    ______ ____
ROOT
ATOM      1  N   UNL     1       1.117  -3.233  -0.067  0.00  0.00    -0.270 N 
ATOM      2  C   UNL     1      -0.149  -2.691  -0.113  0.00  0.00    +0.171 A 
ATOM      3  N   UNL     1      -0.979  -3.674  -0.376  0.00  0.00    -0.128 NA
ATOM      4  N   UNL     1      -0.331  -4.778  -0.491  0.00  0.00    -0.122 NA
ATOM      5  C   UNL     1       0.954  -4.569  -0.308  0.00  0.00    +0.197 A 
ENDROOT
BRANCH   1   9
ATOM      6  C   UNL     1       4.697  -1.220   0.664  0.00  0.00    +0.121 A 
ATOM      7  C   UNL     1       4.195  -2.106   1.606  0.00  0.00    +0.047 A 
ATOM      8  C   UNL     1       3.010  -2.772   1.365  0.00  0.00    +0.030 A 
ATOM      9  C   UNL     1       2.321  -2.555   0.179  0.00  0.00    +0.051 A 
ATOM     10  C   UNL     1       2.827  -1.673  -0.766  0.00  0.00    +0.030 A 
ATOM     11  C   UNL     1       4.009  -1.003  -0.521  0.00  0.00    +0.047 A 
BRANCH   6  12
ATOM     12  O   UNL     1       5.863  -0.564   0.902  0.00  0.00    -0.492 OA
BRANCH  12  14
ATOM     13  C   UNL     1       7.639   0.974   0.333  0.00  0.00    +0.048 C 
ATOM     14  C   UNL     1       6.322   0.334  -0.111  0.00  0.00    +0.225 C 
ENDBRANCH  12  14
ENDBRANCH   6  12
ENDBRANCH   1   9
BRANCH   2  15
ATOM     15  C   UNL     1      -0.505  -1.271   0.089  0.00  0.00    +0.038 A 
ATOM     16  C   UNL     1       0.391  -0.394   0.714  0.00  0.00    +0.014 A 
ATOM     17  C   UNL     1       0.009   0.925   0.880  0.00  0.00    +0.020 A 
ATOM     18  C   UNL     1      -1.233   1.333   0.427  0.00  0.00    +0.111 A 
ATOM     19  N   UNL     1      -2.057   0.485  -0.158  0.00  0.00    -0.263 NA
ATOM     20  C   UNL     1      -1.740  -0.781  -0.339  0.00  0.00    +0.122 A 
ENDBRANCH   2  15
BRANCH   5  21
ATOM     21  S   UNL     1       2.229  -5.783  -0.370  0.00  0.00    -0.078 S 
BRANCH  21  22
ATOM     22  C   UNL     1       1.243  -7.256  -0.736  0.00  0.00    +0.153 C 
BRANCH  22  23
ATOM     23  C   UNL     1       2.151  -8.456  -0.837  0.00  0.00    +0.146 A 
ATOM     24  N   UNL     1       2.671  -8.791  -2.005  0.00  0.00    -0.199 NA
ATOM     25  C   UNL     1       3.477  -9.846  -2.097  0.00  0.00    +0.217 A 
ATOM     26  N   UNL     1       3.749 -10.569  -1.016  0.00  0.00    -0.181 NA
ATOM     27  C   UNL     1       3.219 -10.232   0.154  0.00  0.00    +0.224 A 
ATOM     28  N   UNL     1       2.418  -9.172   0.240  0.00  0.00    -0.198 NA
ATOM     29  N   UNL     1       3.499 -10.980   1.281  0.00  0.00    -0.283 N 
ATOM     30  N   UNL     1       4.025 -10.192  -3.316  0.00  0.00    -0.327 N 
ATOM     31  H   UNL     1       3.188 -10.683   2.151  0.00  0.00    +0.155 HD
ATOM     32  H   UNL     1       4.610 -10.963  -3.383  0.00  0.00    +0.145 HD
ATOM     33  H   UNL     1       3.826  -9.664  -4.105  0.00  0.00    +0.145 HD
BRANCH  29  34
ATOM     34  C   UNL     1       4.231 -12.166   1.169  0.00  0.00    +0.036 A 
ATOM     35  C   UNL     1       4.192 -12.899  -0.010  0.00  0.00    +0.023 A 
ATOM     36  C   UNL     1       4.921 -14.067  -0.120  0.00  0.00    +0.002 A 
ATOM     37  C   UNL     1       5.680 -14.513   0.947  0.00  0.00    +0.000 A 
ATOM     38  C   UNL     1       5.717 -13.789   2.124  0.00  0.00    +0.005 A 
ATOM     39  C   UNL     1       4.995 -12.617   2.238  0.00  0.00    -0.029 A 
ATOM     40  C   UNL     1       5.035 -11.828   3.522  0.00  0.00    +0.045 C 
ENDBRANCH  29  34
ENDBRANCH  22  23
ENDBRANCH  21  22
ENDBRANCH   5  21
TORSDOF 8
