REMARK  Name = ZINC13321951
REMARK  6 active torsions:
REMARK  status: ('A' for Active; 'I' for Inactive)
REMARK    1  A    between atoms: C_9  and  O_33
REMARK    2  A    between atoms: C_10  and  C_11
REMARK    3  A    between atoms: N_13  and  N_14
REMARK    4  A    between atoms: C_15  and  C_16
REMARK    5  A    between atoms: N_18  and  C_25
REMARK    6  A    between atoms: C_25  and  C_26
REMARK                            x       y       z     vdW  Elec       q    Type
REMARK                         _______ _______ _______ _____ _____    ______ ____
ROOT
ATOM      1  N   UNL     1      -3.172   7.106  -1.098  0.00  0.00    -0.187 NA
ATOM      2  C   UNL     1      -3.743   7.440  -2.216  0.00  0.00    +0.140 C 
ENDROOT
BRANCH   2   3
ATOM      3  C   UNL     1      -5.013   8.184  -2.200  0.00  0.00    +0.020 A 
ATOM      4  C   UNL     1      -5.721   8.607  -3.282  0.00  0.00    +0.096 A 
ATOM      5  N   UNL     1      -6.845   9.259  -2.870  0.00  0.00    -0.342 N 
ATOM      6  C   UNL     1      -6.900   9.291  -1.493  0.00  0.00    +0.050 A 
ATOM      7  C   UNL     1      -5.762   8.624  -1.010  0.00  0.00    +0.009 A 
ATOM      8  C   UNL     1      -5.554   8.502   0.362  0.00  0.00    +0.010 A 
ATOM      9  C   UNL     1      -6.469   9.039   1.241  0.00  0.00    +0.001 A 
ATOM     10  C   UNL     1      -7.593   9.698   0.766  0.00  0.00    +0.002 A 
ATOM     11  C   UNL     1      -7.812   9.826  -0.589  0.00  0.00    +0.026 A 
BRANCH   5  12
ATOM     12  C   UNL     1      -7.847   9.847  -3.762  0.00  0.00    +0.157 C 
BRANCH  12  13
ATOM     13  C   UNL     1      -7.539  11.308  -3.970  0.00  0.00    -0.026 A 
ATOM     14  C   UNL     1      -8.082  12.256  -3.122  0.00  0.00    +0.005 A 
ATOM     15  C   UNL     1      -7.797  13.595  -3.309  0.00  0.00    +0.002 A 
ATOM     16  C   UNL     1      -6.977  13.989  -4.349  0.00  0.00    +0.020 A 
ATOM     17  C   UNL     1      -6.437  13.041  -5.201  0.00  0.00    +0.041 A 
ATOM     18  C   UNL     1      -6.719  11.700  -5.010  0.00  0.00    +0.025 A 
ATOM     19 CL   UNL     1      -5.408  13.535  -6.508  0.00  0.00    -0.084 Cl
ENDBRANCH  12  13
ENDBRANCH   5  12
ENDBRANCH   2   3
BRANCH   1  22
ATOM     20  C   UNL     1      -1.372   6.050   0.047  0.00  0.00    +0.267 C 
ATOM     21  O   UNL     1      -1.887   6.352   1.108  0.00  0.00    -0.268 OA
ATOM     22  N   UNL     1      -1.964   6.397  -1.113  0.00  0.00    -0.203 N 
ATOM     23  H   UNL     1      -1.553   6.156  -1.958  0.00  0.00    +0.178 HD
BRANCH  20  33
ATOM     24  C   UNL     1      -0.013   1.076   0.008  0.00  0.00    +0.001 A 
ATOM     25  C   UNL     1      -1.234   1.745   0.017  0.00  0.00    +0.001 A 
ATOM     26  C   UNL     1      -1.285   3.107   0.031  0.00  0.00    +0.009 A 
ATOM     27  C   UNL     1      -0.095   3.845   0.024  0.00  0.00    -0.002 A 
ATOM     28  C   UNL     1       1.148   3.167   0.008  0.00  0.00    -0.017 A 
ATOM     29  C   UNL     1       1.164   1.763   0.000  0.00  0.00    +0.008 A 
ATOM     30  C   UNL     1       2.343   3.910   0.000  0.00  0.00    +0.012 A 
ATOM     31  C   UNL     1       2.318   5.268   0.008  0.00  0.00    +0.047 A 
ATOM     32  C   UNL     1       1.118   5.981   0.023  0.00  0.00    +0.130 A 
ATOM     33  C   UNL     1      -0.104   5.307   0.032  0.00  0.00    +0.087 A 
BRANCH  32  34
ATOM     34  O   UNL     1       1.140   7.337   0.030  0.00  0.00    -0.506 OA
ATOM     35  H   UNL     1       1.155   7.725   0.916  0.00  0.00    +0.292 HD
ENDBRANCH  32  34
ENDBRANCH  20  33
ENDBRANCH   1  22
TORSDOF 6
