REMARK  Name = ZINC12981943
REMARK  6 active torsions:
REMARK  status: ('A' for Active; 'I' for Inactive)
REMARK    1  A    between atoms: C_1  and  C_2
REMARK    2  A    between atoms: C_2  and  C_4
REMARK    3  A    between atoms: C_2  and  N_57
REMARK    4  A    between atoms: N_6  and  C_7
REMARK    5  A    between atoms: C_8  and  C_15
REMARK    6  A    between atoms: C_21  and  C_24
REMARK                            x       y       z     vdW  Elec       q    Type
REMARK                         _______ _______ _______ _____ _____    ______ ____
ROOT
ATOM      1  C   UNL     1      -3.962   2.614  -7.126  0.00  0.00    -0.004 C 
ATOM      2  C   UNL     1      -2.712   3.438  -6.811  0.00  0.00    +0.016 C 
ENDROOT
BRANCH   2   8
ATOM      3  C   UNL     1      -1.454   1.865  -8.153  0.00  0.00    -0.078 C 
ATOM      4  C   UNL     1      -0.331   1.745  -9.186  0.00  0.00    -0.018 C 
ATOM      5  C   UNL     1      -0.760   2.440 -10.481  0.00  0.00    +0.006 C 
ATOM      6  C   UNL     1      -1.095   3.904 -10.179  0.00  0.00    +0.028 C 
ATOM      7  C   UNL     1      -2.196   3.961  -9.117  0.00  0.00    -0.068 C 
ATOM      8  N   UNL     1      -1.712   3.296  -7.888  0.00  0.00    +0.388 N 
ATOM      9  H   UNL     1      -0.836   3.743  -7.591  0.00  0.00    -0.081 HD
BRANCH   6  10
ATOM     10  C   UNL     1      -1.574   4.580 -11.438  0.00  0.00    +0.081 A 
ATOM     11  N   UNL     1      -1.060   5.611 -12.047  0.00  0.00    -0.244 NA
ATOM     12  C   UNL     1      -1.589   6.123 -13.178  0.00  0.00    +0.078 A 
ATOM     13  C   UNL     1      -1.151   7.224 -13.947  0.00  0.00    +0.029 A 
ATOM     14  C   UNL     1      -1.822   7.598 -15.070  0.00  0.00    +0.002 A 
ATOM     15  C   UNL     1      -2.953   6.918 -15.502  0.00  0.00    +0.001 A 
ATOM     16  C   UNL     1      -3.413   5.836 -14.777  0.00  0.00    +0.017 A 
ATOM     17  C   UNL     1      -2.743   5.451 -13.641  0.00  0.00    +0.039 A 
ATOM     18  S   UNL     1      -2.939   4.170 -12.429  0.00  0.00    -0.072 S 
ENDBRANCH   6  10
ENDBRANCH   2   8
BRANCH   2  19
ATOM     19  C   UNL     1      -2.105   2.956  -5.518  0.00  0.00    +0.204 C 
ATOM     20  O   UNL     1      -0.971   2.525  -5.505  0.00  0.00    -0.277 OA
ATOM     21  N   UNL     1      -2.822   3.003  -4.378  0.00  0.00    -0.281 N 
ATOM     22  H   UNL     1      -3.729   3.347  -4.389  0.00  0.00    +0.155 HD
BRANCH  21  23
ATOM     23  C   UNL     1      -2.263   2.559  -3.189  0.00  0.00    +0.084 A 
ATOM     24  C   UNL     1      -2.835   2.527  -1.929  0.00  0.00    +0.068 A 
ATOM     25  C   UNL     1      -2.024   2.005  -0.830  0.00  0.00    -0.023 A 
ATOM     26  C   UNL     1      -0.786   1.607  -1.173  0.00  0.00    -0.004 A 
ATOM     27  S   UNL     1      -0.682   1.909  -2.921  0.00  0.00    -0.077 S 
ATOM     28  C   UNL     1      -0.013   1.086   0.008  0.00  0.00    +0.043 C 
ATOM     29  C   UNL     1      -0.783   1.607   1.241  0.00  0.00    +0.010 C 
ATOM     30  C   UNL     1      -2.209   1.773   0.670  0.00  0.00    +0.037 C 
BRANCH  24  31
ATOM     31  C   UNL     1      -4.204   3.001  -1.704  0.00  0.00    +0.244 C 
ATOM     32  O   UNL     1      -4.405   4.168  -1.420  0.00  0.00    -0.270 OA
ATOM     33  N   UNL     1      -5.240   2.146  -1.811  0.00  0.00    -0.325 N 
ATOM     34  H   UNL     1      -5.080   1.216  -2.037  0.00  0.00    +0.145 HD
ATOM     35  H   UNL     1      -6.146   2.459  -1.662  0.00  0.00    +0.145 HD
ENDBRANCH  24  31
ENDBRANCH  21  23
ENDBRANCH   2  19
TORSDOF 5
