REMARK  Name = ZINC48768332
REMARK  9 active torsions:
REMARK  status: ('A' for Active; 'I' for Inactive)
REMARK    1  A    between atoms: C_1  and  N_2
REMARK    2  A    between atoms: C_3  and  C_5
REMARK    3  A    between atoms: C_5  and  C_6
REMARK    4  A    between atoms: C_11  and  N_12
REMARK    5  A    between atoms: C_13  and  C_15
REMARK    6  A    between atoms: N_17  and  C_18
REMARK    7  A    between atoms: C_18  and  C_19
REMARK    8  A    between atoms: C_19  and  C_21
REMARK    9  A    between atoms: C_19  and  N_26
REMARK                            x       y       z     vdW  Elec       q    Type
REMARK                         _______ _______ _______ _____ _____    ______ ____
ROOT
ATOM      1  C   UNL     1      -2.538  -2.648  -4.863  0.00  0.00    +0.299 C 
ATOM      2  O   UNL     1      -1.419  -2.177  -4.863  0.00  0.00    -0.265 OA
ATOM      3  N   UNL     1      -3.191  -2.831  -6.028  0.00  0.00    -0.309 N 
ATOM      4  H   UNL     1      -4.085  -3.208  -6.028  0.00  0.00    +0.149 HD
ENDROOT
BRANCH   1   6
ATOM      5  N   UNL     1      -2.536  -2.841  -2.409  0.00  0.00    -0.277 N 
ATOM      6  C   UNL     1      -3.190  -3.024  -3.574  0.00  0.00    +0.303 C 
ATOM      7  O   UNL     1      -4.308  -3.495  -3.574  0.00  0.00    -0.265 OA
ATOM      8  H   UNL     1      -1.673  -2.400  -2.402  0.00  0.00    +0.155 HD
BRANCH   5  14
ATOM      9  C   UNL     1      -2.291  -3.772  -0.196  0.00  0.00    -0.017 A 
ATOM     10  C   UNL     1      -2.854  -4.206   0.989  0.00  0.00    +0.006 A 
ATOM     11  C   UNL     1      -4.226  -4.163   1.160  0.00  0.00    +0.000 A 
ATOM     12  C   UNL     1      -5.038  -3.686   0.147  0.00  0.00    +0.002 A 
ATOM     13  C   UNL     1      -4.481  -3.251  -1.039  0.00  0.00    +0.023 A 
ATOM     14  C   UNL     1      -3.103  -3.286  -1.212  0.00  0.00    +0.037 A 
BRANCH   9  15
ATOM     15  C   UNL     1      -0.796  -3.819  -0.382  0.00  0.00    +0.132 C 
BRANCH  15  18
ATOM     16  C   UNL     1       1.705  -0.988   0.240  0.00  0.00    +0.128 C 
ATOM     17  N   UNL     1       1.128  -2.288  -0.111  0.00  0.00    -0.318 N 
ATOM     18  C   UNL     1      -0.203  -2.482  -0.020  0.00  0.00    +0.217 C 
ATOM     19  O   UNL     1      -0.922  -1.579   0.351  0.00  0.00    -0.275 OA
ATOM     20  H   UNL     1       1.704  -3.010  -0.408  0.00  0.00    +0.148 HD
ENDBRANCH  15  18
ENDBRANCH   9  15
ENDBRANCH   5  14
ENDBRANCH   1   6
BRANCH   3  21
ATOM     21  C   UNL     1      -2.551  -2.462  -7.293  0.00  0.00    +0.097 C 
BRANCH  21  22
ATOM     22  C   UNL     1      -3.543  -2.655  -8.441  0.00  0.00    +0.016 C 
BRANCH  22  23
ATOM     23  N   UNL     1      -2.946  -2.167  -9.692  0.00  0.00    +0.387 N 
ATOM     24  C   UNL     1      -3.956  -2.178 -10.781  0.00  0.00    -0.078 C 
ATOM     25  C   UNL     1      -3.388  -1.160 -11.801  0.00  0.00    -0.020 C 
ATOM     26  C   UNL     1      -2.780  -0.065 -10.895  0.00  0.00    -0.020 C 
ATOM     27  C   UNL     1      -2.530  -0.756  -9.542  0.00  0.00    -0.078 C 
ATOM     28  H   UNL     1      -2.153  -2.738  -9.945  0.00  0.00    -0.081 HD
ENDBRANCH  22  23
BRANCH  22  29
ATOM     29  C   UNL     1      -3.873  -4.119  -8.580  0.00  0.00    +0.093 A 
ATOM     30  C   UNL     1      -4.981  -4.723  -8.115  0.00  0.00    +0.043 A 
ATOM     31  C   UNL     1      -4.880  -6.089  -8.464  0.00  0.00    +0.041 A 
ATOM     32  C   UNL     1      -3.716  -6.238  -9.121  0.00  0.00    +0.195 A 
ATOM     33  O   UNL     1      -3.113  -5.041  -9.194  0.00  0.00    -0.469 OA
ENDBRANCH  22  29
ENDBRANCH  21  22
ENDBRANCH   3  21
TORSDOF 8
