REMARK  Name = ZINC00453311
REMARK  4 active torsions:
REMARK  status: ('A' for Active; 'I' for Inactive)
REMARK    1  A    between atoms: C_1  and  C_2
REMARK    2  A    between atoms: C_5  and  S_8
REMARK    3  A    between atoms: S_8  and  N_11
REMARK    4  A    between atoms: C_17  and  C_19
REMARK                            x       y       z     vdW  Elec       q    Type
REMARK                         _______ _______ _______ _____ _____    ______ ____
ROOT
ATOM      1  S   UNL     1      -0.387   0.674   2.545  0.00  0.00    +0.061 S 
ATOM      2  O   UNL     1      -1.325   1.326   3.391  0.00  0.00    -0.153 OA
ATOM      3  O   UNL     1      -0.630  -0.610   1.986  0.00  0.00    -0.153 OA
ENDROOT
BRANCH   1   4
ATOM      4  N   UNL     1      -0.105   1.697   1.274  0.00  0.00    -0.174 NA
ATOM      5  C   UNL     1       0.375   1.176  -0.014  0.00  0.00    +0.128 C 
ATOM      6  C   UNL     1      -0.586   1.630  -1.119  0.00  0.00    +0.125 C 
ATOM      7  N   UNL     1      -0.812   3.076  -0.981  0.00  0.00    -0.299 N 
ATOM      8  C   UNL     1      -1.297   3.596   0.306  0.00  0.00    +0.125 C 
ATOM      9  C   UNL     1      -0.336   3.143   1.411  0.00  0.00    +0.128 C 
ATOM     10  C   UNL     1      -0.580   3.909  -2.014  0.00  0.00    +0.213 C 
ATOM     11  O   UNL     1      -0.091   3.482  -3.039  0.00  0.00    -0.276 OA
ATOM     12  C   UNL     1      -0.926   5.371  -1.896  0.00  0.00    +0.109 C 
ENDBRANCH   1   4
BRANCH   1  17
ATOM     13  C   UNL     1       4.756   0.251   5.671  0.00  0.00    +0.044 C 
ATOM     14  C   UNL     1       3.471   0.356   4.890  0.00  0.00    -0.050 A 
ATOM     15  C   UNL     1       2.548   1.335   5.207  0.00  0.00    +0.005 A 
ATOM     16  C   UNL     1       1.370   1.432   4.491  0.00  0.00    +0.029 A 
ATOM     17  C   UNL     1       1.115   0.550   3.458  0.00  0.00    +0.105 A 
ATOM     18  C   UNL     1       2.035  -0.432   3.144  0.00  0.00    +0.029 A 
ATOM     19  C   UNL     1       3.216  -0.526   3.857  0.00  0.00    +0.005 A 
ENDBRANCH   1  17
TORSDOF 2
