REMARK  Name = ZINC33692604
REMARK  10 active torsions:
REMARK  status: ('A' for Active; 'I' for Inactive)
REMARK    1  A    between atoms: C_1  and  C_2
REMARK    2  A    between atoms: N_8  and  C_9
REMARK    3  A    between atoms: C_9  and  C_10
REMARK    4  A    between atoms: C_10  and  C_11
REMARK    5  A    between atoms: C_11  and  N_12
REMARK    6  A    between atoms: C_18  and  C_25
REMARK    7  A    between atoms: N_23  and  C_24
REMARK    8  A    between atoms: C_29  and  O_31
REMARK    9  A    between atoms: O_31  and  C_32
REMARK   10  A    between atoms: C_32  and  C_33
REMARK                            x       y       z     vdW  Elec       q    Type
REMARK                         _______ _______ _______ _____ _____    ______ ____
ROOT
ATOM      1  N   UNL     1      -2.215   2.240   3.672  0.00  0.00    -0.292 N 
ATOM      2  C   UNL     1      -2.237   3.661   3.295  0.00  0.00    +0.159 C 
ATOM      3  C   UNL     1      -1.887   3.678   1.824  0.00  0.00    +0.042 C 
ATOM      4  C   UNL     1      -1.700   2.393   1.463  0.00  0.00    +0.058 C 
ATOM      5  C   UNL     1      -1.896   1.539   2.568  0.00  0.00    +0.247 C 
ATOM      6  O   UNL     1      -1.791   0.327   2.529  0.00  0.00    -0.270 OA
ATOM      7  C   UNL     1      -1.332   2.112   0.020  0.00  0.00    +0.142 C 
ATOM      8  N   UNL     1      -1.209   3.275  -0.875  0.00  0.00    -0.288 N 
ATOM      9  C   UNL     1      -1.428   4.504  -0.365  0.00  0.00    +0.307 C 
ATOM     10  O   UNL     1      -1.329   5.470  -1.096  0.00  0.00    -0.252 OA
ATOM     11  N   UNL     1      -1.751   4.694   0.921  0.00  0.00    -0.260 N 
ATOM     12  C   UNL     1      -1.969   6.066   1.384  0.00  0.00    +0.139 C 
ATOM     13  H   UNL     1      -0.945   3.130  -1.933  0.00  0.00    +0.151 HD
ENDROOT
BRANCH   7  14
ATOM     14  C   UNL     1      -0.017   1.377   0.010  0.00  0.00    -0.019 A 
ATOM     15  C   UNL     1       1.171   2.086   0.002  0.00  0.00    +0.006 A 
ATOM     16  C   UNL     1       2.379   1.415  -0.013  0.00  0.00    +0.004 A 
ATOM     17  C   UNL     1       2.403   0.033  -0.021  0.00  0.00    +0.045 A 
ATOM     18  C   UNL     1       1.214  -0.680  -0.013  0.00  0.00    +0.121 A 
ATOM     19  C   UNL     1       0.002  -0.004   0.002  0.00  0.00    +0.051 A 
BRANCH  18  20
ATOM     20  O   UNL     1       1.235  -2.039  -0.020  0.00  0.00    -0.487 OA
BRANCH  20  21
ATOM     21  C   UNL     1       2.518  -2.668  -0.036  0.00  0.00    +0.264 C 
BRANCH  21  22
ATOM     22  C   UNL     1       2.344  -4.165  -0.042  0.00  0.00    -0.010 A 
ATOM     23  C   UNL     1       2.281  -4.858   1.153  0.00  0.00    +0.007 A 
ATOM     24  C   UNL     1       2.117  -6.231   1.147  0.00  0.00    +0.000 A 
ATOM     25  C   UNL     1       2.024  -6.911  -0.052  0.00  0.00    +0.000 A 
ATOM     26  C   UNL     1       2.092  -6.218  -1.247  0.00  0.00    +0.000 A 
ATOM     27  C   UNL     1       2.252  -4.845  -1.241  0.00  0.00    +0.007 A 
ENDBRANCH  21  22
ENDBRANCH  20  21
ENDBRANCH  18  20
ENDBRANCH   7  14
BRANCH   1  28
ATOM     28  C   UNL     1      -2.489   1.689   5.001  0.00  0.00    +0.106 C 
BRANCH  28  29
ATOM     29  C   UNL     1      -3.983   1.387   5.130  0.00  0.00    +0.000 C 
BRANCH  29  30
ATOM     30  C   UNL     1      -4.270   0.812   6.519  0.00  0.00    -0.077 C 
BRANCH  30  37
ATOM     31  C   UNL     1      -6.029   2.840   7.361  0.00  0.00    -0.013 C 
ATOM     32  C   UNL     1      -6.507   1.732   6.420  0.00  0.00    -0.072 C 
ATOM     33  C   UNL     1      -7.980   1.427   6.699  0.00  0.00    -0.016 C 
ATOM     34  C   UNL     1      -8.448   0.303   5.770  0.00  0.00    -0.003 C 
ATOM     35  C   UNL     1      -7.566  -0.929   5.987  0.00  0.00    -0.019 C 
ATOM     36  C   UNL     1      -6.104  -0.556   5.729  0.00  0.00    -0.078 C 
ATOM     37  N   UNL     1      -5.704   0.522   6.643  0.00  0.00    +0.381 N 
ATOM     38  H   UNL     1      -5.894   0.178   7.670  0.00  0.00    -0.081 HD
ENDBRANCH  30  37
ENDBRANCH  29  30
ENDBRANCH  28  29
ENDBRANCH   1  28
TORSDOF 8
