REMARK  Name = ZINC01474490
REMARK  11 active torsions:
REMARK  status: ('A' for Active; 'I' for Inactive)
REMARK    1  A    between atoms: C_1  and  C_2
REMARK    2  A    between atoms: C_5  and  N_8
REMARK    3  A    between atoms: C_9  and  C_27
REMARK    4  A    between atoms: C_12  and  S_13
REMARK    5  A    between atoms: S_13  and  C_14
REMARK    6  A    between atoms: C_14  and  C_15
REMARK    7  A    between atoms: N_17  and  N_18
REMARK    8  A    between atoms: C_19  and  C_20
REMARK    9  A    between atoms: C_24  and  O_26
REMARK   10  A    between atoms: C_30  and  O_33
REMARK   11  A    between atoms: O_33  and  C_34
REMARK                            x       y       z     vdW  Elec       q    Type
REMARK                         _______ _______ _______ _____ _____    ______ ____
ROOT
ATOM      1  N   UNL     1       1.286   1.732  -0.001  0.00  0.00    -0.270 N 
ATOM      2  C   UNL     1       2.048   0.584  -0.014  0.00  0.00    +0.169 A 
ATOM      3  N   UNL     1       1.214  -0.430  -0.012  0.00  0.00    -0.128 NA
ATOM      4  N   UNL     1       0.002  -0.004   0.002  0.00  0.00    -0.122 NA
ATOM      5  C   UNL     1      -0.016   1.310   0.009  0.00  0.00    +0.197 A 
ENDROOT
BRANCH   1  10
ATOM      6  C   UNL     1       3.156   7.091   0.009  0.00  0.00    +0.044 C 
ATOM      7  C   UNL     1       2.659   5.668   0.006  0.00  0.00    -0.050 A 
ATOM      8  C   UNL     1       1.964   5.178   1.096  0.00  0.00    +0.005 A 
ATOM      9  C   UNL     1       1.508   3.874   1.097  0.00  0.00    +0.026 A 
ATOM     10  C   UNL     1       1.748   3.056   0.001  0.00  0.00    +0.051 A 
ATOM     11  C   UNL     1       2.450   3.549  -1.090  0.00  0.00    +0.026 A 
ATOM     12  C   UNL     1       2.899   4.856  -1.087  0.00  0.00    +0.005 A 
ENDBRANCH   1  10
BRANCH   2  13
ATOM     13  C   UNL     1       3.523   0.509  -0.028  0.00  0.00    +0.020 A 
ATOM     14  C   UNL     1       4.285   1.638   0.278  0.00  0.00    +0.015 A 
ATOM     15  C   UNL     1       5.661   1.563   0.268  0.00  0.00    +0.046 A 
ATOM     16  C   UNL     1       6.291   0.368  -0.056  0.00  0.00    +0.120 A 
ATOM     17  C   UNL     1       5.537  -0.756  -0.366  0.00  0.00    +0.046 A 
ATOM     18  C   UNL     1       4.160  -0.690  -0.354  0.00  0.00    +0.015 A 
BRANCH  16  19
ATOM     19  O   UNL     1       7.648   0.299  -0.070  0.00  0.00    -0.495 OA
ATOM     20  C   UNL     1       8.361   1.492   0.260  0.00  0.00    +0.277 C 
ENDBRANCH  16  19
ENDBRANCH   2  13
BRANCH   5  21
ATOM     21  S   UNL     1      -1.448   2.336   0.022  0.00  0.00    -0.076 S 
BRANCH  21  22
ATOM     22  C   UNL     1      -2.742   1.070   0.022  0.00  0.00    +0.174 C 
BRANCH  22  23
ATOM     23  C   UNL     1      -4.094   1.734   0.033  0.00  0.00    +0.242 C 
ATOM     24  O   UNL     1      -4.176   2.944   0.039  0.00  0.00    -0.273 OA
ATOM     25  N   UNL     1      -5.214   0.983   0.035  0.00  0.00    -0.206 N 
ATOM     26  H   UNL     1      -5.149   0.015   0.029  0.00  0.00    +0.177 HD
BRANCH  25  27
ATOM     27  N   UNL     1      -6.471   1.601   0.044  0.00  0.00    -0.188 NA
ATOM     28  C   UNL     1      -7.549   0.878   0.046  0.00  0.00    +0.138 C 
BRANCH  28  29
ATOM     29  C   UNL     1      -8.873   1.528   0.057  0.00  0.00    -0.002 A 
ATOM     30  C   UNL     1      -8.970   2.922   0.064  0.00  0.00    +0.010 A 
ATOM     31  C   UNL     1     -10.210   3.526   0.073  0.00  0.00    +0.004 A 
ATOM     32  C   UNL     1     -11.359   2.756   0.074  0.00  0.00    +0.045 A 
ATOM     33  C   UNL     1     -11.273   1.371   0.067  0.00  0.00    +0.117 A 
ATOM     34  C   UNL     1     -10.034   0.753   0.053  0.00  0.00    +0.054 A 
BRANCH  33  35
ATOM     35  O   UNL     1     -12.406   0.620   0.068  0.00  0.00    -0.507 OA
ATOM     36  H   UNL     1     -12.737   0.407  -0.816  0.00  0.00    +0.292 HD
ENDBRANCH  33  35
ENDBRANCH  28  29
ENDBRANCH  25  27
ENDBRANCH  22  23
ENDBRANCH  21  22
ENDBRANCH   5  21
TORSDOF 9
