REMARK  Name = ZINC01868876
REMARK  3 active torsions:
REMARK  status: ('A' for Active; 'I' for Inactive)
REMARK    1  A    between atoms: C_4  and  C_10
REMARK    2  A    between atoms: C_6  and  N_7
REMARK    3  A    between atoms: CA_19  and  C_21
REMARK                            x       y       z     vdW  Elec       q    Type
REMARK                         _______ _______ _______ _____ _____    ______ ____
ROOT
ATOM      1  C   UNL     1      -4.994   1.126   0.031  0.00  0.00    +0.016 C 
ATOM      2  C   UNL     1      -5.486   0.956  -1.384  0.00  0.00    +0.052 A 
ATOM      3  C   UNL     1      -5.978  -0.210  -1.863  0.00  0.00    +0.036 A 
ATOM      4  N   UNL     1      -6.317   0.002  -3.162  0.00  0.00    -0.348 N 
ATOM      5  H   UNL     1      -6.708  -0.669  -3.791  0.00  0.00    +0.166 HD
ATOM      6  C   UNL     1      -6.025   1.294  -3.441  0.00  0.00    +0.196 A 
ATOM      7  N   UNL     1      -5.528   1.855  -2.368  0.00  0.00    -0.242 NA
ATOM      8  C   UNL     1      -6.093  -1.465  -1.038  0.00  0.00    +0.050 C 
ATOM      9  CA  UNL     1      -5.951  -1.072   0.439  0.00  0.00    +0.051 C 
ATOM     10  N   UNL     1      -4.761  -0.214   0.615  0.00  0.00    +0.397 N 
ATOM     11  H1  UNL     1      -4.560  -0.116   1.617  0.00  0.00    -0.083 HD
ATOM     12  H2  UNL     1      -3.958  -0.651   0.147  0.00  0.00    -0.083 HD
ENDROOT
BRANCH   1  16
ATOM     13  C   UNL     1      -1.323   3.319   0.032  0.00  0.00    +0.036 A 
ATOM     14  C   UNL     1      -2.528   3.995   0.036  0.00  0.00    +0.053 A 
ATOM     15  C   UNL     1      -3.720   3.287   0.038  0.00  0.00    +0.181 A 
ATOM     16  C   UNL     1      -3.700   1.899   0.030  0.00  0.00    -0.007 A 
ATOM     17  C   UNL     1      -2.494   1.228   0.021  0.00  0.00    +0.038 A 
ATOM     18  C   UNL     1      -1.306   1.936   0.019  0.00  0.00    +0.127 A 
ATOM     19  O   UNL     1      -4.906   3.950   0.046  0.00  0.00    -0.288 OA
BRANCH  18  20
ATOM     20  N   UNL     1      -0.014   1.214   0.009  0.00  0.00    +0.056 N 
ATOM     21  O   UNL     1       0.002  -0.004   0.002  0.00  0.00    -0.126 OA
ATOM     22  O   UNL     1       1.032   1.837   0.002  0.00  0.00    -0.126 OA
ENDBRANCH  18  20
ENDBRANCH   1  16
BRANCH   9  23
ATOM     23  C   UNL     1      -5.788  -2.315   1.276  0.00  0.00    +0.343 C 
ATOM     24  O   UNL     1      -4.690  -2.652   1.650  0.00  0.00    -0.248 OA
ATOM     25  OXT UNL     1      -6.864  -3.047   1.607  0.00  0.00    -0.248 OA
ENDBRANCH   9  23
TORSDOF 3
