REMARK  Name = ZINC67438698
REMARK  3 active torsions:
REMARK  status: ('A' for Active; 'I' for Inactive)
REMARK    1  A    between atoms: C_1  and  C_2
REMARK    2  A    between atoms: C_4  and  C_28
REMARK    3  A    between atoms: C_6  and  C_8
REMARK                            x       y       z     vdW  Elec       q    Type
REMARK                         _______ _______ _______ _____ _____    ______ ____
ROOT
ATOM      1  C   UNL     1       0.054  -2.844   2.489  0.00  0.00    +0.209 C 
ATOM      2  N   UNL     1      -0.826  -2.179   3.468  0.00  0.00    -0.294 N 
ATOM      3  C   UNL     1      -0.324  -1.080   4.150  0.00  0.00    +0.159 C 
ATOM      4  N   UNL     1       0.909  -1.250   4.782  0.00  0.00    -0.259 N 
ATOM      5  C   UNL     1       1.801  -2.091   4.118  0.00  0.00    +0.205 A 
ATOM      6  N   UNL     1       1.412  -2.854   3.042  0.00  0.00    -0.288 N 
ATOM      7  C   UNL     1       2.511  -3.573   2.624  0.00  0.00    +0.076 A 
ATOM      8  C   UNL     1       2.734  -4.498   1.613  0.00  0.00    +0.077 A 
ATOM      9  C   UNL     1       3.991  -5.048   1.451  0.00  0.00    +0.164 A 
ATOM     10  C   UNL     1       5.036  -4.683   2.296  0.00  0.00    +0.164 A 
ATOM     11  C   UNL     1       4.829  -3.769   3.308  0.00  0.00    +0.079 A 
ATOM     12  C   UNL     1       3.562  -3.204   3.483  0.00  0.00    +0.095 A 
ATOM     13  N   UNL     1       3.059  -2.297   4.372  0.00  0.00    -0.214 NA
ATOM     14  O   UNL     1       6.272  -5.234   2.116  0.00  0.00    -0.488 OA
ATOM     15  C   UNL     1       6.384  -6.628   2.410  0.00  0.00    +0.232 C 
ATOM     16  C   UNL     1       5.960  -7.467   1.215  0.00  0.00    +0.082 C 
ATOM     17  C   UNL     1       4.487  -7.293   0.879  0.00  0.00    +0.232 C 
ATOM     18  O   UNL     1       4.218  -5.955   0.456  0.00  0.00    -0.488 OA
ATOM     19  N   UNL     1      -0.968   0.051   4.197  0.00  0.00    -0.375 N 
ATOM     20  H   UNL     1      -1.728  -2.499   3.630  0.00  0.00    +0.151 HD
ATOM     21  H   UNL     1      -1.823   0.141   3.748  0.00  0.00    +0.158 HD
ATOM     22  H   UNL     1       1.129  -0.815   5.620  0.00  0.00    +0.158 HD
ATOM     23  H   UNL     1      -0.593   0.803   4.681  0.00  0.00    +0.158 HD
ENDROOT
BRANCH   1  29
ATOM     24  C   UNL     1      -0.018   1.503   0.010  0.00  0.00    +0.044 C 
ATOM     25  C   UNL     1       0.002  -0.004   0.002  0.00  0.00    -0.050 A 
ATOM     26  C   UNL     1       0.006  -0.689  -1.199  0.00  0.00    +0.006 A 
ATOM     27  C   UNL     1       0.025  -2.071  -1.206  0.00  0.00    -0.050 A 
ATOM     28  C   UNL     1       0.040  -2.768  -0.013  0.00  0.00    +0.010 A 
ATOM     29  C   UNL     1       0.037  -2.084   1.188  0.00  0.00    -0.006 A 
ATOM     30  C   UNL     1       0.023  -0.702   1.195  0.00  0.00    +0.010 A 
ATOM     31  C   UNL     1       0.027  -2.817  -2.516  0.00  0.00    +0.044 C 
ENDBRANCH   1  29
TORSDOF 1
