REMARK  Name = ZINC36485422
REMARK  13 active torsions:
REMARK  status: ('A' for Active; 'I' for Inactive)
REMARK    1  A    between atoms: C_1  and  C_2
REMARK    2  A    between atoms: C_2  and  C_3
REMARK    3  A    between atoms: C_3  and  C_4
REMARK    4  A    between atoms: C_4  and  N_5
REMARK    5  A    between atoms: C_6  and  C_8
REMARK    6  A    between atoms: C_8  and  C_10
REMARK    7  A    between atoms: C_8  and  N_19
REMARK    8  A    between atoms: N_19  and  C_20
REMARK    9  A    between atoms: C_27  and  C_29
REMARK   10  A    between atoms: C_29  and  C_30
REMARK   11  A    between atoms: C_30  and  C_31
REMARK   12  A    between atoms: C_34  and  O_37
REMARK   13  A    between atoms: O_37  and  C_38
REMARK                            x       y       z     vdW  Elec       q    Type
REMARK                         _______ _______ _______ _____ _____    ______ ____
ROOT
ATOM      1  N   UNL     1       2.324  -5.653  -4.495  0.00  0.00    -0.255 N 
ATOM      2  C   UNL     1       3.568  -6.168  -4.530  0.00  0.00    +0.221 C 
ATOM      3  O   UNL     1       4.510  -5.505  -4.150  0.00  0.00    -0.275 OA
ENDROOT
BRANCH   1   4
ATOM      4  C   UNL     1       1.250  -6.379  -5.022  0.00  0.00    +0.039 A 
ATOM      5  C   UNL     1       0.630  -5.955  -6.190  0.00  0.00    +0.023 A 
ATOM      6  C   UNL     1      -0.429  -6.673  -6.708  0.00  0.00    +0.003 A 
ATOM      7  C   UNL     1      -0.873  -7.815  -6.066  0.00  0.00    +0.020 A 
ATOM      8  C   UNL     1      -0.258  -8.240  -4.902  0.00  0.00    +0.043 A 
ATOM      9  C   UNL     1       0.807  -7.529  -4.382  0.00  0.00    +0.043 A 
ATOM     10 CL   UNL     1      -0.819  -9.673  -4.098  0.00  0.00    -0.083 Cl
ENDBRANCH   1   4
BRANCH   1  11
ATOM     11  C   UNL     1       2.094  -4.332  -3.904  0.00  0.00    +0.197 C 
BRANCH  11  12
ATOM     12  C   UNL     1       0.655  -3.933  -4.108  0.00  0.00    -0.014 A 
ATOM     13  C   UNL     1      -0.359  -4.742  -3.630  0.00  0.00    +0.010 A 
ATOM     14  C   UNL     1      -1.680  -4.381  -3.814  0.00  0.00    +0.050 A 
ATOM     15  C   UNL     1      -1.992  -3.206  -4.480  0.00  0.00    +0.166 A 
ATOM     16  C   UNL     1      -0.970  -2.391  -4.961  0.00  0.00    +0.167 A 
ATOM     17  C   UNL     1       0.352  -2.757  -4.768  0.00  0.00    +0.055 A 
ATOM     18  O   UNL     1      -1.529  -1.305  -5.571  0.00  0.00    -0.453 OA
ATOM     19  C   UNL     1      -2.901  -1.667  -5.817  0.00  0.00    +0.466 C 
ATOM     20  O   UNL     1      -3.191  -2.631  -4.788  0.00  0.00    -0.453 OA
ENDBRANCH  11  12
BRANCH  11  22
ATOM     21  N   UNL     1       2.256  -3.273  -1.674  0.00  0.00    -0.313 N 
ATOM     22  C   UNL     1       2.397  -4.381  -2.429  0.00  0.00    +0.238 C 
ATOM     23  O   UNL     1       2.769  -5.418  -1.921  0.00  0.00    -0.273 OA
ATOM     24  H   UNL     1       1.960  -2.444  -2.081  0.00  0.00    +0.149 HD
BRANCH  21  25
ATOM     25  C   UNL     1       2.551  -3.322  -0.240  0.00  0.00    +0.104 C 
BRANCH  25  26
ATOM     26  C   UNL     1       2.312  -1.942   0.376  0.00  0.00    +0.018 C 
BRANCH  26  28
ATOM     27  C   UNL     1       2.380  -0.613   2.491  0.00  0.00    +0.004 C 
ATOM     28  C   UNL     1       2.620  -1.992   1.874  0.00  0.00    -0.002 C 
ENDBRANCH  26  28
ENDBRANCH  25  26
ENDBRANCH  21  25
ENDBRANCH  11  22
ENDBRANCH   1  11
BRANCH   2  29
ATOM     29  C   UNL     1       3.790  -7.568  -5.041  0.00  0.00    +0.101 C 
BRANCH  29  30
ATOM     30  C   UNL     1       5.265  -7.942  -4.883  0.00  0.00    +0.044 C 
BRANCH  30  31
ATOM     31  C   UNL     1       5.486  -9.342  -5.394  0.00  0.00    -0.047 A 
ATOM     32  C   UNL     1       5.355 -10.419  -4.537  0.00  0.00    +0.007 A 
ATOM     33  C   UNL     1       5.558 -11.703  -5.003  0.00  0.00    +0.046 A 
ATOM     34  C   UNL     1       5.893 -11.912  -6.332  0.00  0.00    +0.120 A 
ATOM     35  C   UNL     1       6.024 -10.830  -7.191  0.00  0.00    +0.046 A 
ATOM     36  C   UNL     1       5.815  -9.548  -6.721  0.00  0.00    +0.007 A 
BRANCH  34  37
ATOM     37  O   UNL     1       6.094 -13.175  -6.793  0.00  0.00    -0.495 OA
ATOM     38  C   UNL     1       6.437 -13.315  -8.173  0.00  0.00    +0.277 C 
ENDBRANCH  34  37
ENDBRANCH  30  31
ENDBRANCH  29  30
ENDBRANCH   2  29
TORSDOF 11
