REMARK  Name = ZINC16606219
REMARK  14 active torsions:
REMARK  status: ('A' for Active; 'I' for Inactive)
REMARK    1  A    between atoms: C_1  and  C_2
REMARK    2  A    between atoms: C_2  and  N_64
REMARK    3  A    between atoms: C_3  and  C_4
REMARK    4  A    between atoms: C_3  and  N_64
REMARK    5  A    between atoms: C_5  and  C_6
REMARK    6  A    between atoms: C_5  and  N_64
REMARK    7  A    between atoms: C_6  and  C_7
REMARK    8  A    between atoms: C_7  and  C_8
REMARK    9  A    between atoms: C_8  and  C_10
REMARK   10  A    between atoms: C_8  and  N_11
REMARK   11  A    between atoms: C_12  and  C_14
REMARK   12  A    between atoms: C_16  and  C_26
REMARK   13  A    between atoms: N_18  and  C_19
REMARK   14  A    between atoms: C_29  and  N_32
REMARK                            x       y       z     vdW  Elec       q    Type
REMARK                         _______ _______ _______ _____ _____    ______ ____
ROOT
ATOM      1  C   UNL     1      -4.663   1.857   2.241  0.00  0.00    +0.130 A 
ATOM      2  C   UNL     1      -3.771   1.413   1.283  0.00  0.00    +0.063 A 
ATOM      3  C   UNL     1      -4.295   0.190   0.826  0.00  0.00    +0.094 A 
ATOM      4  N   UNL     1      -5.408  -0.040   1.491  0.00  0.00    -0.166 NA
ATOM      5  N   UNL     1      -5.647   0.908   2.323  0.00  0.00    -0.227 N 
ENDROOT
BRANCH   5   6
ATOM      6  C   UNL     1      -6.752   0.967   3.180  0.00  0.00    +0.068 A 
ATOM      7  C   UNL     1      -7.479   2.144   3.300  0.00  0.00    +0.028 A 
ATOM      8  C   UNL     1      -8.565   2.201   4.150  0.00  0.00    +0.003 A 
ATOM      9  C   UNL     1      -8.933   1.085   4.879  0.00  0.00    +0.020 A 
ATOM     10  C   UNL     1      -8.215  -0.091   4.760  0.00  0.00    +0.043 A 
ATOM     11  C   UNL     1      -7.126  -0.154   3.910  0.00  0.00    +0.047 A 
ATOM     12 CL   UNL     1      -8.680  -1.489   5.678  0.00  0.00    -0.083 Cl
ENDBRANCH   5   6
BRANCH   3  13
ATOM     13  C   UNL     1      -3.700  -0.683  -0.216  0.00  0.00    +0.002 A 
ATOM     14  C   UNL     1      -2.513  -0.312  -0.845  0.00  0.00    +0.012 A 
ATOM     15  C   UNL     1      -1.961  -1.131  -1.810  0.00  0.00    +0.033 A 
ATOM     16  C   UNL     1      -2.590  -2.312  -2.160  0.00  0.00    +0.126 A 
ATOM     17  C   UNL     1      -3.771  -2.682  -1.543  0.00  0.00    +0.033 A 
ATOM     18  C   UNL     1      -4.329  -1.874  -0.573  0.00  0.00    +0.012 A 
BRANCH  16  19
ATOM     19  N   UNL     1      -1.996  -3.183  -3.200  0.00  0.00    +0.056 N 
ATOM     20  O   UNL     1      -2.548  -4.224  -3.510  0.00  0.00    -0.126 OA
ATOM     21  O   UNL     1      -0.956  -2.860  -3.744  0.00  0.00    -0.126 OA
ENDBRANCH  16  19
ENDBRANCH   3  13
BRANCH   1  23
ATOM     22  N   UNL     1      -3.604   3.998   2.748  0.00  0.00    -0.308 N 
ATOM     23  C   UNL     1      -4.572   3.101   3.021  0.00  0.00    +0.263 C 
ATOM     24  O   UNL     1      -5.370   3.319   3.913  0.00  0.00    -0.269 OA
ATOM     25  H   UNL     1      -3.016   3.861   1.989  0.00  0.00    +0.149 HD
BRANCH  22  26
ATOM     26  C   UNL     1      -3.441   5.181   3.596  0.00  0.00    +0.070 C 
ATOM     27  C   UNL     1      -4.393   6.282   3.124  0.00  0.00    +0.028 C 
BRANCH  26  28
ATOM     28  C   UNL     1      -1.998   5.680   3.504  0.00  0.00    +0.020 C 
BRANCH  28  29
ATOM     29  C   UNL     1      -1.056   4.628   4.092  0.00  0.00    -0.017 C 
BRANCH  29  30
ATOM     30  C   UNL     1       0.388   5.127   4.000  0.00  0.00    -0.079 C 
BRANCH  30  31
ATOM     31  N   UNL     1       1.282   4.109   4.590  0.00  0.00    +0.379 N 
ATOM     32  H   UNL     1       0.937   3.864   5.526  0.00  0.00    -0.082 HD
BRANCH  31  34
ATOM     33  C   UNL     1       1.804   3.219   2.344  0.00  0.00    -0.017 C 
ATOM     34  C   UNL     1       1.292   2.894   3.748  0.00  0.00    -0.082 C 
ENDBRANCH  31  34
BRANCH  31  35
ATOM     35  C   UNL     1       2.652   4.650   4.711  0.00  0.00    -0.082 C 
ATOM     36  C   UNL     1       3.490   3.688   5.556  0.00  0.00    -0.017 C 
ENDBRANCH  31  35
ENDBRANCH  30  31
ENDBRANCH  29  30
ENDBRANCH  28  29
ENDBRANCH  26  28
ENDBRANCH  22  26
ENDBRANCH   1  23
TORSDOF 11
