REMARK  Name = ZINC35664891
REMARK  13 active torsions:
REMARK  status: ('A' for Active; 'I' for Inactive)
REMARK    1  A    between atoms: C_1  and  C_2
REMARK    2  A    between atoms: C_2  and  O_3
REMARK    3  A    between atoms: O_3  and  C_4
REMARK    4  A    between atoms: C_4  and  C_6
REMARK    5  A    between atoms: C_7  and  C_24
REMARK    6  A    between atoms: N_8  and  C_21
REMARK    7  A    between atoms: C_12  and  C_14
REMARK    8  A    between atoms: C_18  and  C_20
REMARK    9  A    between atoms: C_21  and  C_22
REMARK   10  A    between atoms: C_24  and  N_25
REMARK   11  A    between atoms: C_29  and  C_32
REMARK   12  A    between atoms: C_33  and  C_35
REMARK   13  A    between atoms: C_38  and  C_41
REMARK                            x       y       z     vdW  Elec       q    Type
REMARK                         _______ _______ _______ _____ _____    ______ ____
ROOT
ATOM      1  C   UNL     1       0.807  -2.033  -0.142  0.00  0.00    +0.080 C 
ATOM      2  C   UNL     1       1.247  -3.197  -0.666  0.00  0.00    +0.041 C 
ATOM      3  N   UNL     1       2.045  -3.215  -1.774  0.00  0.00    -0.254 N 
ATOM      4  C   UNL     1       2.448  -2.111  -2.417  0.00  0.00    +0.307 C 
ATOM      5  O   UNL     1       3.159  -2.227  -3.396  0.00  0.00    -0.252 OA
ATOM      6  N   UNL     1       2.091  -0.876  -2.013  0.00  0.00    -0.288 N 
ATOM      7  C   UNL     1       1.225  -0.748  -0.829  0.00  0.00    +0.144 C 
ATOM      8  H   UNL     1       2.395  -0.090  -2.493  0.00  0.00    +0.151 HD
ENDROOT
BRANCH   7   9
ATOM      9  C   UNL     1       1.949   0.104   0.181  0.00  0.00    -0.022 A 
ATOM     10  C   UNL     1       3.277  -0.147   0.472  0.00  0.00    +0.006 A 
ATOM     11  C   UNL     1       3.941   0.634   1.399  0.00  0.00    +0.001 A 
ATOM     12  C   UNL     1       3.277   1.668   2.033  0.00  0.00    +0.003 A 
ATOM     13  C   UNL     1       1.950   1.920   1.741  0.00  0.00    -0.050 A 
ATOM     14  C   UNL     1       1.287   1.141   0.811  0.00  0.00    +0.009 A 
ATOM     15  C   UNL     1       1.227   3.047   2.433  0.00  0.00    +0.044 C 
ENDBRANCH   7   9
BRANCH   1  16
ATOM     16  C   UNL     1      -0.020  -2.014   1.005  0.00  0.00    +0.339 C 
ATOM     17  O   UNL     1      -1.210  -1.787   0.893  0.00  0.00    -0.245 OA
BRANCH  16  18
ATOM     18  O   UNL     1       0.511  -2.246   2.223  0.00  0.00    -0.462 OA
BRANCH  18  20
ATOM     19  C   UNL     1       0.395  -2.496   4.625  0.00  0.00    +0.048 C 
ATOM     20  C   UNL     1      -0.383  -2.211   3.338  0.00  0.00    +0.229 C 
ENDBRANCH  18  20
ENDBRANCH  16  18
ENDBRANCH   1  16
BRANCH   3  21
ATOM     21  C   UNL     1       2.485  -4.514  -2.289  0.00  0.00    +0.141 C 
BRANCH  21  22
ATOM     22  C   UNL     1       1.484  -5.021  -3.295  0.00  0.00    -0.015 C 
ATOM     23  C   UNL     1       1.875  -5.349  -4.501  0.00  0.00    +0.005 C 
ENDBRANCH  21  22
ENDBRANCH   3  21
BRANCH   2  24
ATOM     24  C   UNL     1       0.851  -4.499  -0.018  0.00  0.00    +0.136 C 
BRANCH  24  25
ATOM     25  N   UNL     1      -0.046  -5.240  -0.915  0.00  0.00    -0.294 NA
ATOM     26  C   UNL     1      -1.319  -4.529  -1.093  0.00  0.00    +0.104 C 
ATOM     27  C   UNL     1      -2.149  -5.236  -2.169  0.00  0.00    +0.124 C 
ATOM     28  N   UNL     1      -2.276  -6.655  -1.804  0.00  0.00    -0.292 N 
ATOM     29  C   UNL     1      -1.051  -7.401  -1.476  0.00  0.00    +0.087 C 
ATOM     30  C   UNL     1      -0.264  -6.609  -0.427  0.00  0.00    +0.107 C 
ATOM     31  C   UNL     1      -1.422  -8.776  -0.916  0.00  0.00    +0.029 C 
ATOM     32  C   UNL     1      -3.482  -7.256  -1.771  0.00  0.00    +0.247 C 
ATOM     33  O   UNL     1      -3.581  -8.398  -1.367  0.00  0.00    -0.270 OA
BRANCH  32  34
ATOM     34  C   UNL     1      -4.684  -6.526  -2.226  0.00  0.00    +0.037 A 
ATOM     35  C   UNL     1      -4.571  -5.519  -3.186  0.00  0.00    +0.013 A 
ATOM     36  C   UNL     1      -5.697  -4.842  -3.607  0.00  0.00    +0.004 A 
ATOM     37  C   UNL     1      -6.936  -5.159  -3.079  0.00  0.00    -0.050 A 
ATOM     38  C   UNL     1      -7.055  -6.155  -2.126  0.00  0.00    +0.004 A 
ATOM     39  C   UNL     1      -5.938  -6.844  -1.701  0.00  0.00    +0.013 A 
ATOM     40  C   UNL     1      -8.162  -4.414  -3.543  0.00  0.00    +0.044 C 
ENDBRANCH  32  34
ENDBRANCH  24  25
ENDBRANCH   2  24
TORSDOF 9
