REMARK  Name = ZINC58571271
REMARK  6 active torsions:
REMARK  status: ('A' for Active; 'I' for Inactive)
REMARK    1  A    between atoms: C_1  and  C_2
REMARK    2  A    between atoms: C_6  and  C_8
REMARK    3  A    between atoms: C_8  and  C_14
REMARK    4  A    between atoms: N_16  and  C_17
REMARK    5  A    between atoms: C_17  and  C_18
REMARK    6  A    between atoms: C_22  and  N_24
REMARK                            x       y       z     vdW  Elec       q    Type
REMARK                         _______ _______ _______ _____ _____    ______ ____
ROOT
ATOM      1  C   UNL     1       0.848  -2.231   2.972  0.00  0.00    +0.224 C 
ATOM      2  O   UNL     1       1.514  -3.230   3.144  0.00  0.00    -0.275 OA
ATOM      3  N   UNL     1       1.257  -1.052   3.481  0.00  0.00    -0.310 N 
ATOM      4  H   UNL     1       0.690  -0.269   3.406  0.00  0.00    +0.149 HD
ENDROOT
BRANCH   1   5
ATOM      5  C   UNL     1      -0.437  -2.309   2.188  0.00  0.00    +0.072 C 
ATOM      6  C   UNL     1      -1.574  -1.700   3.011  0.00  0.00    +0.021 C 
ATOM      7  C   UNL     1      -1.727  -2.477   4.321  0.00  0.00    +0.001 C 
ATOM      8  C   UNL     1      -2.048  -3.940   4.011  0.00  0.00    +0.000 C 
ATOM      9  C   UNL     1      -0.911  -4.549   3.188  0.00  0.00    +0.001 C 
ATOM     10  C   UNL     1      -0.758  -3.772   1.879  0.00  0.00    +0.021 C 
BRANCH   5  16
ATOM     11  C   UNL     1       2.021  -1.468  -2.089  0.00  0.00    +0.044 C 
ATOM     12  C   UNL     1       0.891  -1.142  -1.148  0.00  0.00    -0.050 A 
ATOM     13  C   UNL     1      -0.008  -0.140  -1.467  0.00  0.00    +0.003 A 
ATOM     14  C   UNL     1      -1.044   0.159  -0.604  0.00  0.00    +0.001 A 
ATOM     15  C   UNL     1      -1.183  -0.543   0.580  0.00  0.00    +0.004 A 
ATOM     16  C   UNL     1      -0.286  -1.544   0.898  0.00  0.00    -0.032 A 
ATOM     17  C   UNL     1       0.749  -1.847   0.033  0.00  0.00    +0.008 A 
ENDBRANCH   5  16
ENDBRANCH   1   5
BRANCH   3  18
ATOM     18  C   UNL     1       2.557  -0.954   4.148  0.00  0.00    +0.139 C 
BRANCH  18  19
ATOM     19  C   UNL     1       2.772   0.460   4.623  0.00  0.00    -0.029 A 
ATOM     20  C   UNL     1       3.382   1.383   3.793  0.00  0.00    +0.005 A 
ATOM     21  C   UNL     1       3.581   2.681   4.225  0.00  0.00    +0.002 A 
ATOM     22  C   UNL     1       3.171   3.060   5.488  0.00  0.00    +0.023 A 
ATOM     23  C   UNL     1       2.559   2.137   6.324  0.00  0.00    +0.035 A 
ATOM     24  C   UNL     1       2.355   0.835   5.885  0.00  0.00    +0.028 A 
BRANCH  23  25
ATOM     25  N   UNL     1       2.143   2.518   7.605  0.00  0.00    -0.270 N 
ATOM     26  C   UNL     1       2.183   1.631   8.619  0.00  0.00    +0.301 C 
ATOM     27  O   UNL     1       2.668   0.530   8.444  0.00  0.00    -0.253 OA
ATOM     28  N   UNL     1       1.684   1.963   9.826  0.00  0.00    -0.313 N 
ATOM     29  H   UNL     1       1.825   3.421   7.763  0.00  0.00    +0.156 HD
ATOM     30  H   UNL     1       1.297   2.842   9.965  0.00  0.00    +0.146 HD
ATOM     31  H   UNL     1       1.713   1.325  10.555  0.00  0.00    +0.146 HD
ENDBRANCH  23  25
ENDBRANCH  18  19
ENDBRANCH   3  18
TORSDOF 5
