REMARK  Name = ZINC39337592
REMARK  6 active torsions:
REMARK  status: ('A' for Active; 'I' for Inactive)
REMARK    1  A    between atoms: C_7  and  C_10
REMARK    2  A    between atoms: C_10  and  C_11
REMARK    3  A    between atoms: C_11  and  N_12
REMARK    4  A    between atoms: C_13  and  C_15
REMARK    5  A    between atoms: C_19  and  N_21
REMARK    6  A    between atoms: C_29  and  C_31
REMARK                            x       y       z     vdW  Elec       q    Type
REMARK                         _______ _______ _______ _____ _____    ______ ____
ROOT
ATOM      1  C   UNL     1      -6.656   9.908  -3.230  0.00  0.00    +0.153 C 
ATOM      2  N   UNL     1      -6.998  10.968  -2.603  0.00  0.00    -0.173 NA
ATOM      3  N   UNL     1      -7.192  12.193  -3.244  0.00  0.00    -0.209 N 
ATOM      4  S   UNL     1      -6.881  11.894  -4.867  0.00  0.00    -0.015 S 
ATOM      5  C   UNL     1      -6.474  10.106  -4.727  0.00  0.00    +0.208 C 
ATOM      6  H   UNL     1      -7.450  13.036  -2.839  0.00  0.00    +0.183 HD
ENDROOT
BRANCH   5   7
ATOM      7  N   UNL     1      -5.092   9.840  -5.135  0.00  0.00    -0.280 N 
ATOM      8  C   UNL     1      -4.844   9.099  -6.233  0.00  0.00    +0.304 C 
ATOM      9  O   UNL     1      -5.763   8.576  -6.834  0.00  0.00    -0.253 OA
ATOM     10  N   UNL     1      -3.578   8.937  -6.665  0.00  0.00    -0.278 N 
ATOM     11  C   UNL     1      -2.448   9.465  -5.888  0.00  0.00    +0.110 C 
ATOM     12  C   UNL     1      -1.451   8.331  -5.635  0.00  0.00    +0.019 C 
ATOM     13  C   UNL     1      -1.054   7.698  -6.970  0.00  0.00    +0.004 C 
ATOM     14  C   UNL     1      -2.294   7.109  -7.646  0.00  0.00    +0.027 C 
ATOM     15  C   UNL     1      -3.301   8.224  -7.920  0.00  0.00    +0.109 C 
ATOM     16  H   UNL     1      -4.355  10.197  -4.615  0.00  0.00    +0.152 HD
BRANCH  15  17
ATOM     17  C   UNL     1      -4.577   7.630  -8.456  0.00  0.00    -0.009 A 
ATOM     18  C   UNL     1      -5.103   8.067  -9.662  0.00  0.00    +0.008 A 
ATOM     19  C   UNL     1      -6.280   7.492 -10.117  0.00  0.00    +0.020 A 
ATOM     20  C   UNL     1      -6.885   6.508  -9.357  0.00  0.00    +0.111 A 
ATOM     21  N   UNL     1      -6.357   6.117  -8.214  0.00  0.00    -0.263 NA
ATOM     22  C   UNL     1      -5.236   6.638  -7.754  0.00  0.00    +0.116 A 
ENDBRANCH  15  17
ENDBRANCH   5   7
BRANCH   1  24
ATOM     23  N   UNL     1      -6.629   8.512  -1.234  0.00  0.00    -0.310 N 
ATOM     24  C   UNL     1      -6.451   8.620  -2.566  0.00  0.00    +0.263 C 
ATOM     25  O   UNL     1      -6.119   7.646  -3.216  0.00  0.00    -0.269 OA
ATOM     26  H   UNL     1      -6.893   9.289  -0.716  0.00  0.00    +0.149 HD
BRANCH  23  27
ATOM     27  C   UNL     1      -6.424   7.223  -0.570  0.00  0.00    +0.109 C 
BRANCH  27  28
ATOM     28  C   UNL     1      -6.689   7.374   0.929  0.00  0.00    +0.056 C 
BRANCH  28  35
ATOM     29  C   UNL     1      -2.894   5.207   2.623  0.00  0.00    +0.001 A 
ATOM     30  C   UNL     1      -3.181   3.969   3.181  0.00  0.00    +0.002 A 
ATOM     31  C   UNL     1      -4.473   3.490   3.199  0.00  0.00    +0.026 A 
ATOM     32  C   UNL     1      -5.501   4.252   2.654  0.00  0.00    +0.047 A 
ATOM     33  N   UNL     1      -6.857   4.059   2.522  0.00  0.00    -0.360 N 
ATOM     34  C   UNL     1      -7.423   5.138   1.899  0.00  0.00    +0.087 A 
ATOM     35  C   UNL     1      -6.478   6.048   1.613  0.00  0.00    -0.021 A 
ATOM     36  C   UNL     1      -5.204   5.507   2.091  0.00  0.00    +0.003 A 
ATOM     37  C   UNL     1      -3.889   5.976   2.088  0.00  0.00    +0.010 A 
ATOM     38  H   UNL     1      -7.340   3.273   2.824  0.00  0.00    +0.165 HD
ENDBRANCH  28  35
ENDBRANCH  27  28
ENDBRANCH  23  27
ENDBRANCH   1  24
TORSDOF 6
