REMARK  Name = ZINC40343234
REMARK  10 active torsions:
REMARK  status: ('A' for Active; 'I' for Inactive)
REMARK    1  A    between atoms: C_1  and  C_2
REMARK    2  A    between atoms: C_2  and  O_3
REMARK    3  A    between atoms: O_3  and  C_4
REMARK    4  A    between atoms: C_7  and  C_13
REMARK    5  A    between atoms: C_9  and  O_10
REMARK    6  A    between atoms: O_10  and  C_11
REMARK    7  A    between atoms: C_11  and  C_12
REMARK    8  A    between atoms: C_16  and  C_32
REMARK    9  A    between atoms: N_23  and  C_24
REMARK   10  A    between atoms: C_24  and  C_25
REMARK                            x       y       z     vdW  Elec       q    Type
REMARK                         _______ _______ _______ _____ _____    ______ ____
ROOT
ATOM      1  C   UNL     1       1.107  -6.044  -1.844  0.00  0.00    +0.142 C 
ATOM      2  C   UNL     1       2.219  -6.583  -0.986  0.00  0.00    +0.035 A 
ATOM      3  C   UNL     1       3.585  -6.575  -0.685  0.00  0.00    +0.099 A 
ATOM      4  N   UNL     1       3.775  -7.421   0.309  0.00  0.00    -0.173 NA
ATOM      5  N   UNL     1       2.664  -7.962   0.664  0.00  0.00    -0.272 N 
ATOM      6  H   UNL     1       2.565  -8.614   1.375  0.00  0.00    +0.189 HD
ATOM      7  C   UNL     1       1.645  -7.481  -0.107  0.00  0.00    +0.126 A 
ATOM      8  C   UNL     1       0.203  -7.536  -0.373  0.00  0.00    +0.266 C 
ATOM      9  O   UNL     1      -0.588  -8.234   0.232  0.00  0.00    -0.268 OA
ATOM     10  N   UNL     1      -0.121  -6.705  -1.381  0.00  0.00    -0.281 N 
ENDROOT
BRANCH   3  11
ATOM     11  C   UNL     1       4.630  -5.764  -1.359  0.00  0.00    +0.003 A 
ATOM     12  C   UNL     1       4.535  -5.498  -2.724  0.00  0.00    +0.011 A 
ATOM     13  C   UNL     1       5.508  -4.744  -3.346  0.00  0.00    +0.020 A 
ATOM     14  C   UNL     1       6.577  -4.252  -2.618  0.00  0.00    +0.041 A 
ATOM     15  C   UNL     1       6.676  -4.513  -1.262  0.00  0.00    +0.020 A 
ATOM     16  C   UNL     1       5.704  -5.261  -0.629  0.00  0.00    +0.011 A 
ATOM     17 CL   UNL     1       7.799  -3.304  -3.407  0.00  0.00    -0.084 Cl
ENDBRANCH   3  11
BRANCH   1  21
ATOM     18  C   UNL     1       0.777  -1.811  -1.336  0.00  0.00    +0.162 A 
ATOM     19  C   UNL     1       0.243  -2.669  -0.388  0.00  0.00    +0.050 A 
ATOM     20  C   UNL     1       0.352  -4.037  -0.555  0.00  0.00    +0.009 A 
ATOM     21  C   UNL     1       0.992  -4.552  -1.667  0.00  0.00    -0.019 A 
ATOM     22  C   UNL     1       1.526  -3.702  -2.616  0.00  0.00    +0.055 A 
ATOM     23  C   UNL     1       1.416  -2.330  -2.458  0.00  0.00    +0.162 A 
BRANCH  18  24
ATOM     24  O   UNL     1       0.671  -0.465  -1.174  0.00  0.00    -0.489 OA
BRANCH  24  26
ATOM     25  C   UNL     1      -0.019   1.526   0.010  0.00  0.00    +0.048 C 
ATOM     26  C   UNL     1       0.002  -0.004   0.002  0.00  0.00    +0.226 C 
ENDBRANCH  24  26
ENDBRANCH  18  24
BRANCH  23  27
ATOM     27  O   UNL     1       1.936  -1.492  -3.394  0.00  0.00    -0.489 OA
BRANCH  27  28
ATOM     28  C   UNL     1       2.578  -2.095  -4.520  0.00  0.00    +0.226 C 
ATOM     29  C   UNL     1       3.096  -1.002  -5.457  0.00  0.00    +0.048 C 
ENDBRANCH  27  28
ENDBRANCH  23  27
ENDBRANCH   1  21
BRANCH  10  30
ATOM     30  C   UNL     1      -1.465  -6.494  -1.925  0.00  0.00    +0.145 C 
BRANCH  30  31
ATOM     31  C   UNL     1      -1.713  -7.472  -3.045  0.00  0.00    -0.012 A 
ATOM     32  C   UNL     1      -1.577  -7.066  -4.359  0.00  0.00    +0.006 A 
ATOM     33  C   UNL     1      -1.805  -7.962  -5.386  0.00  0.00    +0.000 A 
ATOM     34  C   UNL     1      -2.168  -9.265  -5.100  0.00  0.00    +0.001 A 
ATOM     35  C   UNL     1      -2.304  -9.672  -3.786  0.00  0.00    +0.020 A 
ATOM     36  C   UNL     1      -2.071  -8.777  -2.757  0.00  0.00    +0.046 A 
ATOM     37 CL   UNL     1      -2.235  -9.289  -1.107  0.00  0.00    -0.083 Cl
ENDBRANCH  30  31
ENDBRANCH  10  30
TORSDOF 8
