REMARK  Name = ZINC35183032
REMARK  9 active torsions:
REMARK  status: ('A' for Active; 'I' for Inactive)
REMARK    1  A    between atoms: C_1  and  C_2
REMARK    2  A    between atoms: C_5  and  C_8
REMARK    3  A    between atoms: C_10  and  C_29
REMARK    4  A    between atoms: C_11  and  N_28
REMARK    5  A    between atoms: C_13  and  C_21
REMARK    6  A    between atoms: C_15  and  C_16
REMARK    7  A    between atoms: C_15  and  C_18
REMARK    8  A    between atoms: C_18  and  N_20
REMARK    9  A    between atoms: C_24  and  C_27
REMARK                            x       y       z     vdW  Elec       q    Type
REMARK                         _______ _______ _______ _____ _____    ______ ____
ROOT
ATOM      1  C   UNL     1      -0.224  -4.448   0.110  0.00  0.00    +0.089 C 
ATOM      2  C   UNL     1      -1.345  -5.123   0.823  0.00  0.00    +0.066 C 
ATOM      3  C   UNL     1      -1.263  -6.233   1.585  0.00  0.00    +0.073 C 
ATOM      4  S   UNL     1       0.271  -7.051   1.877  0.00  0.00    -0.100 S 
ATOM      5  C   UNL     1       1.377  -6.287   0.651  0.00  0.00    +0.109 C 
ATOM      6  C   UNL     1       1.141  -4.771   0.705  0.00  0.00    +0.129 C 
ENDROOT
BRANCH   1  11
ATOM      7  C   UNL     1      -1.049   1.266   0.341  0.00  0.00    +0.044 C 
ATOM      8  C   UNL     1      -0.834  -0.224   0.281  0.00  0.00    -0.050 A 
ATOM      9  C   UNL     1      -0.804  -0.869  -0.942  0.00  0.00    +0.003 A 
ATOM     10  C   UNL     1      -0.606  -2.236  -0.997  0.00  0.00    +0.004 A 
ATOM     11  C   UNL     1      -0.438  -2.958   0.170  0.00  0.00    -0.037 A 
ATOM     12  C   UNL     1      -0.468  -2.312   1.392  0.00  0.00    +0.004 A 
ATOM     13  C   UNL     1      -0.661  -0.945   1.447  0.00  0.00    +0.003 A 
ENDBRANCH   1  11
BRANCH   5  14
ATOM     14  C   UNL     1       1.056  -6.811  -0.725  0.00  0.00    -0.032 A 
ATOM     15  C   UNL     1       2.065  -6.971  -1.656  0.00  0.00    +0.005 A 
ATOM     16  C   UNL     1       1.771  -7.451  -2.918  0.00  0.00    +0.003 A 
ATOM     17  C   UNL     1       0.468  -7.773  -3.249  0.00  0.00    -0.050 A 
ATOM     18  C   UNL     1      -0.541  -7.614  -2.317  0.00  0.00    +0.003 A 
ATOM     19  C   UNL     1      -0.246  -7.138  -1.054  0.00  0.00    +0.005 A 
ATOM     20  C   UNL     1       0.147  -8.296  -4.625  0.00  0.00    +0.044 C 
ENDBRANCH   5  14
BRANCH   3  21
ATOM     21  N   UNL     1      -2.409  -6.740   2.151  0.00  0.00    -0.352 N 
ATOM     22  H   UNL     1      -3.260  -6.301   2.000  0.00  0.00    +0.143 HD
ATOM     23  H   UNL     1      -2.366  -7.537   2.702  0.00  0.00    +0.143 HD
ENDBRANCH   3  21
BRANCH   6  24
ATOM     24  C   UNL     1       1.187  -4.314   2.103  0.00  0.00    +0.078 C 
ATOM     25  N   UNL     1       1.223  -3.961   3.182  0.00  0.00    -0.195 NA
ENDBRANCH   6  24
BRANCH   6  26
ATOM     26  C   UNL     1       2.212  -4.069  -0.089  0.00  0.00    +0.069 C 
ATOM     27  S   UNL     1       1.813  -3.158  -1.341  0.00  0.00    -0.039 S 
BRANCH  26  28
ATOM     28  N   UNL     1       3.508  -4.210   0.257  0.00  0.00    -0.354 N 
ATOM     29  H   UNL     1       3.750  -4.762   1.016  0.00  0.00    +0.143 HD
ATOM     30  H   UNL     1       4.198  -3.758  -0.254  0.00  0.00    +0.143 HD
ENDBRANCH  26  28
ENDBRANCH   6  26
BRANCH   2  31
ATOM     31  C   UNL     1      -2.642  -4.532   0.686  0.00  0.00    +0.098 C 
ATOM     32  N   UNL     1      -3.671  -4.063   0.577  0.00  0.00    -0.191 NA
ENDBRANCH   2  31
TORSDOF 7
