REMARK  Name = ZINC36122091
REMARK  9 active torsions:
REMARK  status: ('A' for Active; 'I' for Inactive)
REMARK    1  A    between atoms: C_1  and  C_2
REMARK    2  A    between atoms: C_7  and  O_8
REMARK    3  A    between atoms: O_8  and  C_9
REMARK    4  A    between atoms: C_9  and  C_10
REMARK    5  A    between atoms: C_20  and  C_22
REMARK    6  A    between atoms: C_22  and  N_23
REMARK    7  A    between atoms: N_23  and  C_24
REMARK    8  A    between atoms: C_24  and  C_25
REMARK    9  A    between atoms: C_31  and  C_33
REMARK                            x       y       z     vdW  Elec       q    Type
REMARK                         _______ _______ _______ _____ _____    ______ ____
ROOT
ATOM      1  C   UNL     1      -0.303   1.611   4.483  0.00  0.00    +0.144 C 
ATOM      2  C   UNL     1       0.476   2.910   4.278  0.00  0.00    -0.014 A 
ATOM      3  C   UNL     1       1.861   2.997   4.404  0.00  0.00    +0.013 A 
ATOM      4  C   UNL     1       2.486   4.180   4.203  0.00  0.00    +0.046 A 
ATOM      5  S   UNL     1       1.115   5.259   3.817  0.00  0.00    -0.101 S 
ATOM      6  C   UNL     1      -0.182   4.056   3.954  0.00  0.00    -0.004 A 
ATOM      7  C   UNL     1      -1.651   4.250   3.766  0.00  0.00    +0.061 C 
ATOM      8  C   UNL     1      -2.311   2.873   3.592  0.00  0.00    +0.114 C 
ATOM      9  N   UNL     1      -1.728   1.952   4.581  0.00  0.00    -0.289 N 
ATOM     10  C   UNL     1      -2.490   1.430   5.562  0.00  0.00    +0.234 C 
ATOM     11  O   UNL     1      -2.000   0.672   6.372  0.00  0.00    -0.274 OA
ENDROOT
BRANCH   1  12
ATOM     12  C   UNL     1      -0.074   0.676   3.294  0.00  0.00    +0.256 C 
BRANCH  12  13
ATOM     13  O   UNL     1      -0.396   1.360   2.081  0.00  0.00    -0.490 OA
BRANCH  13  20
ATOM     14  C   UNL     1      -1.027   2.694  -0.328  0.00  0.00    +0.047 C 
ATOM     15  C   UNL     1      -0.540   1.268  -0.291  0.00  0.00    -0.009 A 
ATOM     16  C   UNL     1      -0.382   0.562  -1.468  0.00  0.00    +0.007 A 
ATOM     17  C   UNL     1       0.064  -0.746  -1.436  0.00  0.00    +0.000 A 
ATOM     18  C   UNL     1       0.353  -1.351  -0.226  0.00  0.00    +0.004 A 
ATOM     19  C   UNL     1       0.196  -0.649   0.953  0.00  0.00    +0.046 A 
ATOM     20  C   UNL     1      -0.246   0.666   0.923  0.00  0.00    +0.123 A 
ENDBRANCH  13  20
ENDBRANCH  12  13
ENDBRANCH   1  12
BRANCH  10  21
ATOM     21  C   UNL     1      -3.952   1.787   5.652  0.00  0.00    +0.204 C 
BRANCH  21  22
ATOM     22  N   UNL     1      -4.554   1.095   6.795  0.00  0.00    -0.286 N 
ATOM     23  C   UNL     1      -5.251  -0.042   6.603  0.00  0.00    +0.247 C 
ATOM     24  O   UNL     1      -5.790  -0.590   7.545  0.00  0.00    -0.270 OA
BRANCH  23  25
ATOM     25  C   UNL     1      -5.361  -0.622   5.248  0.00  0.00    +0.040 A 
ATOM     26  C   UNL     1      -4.240  -0.680   4.418  0.00  0.00    +0.013 A 
ATOM     27  C   UNL     1      -4.348  -1.223   3.154  0.00  0.00    +0.004 A 
ATOM     28  C   UNL     1      -5.563  -1.710   2.708  0.00  0.00    +0.038 A 
ATOM     29  C   UNL     1      -6.680  -1.656   3.526  0.00  0.00    +0.124 A 
ATOM     30  C   UNL     1      -6.583  -1.120   4.796  0.00  0.00    +0.051 A 
ATOM     31  F   UNL     1      -7.864  -2.133   3.083  0.00  0.00    -0.205 F 
ENDBRANCH  23  25
BRANCH  22  32
ATOM     32  C   UNL     1      -4.397   1.640   8.146  0.00  0.00    +0.140 C 
BRANCH  32  33
ATOM     33  C   UNL     1      -5.625   2.481   8.502  0.00  0.00    +0.136 C 
ATOM     34  C   UNL     1      -5.464   3.096   9.915  0.00  0.00    +0.035 C 
ATOM     35  C   UNL     1      -6.395   4.334   9.806  0.00  0.00    +0.031 C 
ATOM     36  C   UNL     1      -6.217   4.748   8.329  0.00  0.00    +0.160 C 
ATOM     37  O   UNL     1      -5.735   3.604   7.612  0.00  0.00    -0.375 OA
ENDBRANCH  32  33
ENDBRANCH  22  32
ENDBRANCH  21  22
ENDBRANCH  10  21
TORSDOF 8
