REMARK  Name = ZINC39770206
REMARK  15 active torsions:
REMARK  status: ('A' for Active; 'I' for Inactive)
REMARK    1  A    between atoms: C_1  and  C_2
REMARK    2  A    between atoms: C_2  and  C_3
REMARK    3  A    between atoms: C_3  and  C_4
REMARK    4  A    between atoms: C_4  and  N_5
REMARK    5  A    between atoms: C_9  and  C_10
REMARK    6  A    between atoms: C_11  and  C_34
REMARK    7  A    between atoms: C_12  and  C_32
REMARK    8  A    between atoms: N_15  and  C_29
REMARK    9  A    between atoms: C_16  and  N_17
REMARK   10  A    between atoms: C_21  and  C_24
REMARK   11  A    between atoms: C_24  and  O_26
REMARK   12  A    between atoms: O_26  and  C_27
REMARK   13  A    between atoms: C_27  and  C_28
REMARK   14  A    between atoms: C_29  and  C_30
REMARK   15  A    between atoms: C_30  and  C_31
REMARK                            x       y       z     vdW  Elec       q    Type
REMARK                         _______ _______ _______ _____ _____    ______ ____
ROOT
ATOM      1  C   UNL     1      -0.492  -3.426  -6.240  0.00  0.00    +0.019 A 
ATOM      2  C   UNL     1      -1.221  -2.986  -5.123  0.00  0.00    -0.017 A 
ATOM      3  C   UNL     1      -2.595  -2.802  -5.245  0.00  0.00    +0.120 A 
ATOM      4  C   UNL     1      -3.225  -3.062  -6.489  0.00  0.00    +0.270 A 
ATOM      5  O   UNL     1      -4.427  -2.903  -6.603  0.00  0.00    -0.266 OA
ATOM      6  N   UNL     1      -2.504  -3.483  -7.545  0.00  0.00    -0.295 N 
ATOM      7  C   UNL     1      -1.162  -3.664  -7.452  0.00  0.00    +0.112 A 
ATOM      8  C   UNL     1      -0.526  -2.718  -3.812  0.00  0.00    +0.046 C 
ENDROOT
BRANCH   1  13
ATOM      9  N   UNL     1       2.457  -0.324  -5.661  0.00  0.00    -0.255 N 
ATOM     10  C   UNL     1       1.468  -1.173  -5.880  0.00  0.00    +0.258 C 
ATOM     11  O   UNL     1       0.325  -0.778  -6.028  0.00  0.00    -0.269 OA
ATOM     12  C   UNL     1       1.778  -2.566  -5.936  0.00  0.00    +0.077 C 
ATOM     13  C   UNL     1       0.955  -3.628  -6.145  0.00  0.00    +0.032 C 
ATOM     14  S   UNL     1       3.544  -2.532  -5.658  0.00  0.00    -0.061 S 
ATOM     15  C   UNL     1       3.726  -0.762  -5.502  0.00  0.00    +0.121 C 
ATOM     16  S   UNL     1       5.148   0.149  -5.219  0.00  0.00    -0.027 S 
BRANCH   9  17
ATOM     17  C   UNL     1       2.176   1.112  -5.597  0.00  0.00    +0.115 C 
BRANCH  17  18
ATOM     18  C   UNL     1       2.294   1.718  -6.997  0.00  0.00    +0.019 C 
BRANCH  18  20
ATOM     19  C   UNL     1       2.117   3.824  -8.330  0.00  0.00    +0.004 C 
ATOM     20  C   UNL     1       2.000   3.218  -6.930  0.00  0.00    -0.002 C 
ENDBRANCH  18  20
ENDBRANCH  17  18
ENDBRANCH   9  17
ENDBRANCH   1  13
BRANCH   7  21
ATOM     21  N   UNL     1      -0.459  -4.086  -8.542  0.00  0.00    -0.315 N 
ATOM     22  C   UNL     1      -0.279  -5.520  -8.808  0.00  0.00    +0.106 C 
ATOM     23  C   UNL     1       1.217  -5.807  -8.974  0.00  0.00    +0.020 C 
ATOM     24  C   UNL     1       1.791  -4.890 -10.056  0.00  0.00    +0.018 C 
ATOM     25  C   UNL     1       1.623  -3.429  -9.632  0.00  0.00    +0.115 C 
ATOM     26  C   UNL     1       0.128  -3.116  -9.476  0.00  0.00    +0.121 C 
BRANCH  25  27
ATOM     27  C   UNL     1       2.219  -2.529 -10.683  0.00  0.00    +0.312 C 
ATOM     28  O   UNL     1       1.524  -1.716 -11.247  0.00  0.00    -0.250 OA
BRANCH  27  29
ATOM     29  O   UNL     1       3.521  -2.628 -10.993  0.00  0.00    -0.465 OA
BRANCH  29  30
ATOM     30  C   UNL     1       4.018  -1.743 -11.999  0.00  0.00    +0.229 C 
ATOM     31  C   UNL     1       5.510  -2.003 -12.215  0.00  0.00    +0.048 C 
ENDBRANCH  29  30
ENDBRANCH  27  29
ENDBRANCH  25  27
ENDBRANCH   7  21
BRANCH   3  32
ATOM     32  C   UNL     1      -3.367  -2.355  -4.125  0.00  0.00    +0.105 C 
ATOM     33  N   UNL     1      -3.979  -2.001  -3.236  0.00  0.00    -0.191 NA
ENDBRANCH   3  32
BRANCH   6  34
ATOM     34  C   UNL     1      -3.179  -3.745  -8.819  0.00  0.00    +0.126 C 
BRANCH  34  35
ATOM     35  C   UNL     1      -3.323  -2.436  -9.598  0.00  0.00    +0.018 C 
ATOM     36  C   UNL     1      -4.028  -2.709 -10.928  0.00  0.00    +0.005 C 
ENDBRANCH  34  35
ENDBRANCH   6  34
TORSDOF 11
