REMARK  Name = ZINC05833428
REMARK  9 active torsions:
REMARK  status: ('A' for Active; 'I' for Inactive)
REMARK    1  A    between atoms: C_1  and  C_2
REMARK    2  A    between atoms: C_3  and  C_4
REMARK    3  A    between atoms: C_11  and  C_32
REMARK    4  A    between atoms: C_17  and  C_18
REMARK    5  A    between atoms: C_17  and  C_19
REMARK    6  A    between atoms: C_19  and  C_20
REMARK    7  A    between atoms: C_23  and  C_29
REMARK    8  A    between atoms: N_25  and  C_28
REMARK    9  A    between atoms: C_29  and  O_30
REMARK                            x       y       z     vdW  Elec       q    Type
REMARK                         _______ _______ _______ _____ _____    ______ ____
ROOT
ATOM      1  C   UNL     1      -1.870  -2.129  -0.117  0.00  0.00    +0.047 C 
ATOM      2  C   UNL     1      -3.002  -2.795  -0.840  0.00  0.00    -0.022 C 
ATOM      3  C   UNL     1      -3.928  -3.503  -0.268  0.00  0.00    -0.027 C 
ATOM      4  C   UNL     1      -3.964  -3.759   1.206  0.00  0.00    +0.016 C 
ATOM      5  C   UNL     1      -5.387  -3.717   1.757  0.00  0.00    +0.011 C 
ATOM      6  C   UNL     1      -5.348  -4.064   3.249  0.00  0.00    -0.014 C 
ATOM      7  C   UNL     1      -4.463  -3.066   3.996  0.00  0.00    +0.003 C 
ATOM      8  C   UNL     1      -3.045  -3.084   3.417  0.00  0.00    +0.005 C 
ATOM      9  C   UNL     1      -3.130  -2.706   1.938  0.00  0.00    +0.010 C 
ATOM     10  C   UNL     1      -1.738  -2.675   1.308  0.00  0.00    +0.044 C 
ATOM     11  C   UNL     1      -1.158  -4.091   1.267  0.00  0.00    +0.020 C 
ATOM     12  C   UNL     1      -6.766  -4.008   3.820  0.00  0.00    +0.007 C 
ENDROOT
BRANCH   1  15
ATOM     13  C   UNL     1      -1.532   1.671  -0.553  0.00  0.00    +0.035 C 
ATOM     14  C   UNL     1      -1.278   0.187  -0.613  0.00  0.00    -0.034 C 
ATOM     15  C   UNL     1      -2.124  -0.645  -0.057  0.00  0.00    -0.023 C 
ENDBRANCH   1  15
BRANCH  10  16
ATOM     16  C   UNL     1      -0.835  -1.778   2.115  0.00  0.00    +0.179 C 
ATOM     17  O   UNL     1      -1.289  -1.133   3.038  0.00  0.00    -0.291 OA
BRANCH  16  18
ATOM     18  C   UNL     1       0.586  -1.685   1.787  0.00  0.00    +0.124 C 
ATOM     19  C   UNL     1       1.534  -0.996   2.515  0.00  0.00    +0.194 C 
ATOM     20  O   UNL     1       1.331  -0.296   3.641  0.00  0.00    -0.290 OA
ATOM     21  C   UNL     1       2.847  -1.189   1.793  0.00  0.00    +0.173 C 
ATOM     22  N   UNL     1       2.551  -2.027   0.625  0.00  0.00    -0.288 N 
ATOM     23  C   UNL     1       1.238  -2.314   0.632  0.00  0.00    +0.254 C 
ATOM     24  O   UNL     1       0.671  -2.996  -0.200  0.00  0.00    -0.270 OA
ATOM     25  C   UNL     1       3.522  -2.477  -0.376  0.00  0.00    +0.133 C 
BRANCH  21  26
ATOM     26  C   UNL     1       3.852  -1.894   2.706  0.00  0.00    +0.186 C 
BRANCH  26  27
ATOM     27  O   UNL     1       3.275  -3.101   3.208  0.00  0.00    -0.393 OA
ATOM     28  H   UNL     1       3.858  -3.600   3.796  0.00  0.00    +0.209 HD
ENDBRANCH  26  27
ENDBRANCH  21  26
ENDBRANCH  16  18
ENDBRANCH  10  16
TORSDOF 5
