REMARK  Name = ZINC22851954
REMARK  6 active torsions:
REMARK  status: ('A' for Active; 'I' for Inactive)
REMARK    1  A    between atoms: C_4  and  C_7
REMARK    2  A    between atoms: C_7  and  C_8
REMARK    3  A    between atoms: N_11  and  C_14
REMARK    4  A    between atoms: C_14  and  C_16
REMARK    5  A    between atoms: C_14  and  C_23
REMARK    6  A    between atoms: C_29  and  C_31
REMARK                            x       y       z     vdW  Elec       q    Type
REMARK                         _______ _______ _______ _____ _____    ______ ____
ROOT
ATOM      1  C   UNL     1       3.450   2.156  -1.314  0.00  0.00    +0.006 C 
ENDROOT
BRANCH   1   2
ATOM      2  C   UNL     1       4.209   1.689  -0.099  0.00  0.00    +0.050 A 
ATOM      3  C   UNL     1       5.481   1.284  -0.003  0.00  0.00    +0.282 A 
ATOM      4  N   UNL     1       6.003   0.892   1.206  0.00  0.00    -0.169 N 
ATOM      5  C   UNL     1       5.168   0.935   2.288  0.00  0.00    +0.200 A 
ATOM      6  S   UNL     1       3.650   1.539   1.591  0.00  0.00    -0.050 S 
ATOM      7  N   UNL     1       5.806   0.535   3.352  0.00  0.00    -0.197 NA
ATOM      8  C   UNL     1       7.065   0.218   3.021  0.00  0.00    +0.218 A 
ATOM      9  N   UNL     1       7.233   0.417   1.731  0.00  0.00    -0.138 NA
ATOM     10  O   UNL     1       6.266   1.261  -1.114  0.00  0.00    -0.265 OA
BRANCH   8  11
ATOM     11  C   UNL     1       8.099  -0.278   3.953  0.00  0.00    +0.173 A 
ATOM     12  C   UNL     1       7.936  -0.487   5.287  0.00  0.00    +0.053 A 
ATOM     13  C   UNL     1       9.171  -0.958   5.777  0.00  0.00    +0.042 A 
ATOM     14  C   UNL     1      10.017  -1.013   4.730  0.00  0.00    +0.196 A 
ATOM     15  O   UNL     1       9.364  -0.606   3.629  0.00  0.00    -0.460 OA
ENDBRANCH   8  11
ENDBRANCH   1   2
BRANCH   1  19
ATOM     16  C   UNL     1       0.031  -0.191  -2.359  0.00  0.00    -0.010 C 
ATOM     17  C   UNL     1       0.857  -0.569  -1.126  0.00  0.00    -0.015 C 
ATOM     18  C   UNL     1       2.250   0.054  -1.241  0.00  0.00    -0.077 C 
ATOM     19  N   UNL     1       2.128   1.514  -1.342  0.00  0.00    +0.387 N 
ATOM     20  C   UNL     1       1.380   1.903  -2.543  0.00  0.00    -0.077 C 
ATOM     21  C   UNL     1      -0.040   1.335  -2.468  0.00  0.00    -0.015 C 
ATOM     22  H   UNL     1       1.562   1.864  -0.466  0.00  0.00    -0.080 HD
BRANCH  16  23
ATOM     23  C   UNL     1      -1.382  -0.759  -2.222  0.00  0.00    +0.038 C 
BRANCH  23  27
ATOM     24  C   UNL     1      -3.577  -0.004  -5.808  0.00  0.00    +0.000 A 
ATOM     25  C   UNL     1      -2.845  -1.169  -5.678  0.00  0.00    +0.000 A 
ATOM     26  C   UNL     1      -2.135  -1.414  -4.517  0.00  0.00    +0.003 A 
ATOM     27  C   UNL     1      -2.156  -0.493  -3.487  0.00  0.00    -0.047 A 
ATOM     28  C   UNL     1      -2.892   0.670  -3.615  0.00  0.00    +0.003 A 
ATOM     29  C   UNL     1      -3.599   0.917  -4.777  0.00  0.00    +0.000 A 
ENDBRANCH  23  27
ENDBRANCH  16  23
ENDBRANCH   1  19
BRANCH   1  30
ATOM     30  C   UNL     1       3.280   3.652  -1.257  0.00  0.00    -0.056 A 
ATOM     31  C   UNL     1       2.377   4.212  -0.372  0.00  0.00    +0.004 A 
ATOM     32  C   UNL     1       2.226   5.584  -0.315  0.00  0.00    +0.020 A 
ATOM     33  C   UNL     1       2.970   6.397  -1.151  0.00  0.00    +0.041 A 
ATOM     34  C   UNL     1       3.869   5.836  -2.040  0.00  0.00    +0.020 A 
ATOM     35  C   UNL     1       4.024   4.464  -2.092  0.00  0.00    +0.004 A 
ATOM     36 CL   UNL     1       2.774   8.121  -1.085  0.00  0.00    -0.084 Cl
ENDBRANCH   1  30
TORSDOF 6
