REMARK  Name = ZINC13500751
REMARK  16 active torsions:
REMARK  status: ('A' for Active; 'I' for Inactive)
REMARK    1  A    between atoms: C_1  and  C_2
REMARK    2  A    between atoms: C_2  and  C_3
REMARK    3  A    between atoms: C_3  and  C_4
REMARK    4  A    between atoms: C_4  and  C_6
REMARK    5  A    between atoms: C_4  and  N_15
REMARK    6  A    between atoms: N_10  and  C_11
REMARK    7  A    between atoms: C_11  and  C_12
REMARK    8  A    between atoms: C_11  and  C_13
REMARK    9  A    between atoms: C_11  and  C_14
REMARK   10  A    between atoms: N_15  and  C_16
REMARK   11  A    between atoms: N_15  and  C_22
REMARK   12  A    between atoms: C_16  and  C_17
REMARK   13  A    between atoms: C_22  and  C_23
REMARK   14  A    between atoms: C_27  and  O_35
REMARK   15  A    between atoms: O_35  and  C_36
REMARK   16  A    between atoms: C_36  and  C_37
REMARK                            x       y       z     vdW  Elec       q    Type
REMARK                         _______ _______ _______ _____ _____    ______ ____
ROOT
ATOM      1  N   UNL     1       1.071  -2.514   0.260  0.00  0.00    -0.284 NA
ENDROOT
BRANCH   1   2
ATOM      2  C   UNL     1       0.618  -2.204  -1.103  0.00  0.00    +0.127 C 
BRANCH   2   3
ATOM      3  C   UNL     1       1.346  -0.985  -1.608  0.00  0.00    +0.169 A 
ATOM      4  N   UNL     1       1.603   0.109  -0.933  0.00  0.00    -0.112 NA
ATOM      5  N   UNL     1       2.240   0.916  -1.709  0.00  0.00    -0.023 NA
ATOM      6  N   UNL     1       2.397   0.365  -2.862  0.00  0.00    -0.043 NA
ATOM      7  N   UNL     1       1.864  -0.810  -2.838  0.00  0.00    -0.222 N 
BRANCH   7   8
ATOM      8  C   UNL     1       1.827  -1.771  -3.942  0.00  0.00    +0.059 C 
ATOM      9  C   UNL     1       0.379  -2.190  -4.205  0.00  0.00    +0.036 C 
ATOM     10  C   UNL     1       2.406  -1.124  -5.202  0.00  0.00    +0.036 C 
ATOM     11  C   UNL     1       2.655  -3.004  -3.574  0.00  0.00    +0.036 C 
ENDBRANCH   7   8
ENDBRANCH   2   3
BRANCH   2  12
ATOM     12  C   UNL     1      -0.887  -1.930  -1.091  0.00  0.00    +0.026 C 
BRANCH  12  14
ATOM     13  C   UNL     1      -3.140  -2.968  -0.789  0.00  0.00    +0.004 C 
ATOM     14  C   UNL     1      -1.632  -3.197  -0.666  0.00  0.00    -0.001 C 
ENDBRANCH  12  14
ENDBRANCH   2  12
ENDBRANCH   1   2
BRANCH   1  15
ATOM     15  C   UNL     1       1.016  -3.960   0.516  0.00  0.00    +0.127 C 
BRANCH  15  16
ATOM     16  C   UNL     1       1.692  -4.264   1.828  0.00  0.00    +0.004 A 
ATOM     17  C   UNL     1       1.141  -4.413   3.057  0.00  0.00    +0.012 A 
ATOM     18  C   UNL     1       1.965  -4.694   4.131  0.00  0.00    +0.008 A 
ATOM     19  C   UNL     1       3.299  -4.811   3.923  0.00  0.00    +0.045 A 
ATOM     20  S   UNL     1       3.425  -4.528   2.165  0.00  0.00    -0.100 S 
ENDBRANCH  15  16
ENDBRANCH   1  15
BRANCH   1  21
ATOM     21  C   UNL     1       0.286  -1.773   1.257  0.00  0.00    +0.126 C 
BRANCH  21  22
ATOM     22  C   UNL     1       0.753  -0.341   1.299  0.00  0.00    +0.031 A 
ATOM     23  C   UNL     1      -0.040   0.643   0.808  0.00  0.00    +0.020 A 
ATOM     24  C   UNL     1       0.442   2.024   0.864  0.00  0.00    +0.002 A 
ATOM     25  C   UNL     1      -0.334   3.080   0.372  0.00  0.00    +0.055 A 
ATOM     26  C   UNL     1       0.151   4.370   0.441  0.00  0.00    +0.121 A 
ATOM     27  C   UNL     1       1.404   4.622   0.996  0.00  0.00    +0.047 A 
ATOM     28  C   UNL     1       2.176   3.591   1.483  0.00  0.00    +0.030 A 
ATOM     29  C   UNL     1       1.707   2.283   1.423  0.00  0.00    +0.049 A 
ATOM     30  N   UNL     1       2.465   1.236   1.907  0.00  0.00    -0.322 N 
ATOM     31  H   UNL     1       3.337   1.416   2.292  0.00  0.00    +0.169 HD
ATOM     32  C   UNL     1       2.011  -0.028   1.856  0.00  0.00    +0.254 A 
ATOM     33  O   UNL     1       2.706  -0.927   2.296  0.00  0.00    -0.268 OA
BRANCH  26  34
ATOM     34  O   UNL     1      -0.598   5.400  -0.035  0.00  0.00    -0.492 OA
BRANCH  34  35
ATOM     35  C   UNL     1      -0.037   6.711   0.067  0.00  0.00    +0.225 C 
ATOM     36  C   UNL     1      -1.017   7.731  -0.516  0.00  0.00    +0.048 C 
ENDBRANCH  34  35
ENDBRANCH  26  34
ENDBRANCH  21  22
ENDBRANCH   1  21
TORSDOF 11
