REMARK  Name = ZINC21737695
REMARK  6 active torsions:
REMARK  status: ('A' for Active; 'I' for Inactive)
REMARK    1  A    between atoms: C_1  and  C_2
REMARK    2  A    between atoms: C_5  and  N_9
REMARK    3  A    between atoms: C_13  and  S_15
REMARK    4  A    between atoms: S_15  and  C_16
REMARK    5  A    between atoms: C_16  and  C_17
REMARK    6  A    between atoms: C_19  and  C_22
REMARK                            x       y       z     vdW  Elec       q    Type
REMARK                         _______ _______ _______ _____ _____    ______ ____
ROOT
ATOM      1  N   UNL     1      -0.348  13.188   2.125  0.00  0.00    -0.292 N 
ATOM      2  C   UNL     1      -0.172  11.851   1.786  0.00  0.00    +0.187 A 
ATOM      3  N   UNL     1      -0.026  11.303   0.596  0.00  0.00    -0.125 NA
ATOM      4  N   UNL     1       0.136   9.941   0.485  0.00  0.00    -0.133 NA
ATOM      5  C   UNL     1       0.145   9.191   1.570  0.00  0.00    +0.160 A 
ATOM      6  S   UNL     1      -0.092  10.416   2.847  0.00  0.00    -0.024 S 
ATOM      7  H   UNL     1      -0.356  13.492   3.182  0.00  0.00    +0.154 HD
ENDROOT
BRANCH   1  12
ATOM      8  C   UNL     1      -1.026  17.077  -1.948  0.00  0.00    +0.045 C 
ATOM      9  C   UNL     1      -0.845  16.044  -0.866  0.00  0.00    -0.032 A 
ATOM     10  C   UNL     1      -1.202  14.729  -1.102  0.00  0.00    +0.006 A 
ATOM     11  C   UNL     1      -1.038  13.780  -0.112  0.00  0.00    +0.023 A 
ATOM     12  C   UNL     1      -0.515  14.147   1.122  0.00  0.00    +0.034 A 
ATOM     13  C   UNL     1      -0.163  15.469   1.358  0.00  0.00    +0.043 A 
ATOM     14  C   UNL     1      -0.324  16.414   0.361  0.00  0.00    +0.046 A 
ATOM     15 CL   UNL     1       0.121  18.066   0.652  0.00  0.00    -0.083 Cl
ENDBRANCH   1  12
BRANCH   5  16
ATOM     16  S   UNL     1       0.334   7.445   1.719  0.00  0.00    -0.087 S 
BRANCH  16  17
ATOM     17  C   UNL     1       0.519   6.876   0.006  0.00  0.00    +0.175 C 
BRANCH  17  18
ATOM     18  C   UNL     1       0.691   5.379  -0.010  0.00  0.00    +0.238 A 
ATOM     19  N   UNL     1      -0.265   4.488  -0.097  0.00  0.00    -0.191 NA
ATOM     20  C   UNL     1       0.356   3.286  -0.072  0.00  0.00    +0.203 A 
ATOM     21  N   UNL     1       1.641   3.517   0.020  0.00  0.00    -0.056 NA
ATOM     22  O   UNL     1       1.847   4.712   0.056  0.00  0.00    -0.337 OA
BRANCH  20  23
ATOM     23  C   UNL     1      -0.296   1.957  -0.142  0.00  0.00    +0.029 A 
ATOM     24  C   UNL     1       0.461   0.787  -0.113  0.00  0.00    +0.019 A 
ATOM     25  C   UNL     1      -0.199  -0.390  -0.181  0.00  0.00    +0.046 A 
ATOM     26  S   UNL     1      -1.901   0.133  -0.288  0.00  0.00    -0.104 S 
ATOM     27  C   UNL     1      -1.654   1.848  -0.238  0.00  0.00    +0.057 A 
ENDBRANCH  20  23
ENDBRANCH  17  18
ENDBRANCH  16  17
ENDBRANCH   5  16
TORSDOF 5
