REMARK  Name = ZINC36005183
REMARK  16 active torsions:
REMARK  status: ('A' for Active; 'I' for Inactive)
REMARK    1  A    between atoms: C_1  and  C_2
REMARK    2  A    between atoms: C_2  and  O_3
REMARK    3  A    between atoms: O_3  and  C_4
REMARK    4  A    between atoms: C_4  and  C_6
REMARK    5  A    between atoms: C_7  and  C_25
REMARK    6  A    between atoms: N_8  and  C_24
REMARK    7  A    between atoms: C_12  and  C_14
REMARK    8  A    between atoms: C_17  and  C_20
REMARK    9  A    between atoms: C_20  and  C_21
REMARK   10  A    between atoms: C_20  and  C_22
REMARK   11  A    between atoms: C_20  and  C_23
REMARK   12  A    between atoms: C_25  and  N_26
REMARK   13  A    between atoms: C_32  and  C_34
REMARK   14  A    between atoms: C_34  and  C_35
REMARK   15  A    between atoms: C_35  and  C_36
REMARK   16  A    between atoms: C_35  and  C_37
REMARK                            x       y       z     vdW  Elec       q    Type
REMARK                         _______ _______ _______ _____ _____    ______ ____
ROOT
ATOM      1  C   UNL     1      -2.795  -2.408   0.112  0.00  0.00    +0.080 C 
ATOM      2  C   UNL     1      -2.985  -3.731  -0.085  0.00  0.00    +0.041 C 
ATOM      3  N   UNL     1      -4.241  -4.258  -0.172  0.00  0.00    -0.260 N 
ATOM      4  C   UNL     1      -5.360  -3.529  -0.073  0.00  0.00    +0.307 C 
ATOM      5  O   UNL     1      -6.436  -4.088  -0.164  0.00  0.00    -0.252 OA
ATOM      6  N   UNL     1      -5.333  -2.196   0.123  0.00  0.00    -0.288 N 
ATOM      7  C   UNL     1      -4.024  -1.531   0.237  0.00  0.00    +0.144 C 
ATOM      8  C   UNL     1      -4.373  -5.701  -0.385  0.00  0.00    +0.139 C 
ATOM      9  H   UNL     1      -6.156  -1.687   0.191  0.00  0.00    +0.151 HD
ENDROOT
BRANCH   7  10
ATOM     10  C   UNL     1      -3.951  -0.472  -0.833  0.00  0.00    -0.022 A 
ATOM     11  C   UNL     1      -4.324  -0.774  -2.129  0.00  0.00    +0.006 A 
ATOM     12  C   UNL     1      -4.257   0.197  -3.111  0.00  0.00    +0.004 A 
ATOM     13  C   UNL     1      -3.817   1.469  -2.797  0.00  0.00    -0.042 A 
ATOM     14  C   UNL     1      -3.445   1.771  -1.500  0.00  0.00    +0.004 A 
ATOM     15  C   UNL     1      -3.516   0.801  -0.517  0.00  0.00    +0.006 A 
BRANCH  13  16
ATOM     16  C   UNL     1      -3.743   2.527  -3.867  0.00  0.00    -0.013 C 
ATOM     17  C   UNL     1      -5.136   2.753  -4.458  0.00  0.00    +0.015 C 
ATOM     18  C   UNL     1      -3.229   3.833  -3.259  0.00  0.00    +0.015 C 
ATOM     19  C   UNL     1      -2.789   2.069  -4.972  0.00  0.00    +0.015 C 
ENDBRANCH  13  16
ENDBRANCH   7  10
BRANCH   1  20
ATOM     20  C   UNL     1      -1.494  -1.861   0.203  0.00  0.00    +0.339 C 
ATOM     21  O   UNL     1      -1.025  -1.585   1.291  0.00  0.00    -0.245 OA
BRANCH  20  22
ATOM     22  O   UNL     1      -0.772  -1.646  -0.917  0.00  0.00    -0.462 OA
BRANCH  22  24
ATOM     23  C   UNL     1       1.194  -0.920  -2.121  0.00  0.00    +0.048 C 
ATOM     24  C   UNL     1       0.534  -1.091  -0.751  0.00  0.00    +0.229 C 
ENDBRANCH  22  24
ENDBRANCH  20  22
ENDBRANCH   1  20
BRANCH   2  25
ATOM     25  C   UNL     1      -1.789  -4.640  -0.210  0.00  0.00    +0.136 C 
BRANCH  25  26
ATOM     26  N   UNL     1      -1.770  -5.582   0.917  0.00  0.00    -0.294 NA
ATOM     27  C   UNL     1      -1.552  -4.878   2.188  0.00  0.00    +0.104 C 
ATOM     28  C   UNL     1      -1.719  -5.864   3.349  0.00  0.00    +0.123 C 
ATOM     29  N   UNL     1      -0.834  -7.016   3.116  0.00  0.00    -0.299 N 
ATOM     30  C   UNL     1      -0.899  -7.689   1.810  0.00  0.00    +0.123 C 
ATOM     31  C   UNL     1      -0.764  -6.632   0.709  0.00  0.00    +0.104 C 
ATOM     32  C   UNL     1       0.013  -7.442   4.073  0.00  0.00    +0.216 C 
ATOM     33  O   UNL     1       0.054  -6.875   5.144  0.00  0.00    -0.276 OA
BRANCH  32  34
ATOM     34  C   UNL     1       0.911  -8.624   3.812  0.00  0.00    +0.099 C 
BRANCH  34  35
ATOM     35  C   UNL     1       1.766  -8.899   5.051  0.00  0.00    -0.008 C 
ATOM     36  C   UNL     1       0.863  -9.324   6.210  0.00  0.00    +0.008 C 
ATOM     37  C   UNL     1       2.764 -10.017   4.745  0.00  0.00    +0.008 C 
ENDBRANCH  34  35
ENDBRANCH  32  34
ENDBRANCH  25  26
ENDBRANCH   2  25
TORSDOF 9
