REMARK  Name = ZINC36643477
REMARK  11 active torsions:
REMARK  status: ('A' for Active; 'I' for Inactive)
REMARK    1  A    between atoms: C_1  and  C_2
REMARK    2  A    between atoms: C_2  and  C_3
REMARK    3  A    between atoms: N_9  and  S_10
REMARK    4  A    between atoms: S_10  and  C_13
REMARK    5  A    between atoms: C_16  and  C_19
REMARK    6  A    between atoms: N_21  and  C_22
REMARK    7  A    between atoms: C_22  and  C_23
REMARK    8  A    between atoms: C_23  and  C_24
REMARK    9  A    between atoms: C_24  and  N_25
REMARK   10  A    between atoms: N_25  and  C_26
REMARK   11  A    between atoms: N_25  and  C_27
REMARK                            x       y       z     vdW  Elec       q    Type
REMARK                         _______ _______ _______ _____ _____    ______ ____
ROOT
ATOM      1  C   UNL     1      -6.157  -2.975   1.553  0.00  0.00    +0.252 C 
ATOM      2  O   UNL     1      -6.513  -3.208   0.415  0.00  0.00    -0.270 OA
ATOM      3  N   UNL     1      -6.898  -3.405   2.593  0.00  0.00    -0.246 N 
ATOM      4  C   UNL     1      -7.985  -4.234   2.372  0.00  0.00    +0.168 A 
ATOM      5  N   UNL     1      -8.874  -4.673   3.233  0.00  0.00    -0.221 NA
ATOM      6  C   UNL     1      -9.893  -5.484   2.874  0.00  0.00    +0.115 A 
ATOM      7  C   UNL     1     -10.911  -6.025   3.696  0.00  0.00    +0.150 A 
ATOM      8  C   UNL     1     -11.880  -6.840   3.166  0.00  0.00    +0.040 A 
ATOM      9  C   UNL     1     -11.898  -7.162   1.817  0.00  0.00    +0.004 A 
ATOM     10  C   UNL     1     -10.918  -6.651   0.986  0.00  0.00    +0.017 A 
ATOM     11  C   UNL     1      -9.945  -5.834   1.506  0.00  0.00    +0.044 A 
ATOM     12  S   UNL     1      -8.540  -4.971   0.842  0.00  0.00    -0.052 S 
ATOM     13  F   UNL     1     -10.929  -5.736   5.016  0.00  0.00    -0.203 F 
ENDROOT
BRANCH   1  17
ATOM     14  C   UNL     1      -2.575  -0.802   2.253  0.00  0.00    +0.106 A 
ATOM     15  C   UNL     1      -2.635  -1.714   1.214  0.00  0.00    +0.029 A 
ATOM     16  C   UNL     1      -3.796  -2.423   0.982  0.00  0.00    +0.015 A 
ATOM     17  C   UNL     1      -4.910  -2.219   1.797  0.00  0.00    +0.037 A 
ATOM     18  C   UNL     1      -4.842  -1.298   2.843  0.00  0.00    +0.015 A 
ATOM     19  C   UNL     1      -3.674  -0.599   3.068  0.00  0.00    +0.029 A 
BRANCH  14  20
ATOM     20  S   UNL     1      -1.089   0.099   2.543  0.00  0.00    +0.061 S 
ATOM     21  O   UNL     1      -1.476   1.362   3.066  0.00  0.00    -0.153 OA
ATOM     22  O   UNL     1      -0.300  -0.029   1.368  0.00  0.00    -0.153 OA
BRANCH  20  28
ATOM     23  C   UNL     1       0.539  -1.873   3.458  0.00  0.00    +0.080 C 
ATOM     24  C   UNL     1       0.098  -3.013   4.381  0.00  0.00    +0.021 C 
ATOM     25  C   UNL     1       0.174  -2.544   5.836  0.00  0.00    +0.003 C 
ATOM     26  C   UNL     1      -0.773  -1.361   6.043  0.00  0.00    +0.017 C 
ATOM     27  C   UNL     1      -0.342  -0.202   5.138  0.00  0.00    +0.110 C 
ATOM     28  N   UNL     1      -0.270  -0.683   3.751  0.00  0.00    -0.174 NA
BRANCH  23  30
ATOM     29  C   UNL     1       1.093  -3.586   1.725  0.00  0.00    +0.005 C 
ATOM     30  C   UNL     1       0.334  -2.287   1.999  0.00  0.00    +0.017 C 
ENDBRANCH  23  30
ENDBRANCH  20  28
ENDBRANCH  14  20
ENDBRANCH   1  17
BRANCH   3  31
ATOM     31  C   UNL     1      -6.553  -2.997   3.957  0.00  0.00    +0.114 C 
BRANCH  31  32
ATOM     32  C   UNL     1      -7.455  -1.837   4.385  0.00  0.00    +0.001 C 
BRANCH  32  33
ATOM     33  C   UNL     1      -6.999  -1.314   5.749  0.00  0.00    -0.078 C 
BRANCH  33  34
ATOM     34  N   UNL     1      -7.864  -0.200   6.160  0.00  0.00    +0.376 N 
ATOM     35  C   UNL     1      -9.232  -0.694   6.370  0.00  0.00    -0.097 C 
ATOM     36  C   UNL     1      -7.355   0.380   7.410  0.00  0.00    -0.097 C 
ATOM     37  H   UNL     1      -7.869   0.506   5.439  0.00  0.00    -0.083 HD
ENDBRANCH  33  34
ENDBRANCH  32  33
ENDBRANCH  31  32
ENDBRANCH   3  31
TORSDOF 8
