REMARK  Name = ZINC38613646
REMARK  8 active torsions:
REMARK  status: ('A' for Active; 'I' for Inactive)
REMARK    1  A    between atoms: C_1  and  C_2
REMARK    2  A    between atoms: C_5  and  C_8
REMARK    3  A    between atoms: C_8  and  O_9
REMARK    4  A    between atoms: O_9  and  C_10
REMARK    5  A    between atoms: C_13  and  C_16
REMARK    6  A    between atoms: C_18  and  C_22
REMARK    7  A    between atoms: N_24  and  N_25
REMARK    8  A    between atoms: C_26  and  C_27
REMARK                            x       y       z     vdW  Elec       q    Type
REMARK                         _______ _______ _______ _____ _____    ______ ____
ROOT
ATOM      1  C   UNL     1       2.204 -10.307  -0.071  0.00  0.00    +0.092 C 
ATOM      2  C   UNL     1       3.413 -10.902  -0.068  0.00  0.00    +0.041 C 
ATOM      3  C   UNL     1       3.089 -12.385  -0.084  0.00  0.00    +0.240 C 
ATOM      4  N   UNL     1       1.617 -12.407  -0.093  0.00  0.00    -0.170 NA
ATOM      5  N   UNL     1       1.217 -11.241  -0.080  0.00  0.00    -0.153 NA
ENDROOT
BRANCH   1   9
ATOM      6  C   UNL     1       1.569  -6.102  -0.035  0.00  0.00    +0.121 A 
ATOM      7  C   UNL     1       0.483  -6.966  -0.045  0.00  0.00    +0.046 A 
ATOM      8  C   UNL     1       0.686  -8.330  -0.057  0.00  0.00    +0.013 A 
ATOM      9  C   UNL     1       1.983  -8.841  -0.059  0.00  0.00    +0.002 A 
ATOM     10  C   UNL     1       3.071  -7.970  -0.049  0.00  0.00    +0.013 A 
ATOM     11  C   UNL     1       2.862  -6.607  -0.043  0.00  0.00    +0.046 A 
BRANCH   6  12
ATOM     12  O   UNL     1       1.366  -4.758  -0.024  0.00  0.00    -0.487 OA
BRANCH  12  13
ATOM     13  C   UNL     1       0.010  -4.307  -0.017  0.00  0.00    +0.264 C 
BRANCH  13  18
ATOM     14  C   UNL     1      -0.101   1.470   0.029  0.00  0.00    +0.044 C 
ATOM     15  C   UNL     1      -0.072  -0.036   0.017  0.00  0.00    -0.050 A 
ATOM     16  C   UNL     1      -0.061  -0.718  -1.186  0.00  0.00    +0.004 A 
ATOM     17  C   UNL     1      -0.034  -2.100  -1.197  0.00  0.00    +0.007 A 
ATOM     18  C   UNL     1      -0.018  -2.800  -0.005  0.00  0.00    -0.010 A 
ATOM     19  C   UNL     1      -0.029  -2.119   1.197  0.00  0.00    +0.007 A 
ATOM     20  C   UNL     1      -0.051  -0.737   1.208  0.00  0.00    +0.004 A 
ENDBRANCH  13  18
ENDBRANCH  12  13
ENDBRANCH   6  12
ENDBRANCH   1   9
BRANCH   3  21
ATOM     21  C   UNL     1       3.626 -13.060   1.152  0.00  0.00    +0.263 C 
ATOM     22  O   UNL     1       2.886 -13.302   2.082  0.00  0.00    -0.271 OA
ATOM     23  N   UNL     1       4.930 -13.396   1.224  0.00  0.00    -0.205 N 
ATOM     24  H   UNL     1       5.522 -13.202   0.480  0.00  0.00    +0.177 HD
BRANCH  23  25
ATOM     25  N   UNL     1       5.429 -14.023   2.372  0.00  0.00    -0.188 NA
ATOM     26  C   UNL     1       6.686 -14.346   2.442  0.00  0.00    +0.139 C 
BRANCH  26  27
ATOM     27  C   UNL     1       7.210 -15.005   3.648  0.00  0.00    +0.002 A 
ATOM     28  C   UNL     1       8.524 -15.457   3.695  0.00  0.00    +0.010 A 
ATOM     29  C   UNL     1       9.015 -16.079   4.835  0.00  0.00    +0.001 A 
ATOM     30  C   UNL     1       8.243 -16.269   5.939  0.00  0.00    +0.008 A 
ATOM     31  C   UNL     1       6.907 -15.837   5.963  0.00  0.00    -0.017 A 
ATOM     32  C   UNL     1       6.363 -15.193   4.824  0.00  0.00    -0.009 A 
ATOM     33  C   UNL     1       5.033 -14.756   4.845  0.00  0.00    +0.009 A 
ATOM     34  C   UNL     1       4.278 -14.951   5.963  0.00  0.00    +0.001 A 
ATOM     35  C   UNL     1       4.811 -15.579   7.086  0.00  0.00    +0.001 A 
ATOM     36  C   UNL     1       6.097 -16.026   7.096  0.00  0.00    +0.008 A 
ENDBRANCH  26  27
ENDBRANCH  23  25
ENDBRANCH   3  21
TORSDOF 7
