REMARK  Name = ZINC22055941
REMARK  13 active torsions:
REMARK  status: ('A' for Active; 'I' for Inactive)
REMARK    1  A    between atoms: C_3  and  O_35
REMARK    2  A    between atoms: C_4  and  C_24
REMARK    3  A    between atoms: C_5  and  O_7
REMARK    4  A    between atoms: O_7  and  C_8
REMARK    5  A    between atoms: C_10  and  O_23
REMARK    6  A    between atoms: C_12  and  O_22
REMARK    7  A    between atoms: C_14  and  O_21
REMARK    8  A    between atoms: C_16  and  C_19
REMARK    9  A    between atoms: C_19  and  O_20
REMARK   10  A    between atoms: C_24  and  C_26
REMARK   11  A    between atoms: C_26  and  C_27
REMARK   12  A    between atoms: C_27  and  C_28
REMARK   13  A    between atoms: C_31  and  O_34
REMARK                            x       y       z     vdW  Elec       q    Type
REMARK                         _______ _______ _______ _____ _____    ______ ____
ROOT
ATOM      1  C   UNL     1      -4.008   4.643  -3.111  0.00  0.00    +0.007 A 
ATOM      2  C   UNL     1      -5.315   4.197  -3.183  0.00  0.00    +0.046 A 
ATOM      3  C   UNL     1      -5.820   3.354  -2.206  0.00  0.00    +0.131 A 
ATOM      4  C   UNL     1      -4.995   2.948  -1.142  0.00  0.00    +0.100 A 
ATOM      5  C   UNL     1      -3.670   3.413  -1.078  0.00  0.00    +0.138 A 
ATOM      6  C   UNL     1      -3.189   4.255  -2.067  0.00  0.00    +0.047 A 
ENDROOT
BRANCH   4   7
ATOM      7  C   UNL     1      -5.515   2.053  -0.106  0.00  0.00    +0.170 C 
ATOM      8  O   UNL     1      -4.801   1.709   0.812  0.00  0.00    -0.292 OA
BRANCH   7   9
ATOM      9  C   UNL     1      -6.936   1.558  -0.181  0.00  0.00    +0.084 C 
BRANCH   9  10
ATOM     10  C   UNL     1      -7.223   0.646   1.013  0.00  0.00    +0.043 C 
BRANCH  10  11
ATOM     11  C   UNL     1      -8.644   0.151   0.938  0.00  0.00    -0.047 A 
ATOM     12  C   UNL     1      -9.658   0.870   1.546  0.00  0.00    +0.007 A 
ATOM     13  C   UNL     1     -10.962   0.422   1.474  0.00  0.00    +0.045 A 
ATOM     14  C   UNL     1     -11.254  -0.756   0.801  0.00  0.00    +0.117 A 
ATOM     15  C   UNL     1     -10.235  -1.478   0.197  0.00  0.00    +0.045 A 
ATOM     16  C   UNL     1      -8.932  -1.022   0.266  0.00  0.00    +0.007 A 
BRANCH  14  17
ATOM     17  O   UNL     1     -12.536  -1.202   0.734  0.00  0.00    -0.507 OA
ATOM     18  H   UNL     1     -12.766  -2.136   0.200  0.00  0.00    +0.292 HD
ENDBRANCH  14  17
ENDBRANCH  10  11
ENDBRANCH   9  10
ENDBRANCH   7   9
ENDBRANCH   4   7
BRANCH   3  19
ATOM     19  O   UNL     1      -7.102   2.919  -2.279  0.00  0.00    -0.506 OA
ATOM     20  H   UNL     1      -7.501   2.250  -1.502  0.00  0.00    +0.292 HD
ENDBRANCH   3  19
BRANCH   5  21
ATOM     21  O   UNL     1      -2.865   3.033  -0.055  0.00  0.00    -0.460 OA
BRANCH  21  22
ATOM     22  C   UNL     1      -1.529   3.540  -0.059  0.00  0.00    +0.339 C 
ATOM     23  C   UNL     1      -0.815   3.110   1.225  0.00  0.00    +0.214 C 
ATOM     24  C   UNL     1      -0.732   1.581   1.266  0.00  0.00    +0.180 C 
ATOM     25  C   UNL     1      -0.013   1.086   0.008  0.00  0.00    +0.177 C 
ATOM     26  C   UNL     1      -0.756   1.594  -1.230  0.00  0.00    +0.179 C 
ATOM     27  O   UNL     1      -0.826   3.021  -1.190  0.00  0.00    -0.331 OA
BRANCH  25  28
ATOM     28  O   UNL     1       1.327   1.582  -0.002  0.00  0.00    -0.386 OA
ATOM     29  H   UNL     1       2.001   1.328  -0.834  0.00  0.00    +0.210 HD
ENDBRANCH  25  28
BRANCH  24  30
ATOM     30  O   UNL     1      -2.051   1.032   1.311  0.00  0.00    -0.386 OA
ATOM     31  H   UNL     1      -2.191  -0.059   1.344  0.00  0.00    +0.210 HD
ENDBRANCH  24  30
BRANCH  23  32
ATOM     32  O   UNL     1      -1.547   3.579   2.359  0.00  0.00    -0.383 OA
ATOM     33  H   UNL     1      -1.184   3.365   3.375  0.00  0.00    +0.210 HD
ENDBRANCH  23  32
BRANCH  26  34
ATOM     34  C   UNL     1      -0.008   1.154  -2.490  0.00  0.00    +0.190 C 
BRANCH  34  35
ATOM     35  O   UNL     1      -0.761   1.527  -3.646  0.00  0.00    -0.392 OA
ATOM     36  H   UNL     1      -0.380   1.292  -4.651  0.00  0.00    +0.210 HD
ENDBRANCH  34  35
ENDBRANCH  26  34
ENDBRANCH  21  22
ENDBRANCH   5  21
TORSDOF 13
