REMARK  Name = ZINC39710306
REMARK  10 active torsions:
REMARK  status: ('A' for Active; 'I' for Inactive)
REMARK    1  A    between atoms: C_1  and  C_2
REMARK    2  A    between atoms: C_9  and  C_14
REMARK    3  A    between atoms: C_14  and  C_16
REMARK    4  A    between atoms: C_14  and  N_28
REMARK    5  A    between atoms: N_20  and  C_21
REMARK    6  A    between atoms: C_21  and  C_22
REMARK    7  A    between atoms: N_28  and  C_29
REMARK    8  A    between atoms: N_28  and  C_36
REMARK    9  A    between atoms: C_29  and  C_30
REMARK   10  A    between atoms: C_36  and  C_37
REMARK                            x       y       z     vdW  Elec       q    Type
REMARK                         _______ _______ _______ _____ _____    ______ ____
ROOT
ATOM      1  C   UNL     1      -1.982  -7.170   3.650  0.00  0.00    +0.143 C 
ENDROOT
BRANCH   1  10
ATOM      2  C   UNL     1      -6.638  -2.255   1.377  0.00  0.00    +0.044 C 
ATOM      3  C   UNL     1      -5.544  -3.271   1.170  0.00  0.00    -0.050 A 
ATOM      4  C   UNL     1      -5.380  -3.850  -0.089  0.00  0.00    +0.005 A 
ATOM      5  C   UNL     1      -4.417  -4.772  -0.351  0.00  0.00    +0.024 A 
ATOM      6  C   UNL     1      -3.530  -5.186   0.659  0.00  0.00    +0.040 A 
ATOM      7  N   UNL     1      -2.589  -6.090   0.390  0.00  0.00    -0.284 N 
ATOM      8  C   UNL     1      -1.724  -6.523   1.292  0.00  0.00    +0.226 C 
ATOM      9  O   UNL     1      -0.886  -7.351   0.987  0.00  0.00    -0.275 OA
ATOM     10  C   UNL     1      -1.780  -5.985   2.704  0.00  0.00    +0.123 C 
ATOM     11  C   UNL     1      -2.849  -4.955   3.015  0.00  0.00    -0.003 C 
ATOM     12  C   UNL     1      -3.680  -4.590   1.998  0.00  0.00    -0.007 A 
ATOM     13  C   UNL     1      -4.736  -3.599   2.210  0.00  0.00    +0.012 A 
ATOM     14  H   UNL     1      -2.536  -6.448  -0.510  0.00  0.00    +0.155 HD
ENDBRANCH   1  10
BRANCH   1  15
ATOM     15  C   UNL     1      -2.442  -6.667   4.994  0.00  0.00    +0.170 A 
ATOM     16  N   UNL     1      -1.712  -6.541   6.075  0.00  0.00    -0.112 NA
ATOM     17  N   UNL     1      -2.465  -6.080   7.013  0.00  0.00    -0.023 NA
ATOM     18  N   UNL     1      -3.657  -5.909   6.559  0.00  0.00    -0.044 NA
ATOM     19  N   UNL     1      -3.682  -6.254   5.316  0.00  0.00    -0.223 N 
BRANCH  19  20
ATOM     20  C   UNL     1      -4.843  -6.210   4.424  0.00  0.00    +0.182 C 
BRANCH  20  21
ATOM     21  C   UNL     1      -5.343  -7.610   4.179  0.00  0.00    -0.026 A 
ATOM     22  C   UNL     1      -4.923  -8.309   3.062  0.00  0.00    +0.005 A 
ATOM     23  C   UNL     1      -5.381  -9.593   2.838  0.00  0.00    +0.000 A 
ATOM     24  C   UNL     1      -6.260 -10.180   3.730  0.00  0.00    +0.000 A 
ATOM     25  C   UNL     1      -6.679  -9.481   4.847  0.00  0.00    +0.000 A 
ATOM     26  C   UNL     1      -6.217  -8.198   5.074  0.00  0.00    +0.005 A 
ENDBRANCH  20  21
ENDBRANCH  19  20
ENDBRANCH   1  15
BRANCH   1  27
ATOM     27  N   UNL     1      -0.712  -7.893   3.807  0.00  0.00    -0.283 NA
BRANCH  27  28
ATOM     28  C   UNL     1      -0.667  -8.605   5.091  0.00  0.00    +0.120 C 
BRANCH  28  29
ATOM     29  C   UNL     1      -1.814  -9.580   5.165  0.00  0.00    -0.033 A 
ATOM     30  C   UNL     1      -3.000  -9.206   5.769  0.00  0.00    +0.005 A 
ATOM     31  C   UNL     1      -4.053 -10.100   5.837  0.00  0.00    +0.000 A 
ATOM     32  C   UNL     1      -3.918 -11.368   5.301  0.00  0.00    +0.000 A 
ATOM     33  C   UNL     1      -2.732 -11.741   4.697  0.00  0.00    +0.000 A 
ATOM     34  C   UNL     1      -1.682 -10.845   4.625  0.00  0.00    +0.005 A 
ENDBRANCH  28  29
ENDBRANCH  27  28
BRANCH  27  35
ATOM     35  C   UNL     1       0.432  -6.983   3.669  0.00  0.00    +0.122 C 
BRANCH  35  36
ATOM     36  C   UNL     1       0.901  -6.978   2.237  0.00  0.00    -0.015 A 
ATOM     37  C   UNL     1       1.152  -8.171   1.577  0.00  0.00    +0.008 A 
ATOM     38  C   UNL     1       1.582  -8.119   0.260  0.00  0.00    +0.020 A 
ATOM     39  C   UNL     1       1.745  -6.888  -0.347  0.00  0.00    +0.111 A 
ATOM     40  N   UNL     1       1.497  -5.773   0.312  0.00  0.00    -0.263 NA
ATOM     41  C   UNL     1       1.081  -5.785   1.563  0.00  0.00    +0.115 A 
ENDBRANCH  35  36
ENDBRANCH  27  35
ENDBRANCH   1  27
TORSDOF 9
