REMARK  Name = ZINC20917034
REMARK  7 active torsions:
REMARK  status: ('A' for Active; 'I' for Inactive)
REMARK    1  A    between atoms: C_9  and  O_34
REMARK    2  A    between atoms: C_10  and  C_11
REMARK    3  A    between atoms: N_12  and  N_13
REMARK    4  A    between atoms: C_17  and  S_20
REMARK    5  A    between atoms: N_18  and  N_19
REMARK    6  A    between atoms: S_20  and  C_21
REMARK    7  A    between atoms: C_21  and  C_22
REMARK                            x       y       z     vdW  Elec       q    Type
REMARK                         _______ _______ _______ _____ _____    ______ ____
ROOT
ATOM      1  N   UNL     1       1.689   3.127   0.002  0.00  0.00    -0.204 N 
ATOM      2  C   UNL     1       1.278   1.802  -0.001  0.00  0.00    +0.254 A 
ATOM      3  N   UNL     1       2.063   0.752  -0.014  0.00  0.00    -0.109 NA
ATOM      4  N   UNL     1       1.255  -0.393  -0.012  0.00  0.00    -0.119 NA
ATOM      5  C   UNL     1       0.002  -0.004   0.002  0.00  0.00    +0.210 A 
ATOM      6  N   UNL     1      -0.016   1.362   0.009  0.00  0.00    -0.211 N 
ATOM      7  H   UNL     1       0.942   3.934   0.013  0.00  0.00    +0.177 HD
ENDROOT
BRANCH   6   8
ATOM      8  N   UNL     1      -1.132   2.150   0.019  0.00  0.00    -0.294 N 
ATOM      9  H   UNL     1      -2.131   1.688   0.027  0.00  0.00    +0.163 HD
ATOM     10  H   UNL     1      -1.032   3.245   0.020  0.00  0.00    +0.163 HD
ENDBRANCH   6   8
BRANCH   1  12
ATOM     11  C   UNL     1       3.440   4.679  -0.007  0.00  0.00    +0.142 C 
ATOM     12  N   UNL     1       3.055   3.437  -0.009  0.00  0.00    -0.187 NA
BRANCH  11  22
ATOM     13  C   UNL     1       6.240   9.009  -0.030  0.00  0.00    +0.001 A 
ATOM     14  C   UNL     1       4.873   8.740  -0.018  0.00  0.00    +0.001 A 
ATOM     15  C   UNL     1       4.412   7.457  -0.015  0.00  0.00    +0.009 A 
ATOM     16  C   UNL     1       5.323   6.394  -0.022  0.00  0.00    -0.006 A 
ATOM     17  C   UNL     1       6.714   6.664  -0.029  0.00  0.00    -0.017 A 
ATOM     18  C   UNL     1       7.154   7.999  -0.027  0.00  0.00    +0.008 A 
ATOM     19  C   UNL     1       7.627   5.596  -0.043  0.00  0.00    +0.012 A 
ATOM     20  C   UNL     1       7.190   4.307  -0.045  0.00  0.00    +0.046 A 
ATOM     21  C   UNL     1       5.833   3.992  -0.033  0.00  0.00    +0.126 A 
ATOM     22  C   UNL     1       4.873   5.004  -0.019  0.00  0.00    +0.044 A 
BRANCH  21  23
ATOM     23  O   UNL     1       5.443   2.691  -0.035  0.00  0.00    -0.506 OA
ATOM     24  H   UNL     1       4.372   2.438  -0.025  0.00  0.00    +0.292 HD
ENDBRANCH  21  23
ENDBRANCH  11  22
ENDBRANCH   1  12
BRANCH   5  25
ATOM     25  S   UNL     1      -1.409  -1.059   0.010  0.00  0.00    -0.075 S 
BRANCH  25  26
ATOM     26  C   UNL     1      -0.707  -2.732  -0.006  0.00  0.00    +0.173 C 
BRANCH  26  27
ATOM     27  C   UNL     1      -1.823  -3.745  -0.001  0.00  0.00    +0.226 C 
ATOM     28  O   UNL     1      -2.978  -3.375   0.012  0.00  0.00    -0.275 OA
ATOM     29  N   UNL     1      -1.537  -5.062  -0.011  0.00  0.00    -0.296 N 
ATOM     30  C   UNL     1      -2.603  -6.077  -0.006  0.00  0.00    +0.113 C 
ATOM     31  C   UNL     1      -2.521  -6.850  -1.321  0.00  0.00    +0.054 C 
ATOM     32  C   UNL     1      -1.103  -7.266  -1.612  0.00  0.00    -0.041 A 
ATOM     33  C   UNL     1      -0.908  -8.304  -2.514  0.00  0.00    +0.004 A 
ATOM     34  C   UNL     1       0.365  -8.729  -2.831  0.00  0.00    +0.000 A 
ATOM     35  C   UNL     1       1.459  -8.117  -2.248  0.00  0.00    +0.000 A 
ATOM     36  C   UNL     1       1.269  -7.087  -1.350  0.00  0.00    +0.005 A 
ATOM     37  C   UNL     1      -0.013  -6.662  -1.026  0.00  0.00    -0.027 A 
ATOM     38  C   UNL     1      -0.151  -5.542  -0.032  0.00  0.00    +0.143 C 
ENDBRANCH  26  27
ENDBRANCH  25  26
ENDBRANCH   5  25
TORSDOF 7
