REMARK  Name = ZINC63663306
REMARK  8 active torsions:
REMARK  status: ('A' for Active; 'I' for Inactive)
REMARK    1  A    between atoms: C_1  and  C_2
REMARK    2  A    between atoms: C_2  and  C_3
REMARK    3  A    between atoms: C_3  and  C_4
REMARK    4  A    between atoms: C_4  and  C_5
REMARK    5  A    between atoms: C_4  and  N_21
REMARK    6  A    between atoms: N_7  and  N_8
REMARK    7  A    between atoms: C_9  and  C_11
REMARK    8  A    between atoms: C_18  and  C_20
REMARK                            x       y       z     vdW  Elec       q    Type
REMARK                         _______ _______ _______ _____ _____    ______ ____
ROOT
ATOM      1  C   UNL     1      -2.822  -2.584  -0.109  0.00  0.00    +0.249 C 
ATOM      2  O   UNL     1      -3.279  -3.293   0.763  0.00  0.00    -0.272 OA
ATOM      3  N   UNL     1      -3.575  -2.263  -1.179  0.00  0.00    -0.233 N 
ATOM      4  H   UNL     1      -3.210  -1.696  -1.877  0.00  0.00    +0.173 HD
ENDROOT
BRANCH   3   5
ATOM      5  N   UNL     1      -4.886  -2.747  -1.284  0.00  0.00    -0.230 N 
ATOM      6  C   UNL     1      -5.639  -2.426  -2.355  0.00  0.00    +0.267 C 
ATOM      7  O   UNL     1      -5.181  -1.715  -3.230  0.00  0.00    -0.268 OA
ATOM      8  H   UNL     1      -5.251  -3.314  -0.587  0.00  0.00    +0.173 HD
BRANCH   6   9
ATOM      9  C   UNL     1      -7.010  -2.933  -2.465  0.00  0.00    +0.076 A 
ATOM     10  C   UNL     1      -7.937  -2.729  -3.471  0.00  0.00    +0.024 A 
ATOM     11  C   UNL     1      -9.174  -3.336  -3.314  0.00  0.00    -0.036 A 
ATOM     12  C   UNL     1      -9.355  -4.074  -2.182  0.00  0.00    -0.006 A 
ATOM     13  S   UNL     1      -7.916  -3.979  -1.341  0.00  0.00    -0.088 S 
ATOM     14  C   UNL     1     -10.595  -4.821  -1.786  0.00  0.00    +0.043 C 
ATOM     15  C   UNL     1     -11.758  -4.326  -2.657  0.00  0.00    +0.009 C 
ATOM     16  C   UNL     1     -11.309  -4.318  -4.120  0.00  0.00    -0.009 C 
ATOM     17  C   UNL     1     -10.292  -3.199  -4.345  0.00  0.00    +0.039 C 
ATOM     18  C   UNL     1     -12.523  -4.090  -5.024  0.00  0.00    +0.008 C 
ENDBRANCH   6   9
ENDBRANCH   3   5
BRANCH   1  19
ATOM     19  C   UNL     1      -1.413  -2.063   0.004  0.00  0.00    +0.162 C 
BRANCH  19  20
ATOM     20  N   UNL     1      -0.810  -2.550   1.248  0.00  0.00    -0.288 N 
ATOM     21  C   UNL     1       0.529  -2.662   1.350  0.00  0.00    +0.298 C 
ATOM     22  O   UNL     1       1.237  -2.358   0.409  0.00  0.00    -0.253 OA
ATOM     23  N   UNL     1       1.083  -3.110   2.494  0.00  0.00    -0.313 N 
ATOM     24  H   UNL     1      -1.375  -2.793   1.998  0.00  0.00    +0.151 HD
ATOM     25  H   UNL     1       0.518  -3.352   3.244  0.00  0.00    +0.146 HD
ATOM     26  H   UNL     1       2.047  -3.190   2.567  0.00  0.00    +0.146 HD
ENDBRANCH  19  20
BRANCH  19  27
ATOM     27  C   UNL     1      -1.433  -0.534   0.013  0.00  0.00    +0.031 C 
BRANCH  27  29
ATOM     28  C   UNL     1      -0.019   1.526   0.010  0.00  0.00    +0.004 C 
ATOM     29  C   UNL     1       0.002  -0.004   0.002  0.00  0.00    -0.001 C 
ENDBRANCH  27  29
ENDBRANCH  19  27
ENDBRANCH   1  19
TORSDOF 6
