REMARK  Name = ZINC20709007
REMARK  5 active torsions:
REMARK  status: ('A' for Active; 'I' for Inactive)
REMARK    1  A    between atoms: C_4  and  N_7
REMARK    2  A    between atoms: C_8  and  C_10
REMARK    3  A    between atoms: C_17  and  C_26
REMARK    4  A    between atoms: C_28  and  N_33
REMARK    5  A    between atoms: C_31  and  O_32
REMARK                            x       y       z     vdW  Elec       q    Type
REMARK                         _______ _______ _______ _____ _____    ______ ____
ROOT
ATOM      1  C   UNL     1       1.033   2.086  -0.472  0.00  0.00    +0.058 A 
ATOM      2  C   UNL     1      -0.094   1.278  -0.614  0.00  0.00    +0.015 A 
ATOM      3  C   UNL     1      -0.014  -0.072  -0.353  0.00  0.00    +0.001 A 
ATOM      4  C   UNL     1       1.192  -0.627   0.045  0.00  0.00    +0.006 A 
ATOM      5  C   UNL     1       2.318   0.155   0.183  0.00  0.00    -0.019 A 
ATOM      6  C   UNL     1       2.263   1.530  -0.062  0.00  0.00    +0.044 A 
ATOM      7  N   UNL     1       3.338   2.390   0.081  0.00  0.00    -0.336 N 
ATOM      8  C   UNL     1       4.637   1.782   0.412  0.00  0.00    +0.108 C 
ATOM      9  C   UNL     1       4.367   0.667   1.401  0.00  0.00    +0.029 C 
ATOM     10  C   UNL     1       3.623  -0.424   0.569  0.00  0.00    +0.049 C 
ATOM     11  C   UNL     1       3.774  -1.642   1.418  0.00  0.00    -0.023 C 
ATOM     12  C   UNL     1       4.872  -1.523   2.158  0.00  0.00    -0.030 C 
ATOM     13  C   UNL     1       5.554  -0.184   1.869  0.00  0.00    +0.033 C 
ATOM     14  H   UNL     1       3.256   3.480  -0.041  0.00  0.00    +0.147 HD
ENDROOT
BRANCH   8  15
ATOM     15  C   UNL     1       5.274   1.222  -0.833  0.00  0.00    +0.017 A 
ATOM     16  C   UNL     1       4.485   0.832  -1.898  0.00  0.00    +0.041 A 
ATOM     17  C   UNL     1       5.069   0.323  -3.043  0.00  0.00    +0.127 A 
ATOM     18  C   UNL     1       6.444   0.193  -3.121  0.00  0.00    +0.036 A 
ATOM     19  C   UNL     1       7.237   0.576  -2.057  0.00  0.00    +0.048 A 
ATOM     20  C   UNL     1       6.653   1.092  -0.909  0.00  0.00    +0.122 A 
BRANCH  17  21
ATOM     21  N   UNL     1       4.222  -0.088  -4.185  0.00  0.00    +0.056 N 
ATOM     22  O   UNL     1       4.735  -0.541  -5.192  0.00  0.00    -0.126 OA
ATOM     23  O   UNL     1       3.011   0.026  -4.117  0.00  0.00    -0.126 OA
ENDBRANCH  17  21
BRANCH  20  24
ATOM     24  O   UNL     1       7.431   1.471   0.139  0.00  0.00    -0.506 OA
ATOM     25  H   UNL     1       8.525   1.367   0.077  0.00  0.00    +0.292 HD
ENDBRANCH  20  24
ENDBRANCH   8  15
BRANCH   1  27
ATOM     26  N   UNL     1      -0.233   4.065  -1.146  0.00  0.00    -0.281 N 
ATOM     27  C   UNL     1       0.939   3.530  -0.753  0.00  0.00    +0.250 C 
ATOM     28  O   UNL     1       1.920   4.238  -0.631  0.00  0.00    -0.270 OA
ATOM     29  H   UNL     1      -1.140   3.442  -1.176  0.00  0.00    +0.155 HD
BRANCH  26  33
ATOM     30  C   UNL     1      -0.426   8.077  -2.248  0.00  0.00    +0.000 A 
ATOM     31  C   UNL     1       0.718   7.345  -2.506  0.00  0.00    +0.002 A 
ATOM     32  C   UNL     1       0.785   6.015  -2.142  0.00  0.00    +0.023 A 
ATOM     33  C   UNL     1      -0.298   5.412  -1.516  0.00  0.00    +0.034 A 
ATOM     34  C   UNL     1      -1.448   6.149  -1.263  0.00  0.00    +0.023 A 
ATOM     35  C   UNL     1      -1.506   7.481  -1.624  0.00  0.00    +0.002 A 
ENDBRANCH  26  33
ENDBRANCH   1  27
TORSDOF 5
