REMARK  Name = ZINC00043748
REMARK  6 active torsions:
REMARK  status: ('A' for Active; 'I' for Inactive)
REMARK    1  A    between atoms: C_1  and  C_2
REMARK    2  A    between atoms: C_5  and  C_7
REMARK    3  A    between atoms: C_9  and  C_22
REMARK    4  A    between atoms: C_10  and  N_21
REMARK    5  A    between atoms: C_17  and  C_19
REMARK    6  A    between atoms: C_17  and  C_20
REMARK                            x       y       z     vdW  Elec       q    Type
REMARK                         _______ _______ _______ _____ _____    ______ ____
ROOT
ATOM      1  C   UNL     1       1.043  -4.062  -0.027  0.00  0.00    +0.108 C 
ATOM      2  C   UNL     1       1.882  -4.285   1.200  0.00  0.00    +0.099 C 
ATOM      3  C   UNL     1       3.235  -4.263   1.122  0.00  0.00    +0.198 C 
ATOM      4  O   UNL     1       3.858  -4.042  -0.048  0.00  0.00    -0.445 OA
ATOM      5  C   UNL     1       3.215  -4.255  -1.212  0.00  0.00    +0.115 C 
ATOM      6  C   UNL     1       1.874  -4.271  -1.270  0.00  0.00    +0.046 C 
ATOM      7  C   UNL     1       1.202  -4.480  -2.489  0.00  0.00    +0.164 C 
ATOM      8  O   UNL     1      -0.012  -4.502  -2.505  0.00  0.00    -0.292 OA
ATOM      9  C   UNL     1       1.961  -4.678  -3.773  0.00  0.00    +0.086 C 
ATOM     10  C   UNL     1       3.306  -3.950  -3.671  0.00  0.00    -0.021 C 
ATOM     11  C   UNL     1       4.046  -4.481  -2.453  0.00  0.00    +0.081 C 
ATOM     12  C   UNL     1       3.067  -2.447  -3.518  0.00  0.00    +0.012 C 
ATOM     13  C   UNL     1       4.132  -4.218  -4.931  0.00  0.00    +0.012 C 
ENDROOT
BRANCH   1  18
ATOM     14  C   UNL     1      -0.018   1.503   0.010  0.00  0.00    +0.051 C 
ATOM     15  C   UNL     1       0.002  -0.004   0.002  0.00  0.00    -0.013 A 
ATOM     16  C   UNL     1      -1.039  -0.872   0.002  0.00  0.00    +0.011 A 
ATOM     17  C   UNL     1      -0.780  -2.230  -0.007  0.00  0.00    +0.012 A 
ATOM     18  C   UNL     1       0.507  -2.653  -0.016  0.00  0.00    +0.003 A 
ATOM     19  S   UNL     1       1.404  -1.109  -0.018  0.00  0.00    -0.097 S 
ENDBRANCH   1  18
BRANCH   3  20
ATOM     20  N   UNL     1       3.980  -4.471   2.256  0.00  0.00    -0.328 N 
ATOM     21  H   UNL     1       3.538  -4.631   3.104  0.00  0.00    +0.145 HD
ATOM     22  H   UNL     1       4.949  -4.457   2.209  0.00  0.00    +0.145 HD
ENDBRANCH   3  20
BRANCH   2  23
ATOM     23  C   UNL     1       1.246  -4.521   2.462  0.00  0.00    +0.101 C 
ATOM     24  N   UNL     1       0.743  -4.708   3.462  0.00  0.00    -0.191 NA
ENDBRANCH   2  23
TORSDOF 3
