REMARK  Name = ZINC09822581
REMARK  7 active torsions:
REMARK  status: ('A' for Active; 'I' for Inactive)
REMARK    1  A    between atoms: C_7  and  C_11
REMARK    2  A    between atoms: C_11  and  C_12
REMARK    3  A    between atoms: C_12  and  N_13
REMARK    4  A    between atoms: C_14  and  C_16
REMARK    5  A    between atoms: C_16  and  N_17
REMARK    6  A    between atoms: N_30  and  C_31
REMARK    7  A    between atoms: C_31  and  C_32
REMARK                            x       y       z     vdW  Elec       q    Type
REMARK                         _______ _______ _______ _____ _____    ______ ____
ROOT
ATOM      1  N   UNL     1      -1.619   7.713   0.060  0.00  0.00    -0.219 N 
ATOM      2  C   UNL     1      -2.388   6.606   0.061  0.00  0.00    +0.292 A 
ATOM      3  O   UNL     1      -3.605   6.702   0.074  0.00  0.00    -0.264 OA
ATOM      4  C   UNL     1      -1.771   5.333   0.048  0.00  0.00    +0.119 A 
ATOM      5  C   UNL     1      -0.378   5.268   0.034  0.00  0.00    +0.033 A 
ATOM      6  C   UNL     1       0.376   6.460   0.033  0.00  0.00    +0.143 A 
ATOM      7  N   UNL     1      -0.224   7.618   0.045  0.00  0.00    -0.175 NA
ATOM      8  C   UNL     1      -0.026   3.841   0.022  0.00  0.00    +0.009 A 
ATOM      9  C   UNL     1       1.183   3.146   0.007  0.00  0.00    +0.010 A 
ATOM     10  C   UNL     1       1.183   1.780   0.000  0.00  0.00    +0.001 A 
ATOM     11  C   UNL     1      -0.013   1.076   0.008  0.00  0.00    +0.002 A 
ATOM     12  C   UNL     1      -1.218   1.742   0.017  0.00  0.00    +0.026 A 
ATOM     13  C   UNL     1      -1.241   3.135   0.031  0.00  0.00    +0.051 A 
ATOM     14  N   UNL     1      -2.272   4.050   0.046  0.00  0.00    -0.331 N 
ENDROOT
BRANCH   1  15
ATOM     15  C   UNL     1      -2.252   9.034   0.073  0.00  0.00    +0.243 C 
BRANCH  15  17
ATOM     16  N   UNL     1      -3.027  10.672   1.756  0.00  0.00    -0.313 N 
ATOM     17  C   UNL     1      -2.456   9.479   1.498  0.00  0.00    +0.235 C 
ATOM     18  O   UNL     1      -2.106   8.764   2.413  0.00  0.00    -0.274 OA
ATOM     19  H   UNL     1      -3.307  11.245   1.025  0.00  0.00    +0.149 HD
BRANCH  16  20
ATOM     20  C   UNL     1      -3.225  11.105   3.142  0.00  0.00    +0.109 C 
BRANCH  20  21
ATOM     21  C   UNL     1      -3.887  12.485   3.156  0.00  0.00    +0.056 C 
BRANCH  21  28
ATOM     22  C   UNL     1      -1.127  14.651   6.264  0.00  0.00    +0.001 A 
ATOM     23  C   UNL     1      -1.752  14.865   7.485  0.00  0.00    +0.002 A 
ATOM     24  C   UNL     1      -3.051  14.456   7.691  0.00  0.00    +0.026 A 
ATOM     25  C   UNL     1      -3.746  13.822   6.667  0.00  0.00    +0.047 A 
ATOM     26  C   UNL     1      -3.108  13.607   5.431  0.00  0.00    +0.003 A 
ATOM     27  C   UNL     1      -1.791  14.030   5.245  0.00  0.00    +0.010 A 
ATOM     28  C   UNL     1      -4.090  12.930   4.581  0.00  0.00    -0.021 A 
ATOM     29  C   UNL     1      -5.208  12.786   5.311  0.00  0.00    +0.087 A 
ATOM     30  N   UNL     1      -5.019  13.308   6.561  0.00  0.00    -0.360 N 
ATOM     31  H   UNL     1      -5.684  13.318   7.267  0.00  0.00    +0.165 HD
ENDBRANCH  21  28
ENDBRANCH  20  21
ENDBRANCH  16  20
ENDBRANCH  15  17
ENDBRANCH   1  15
BRANCH  14  32
ATOM     32  C   UNL     1      -3.696   3.707   0.057  0.00  0.00    +0.157 C 
BRANCH  32  33
ATOM     33  C   UNL     1      -4.198   3.597  -1.359  0.00  0.00    -0.028 A 
ATOM     34  C   UNL     1      -4.713   4.709  -1.998  0.00  0.00    +0.008 A 
ATOM     35  C   UNL     1      -5.169   4.610  -3.299  0.00  0.00    +0.038 A 
ATOM     36  C   UNL     1      -5.120   3.394  -3.959  0.00  0.00    +0.123 A 
ATOM     37  C   UNL     1      -4.608   2.279  -3.316  0.00  0.00    +0.038 A 
ATOM     38  C   UNL     1      -4.148   2.382  -2.017  0.00  0.00    +0.008 A 
ATOM     39  F   UNL     1      -5.569   3.295  -5.229  0.00  0.00    -0.205 F 
ENDBRANCH  32  33
ENDBRANCH  14  32
TORSDOF 7
