REMARK  Name = ZINC64610846
REMARK  6 active torsions:
REMARK  status: ('A' for Active; 'I' for Inactive)
REMARK    1  A    between atoms: C_1  and  C_2
REMARK    2  A    between atoms: C_7  and  N_8
REMARK    3  A    between atoms: N_8  and  S_9
REMARK    4  A    between atoms: S_9  and  C_12
REMARK    5  A    between atoms: C_16  and  C_18
REMARK    6  A    between atoms: C_20  and  C_23
REMARK                            x       y       z     vdW  Elec       q    Type
REMARK                         _______ _______ _______ _____ _____    ______ ____
ROOT
ATOM      1  C   UNL     1       2.500  -0.640   3.443  0.00  0.00    +0.109 A 
ATOM      2  C   UNL     1       3.116  -1.709   2.816  0.00  0.00    +0.029 A 
ATOM      3  C   UNL     1       4.478  -1.687   2.578  0.00  0.00    +0.003 A 
ATOM      4  C   UNL     1       5.232  -0.599   2.965  0.00  0.00    +0.013 A 
ATOM      5  C   UNL     1       4.618   0.482   3.599  0.00  0.00    +0.041 A 
ATOM      6  C   UNL     1       3.241   0.456   3.832  0.00  0.00    +0.042 A 
ENDROOT
BRANCH   5   7
ATOM      7  C   UNL     1       5.419   1.651   4.017  0.00  0.00    +0.259 A 
ATOM      8  N   UNL     1       6.712   1.798   3.847  0.00  0.00    -0.187 NA
ATOM      9  C   UNL     1       7.109   2.979   4.346  0.00  0.00    +0.202 A 
ATOM     10  N   UNL     1       6.066   3.600   4.843  0.00  0.00    -0.056 NA
ATOM     11  O   UNL     1       4.949   2.750   4.633  0.00  0.00    -0.332 OA
BRANCH   9  12
ATOM     12  C   UNL     1       8.499   3.498   4.338  0.00  0.00    +0.022 A 
ATOM     13  C   UNL     1       9.524   2.742   3.773  0.00  0.00    +0.012 A 
ATOM     14  C   UNL     1      10.816   3.229   3.768  0.00  0.00    +0.001 A 
ATOM     15  C   UNL     1      11.094   4.465   4.324  0.00  0.00    +0.000 A 
ATOM     16  C   UNL     1      10.080   5.219   4.886  0.00  0.00    +0.001 A 
ATOM     17  C   UNL     1       8.784   4.745   4.891  0.00  0.00    +0.012 A 
ENDBRANCH   9  12
ENDBRANCH   5   7
BRANCH   1  18
ATOM     18  S   UNL     1       0.764  -0.678   3.741  0.00  0.00    +0.072 S 
ATOM     19  O   UNL     1       0.519   0.207   4.826  0.00  0.00    -0.150 OA
ATOM     20  O   UNL     1       0.387  -2.047   3.775  0.00  0.00    -0.150 OA
BRANCH  18  21
ATOM     21  N   UNL     1       0.025  -0.016   2.415  0.00  0.00    -0.216 N 
ATOM     22  H   UNL     1      -0.522   0.779   2.511  0.00  0.00    +0.174 HD
BRANCH  21  29
ATOM     23  C   UNL     1       0.153   1.691   0.143  0.00  0.00    +0.046 C 
ATOM     24  C   UNL     1       0.258   0.193   0.022  0.00  0.00    -0.028 A 
ATOM     25  C   UNL     1       0.426  -0.391  -1.218  0.00  0.00    +0.005 A 
ATOM     26  C   UNL     1       0.522  -1.765  -1.331  0.00  0.00    +0.000 A 
ATOM     27  C   UNL     1       0.450  -2.561  -0.202  0.00  0.00    +0.002 A 
ATOM     28  C   UNL     1       0.282  -1.984   1.042  0.00  0.00    +0.025 A 
ATOM     29  C   UNL     1       0.190  -0.603   1.159  0.00  0.00    +0.051 A 
ENDBRANCH  21  29
ENDBRANCH  18  21
ENDBRANCH   1  18
TORSDOF 5
