REMARK  Name = ZINC09433698
REMARK  13 active torsions:
REMARK  status: ('A' for Active; 'I' for Inactive)
REMARK    1  A    between atoms: C_1  and  C_2
REMARK    2  A    between atoms: C_2  and  C_3
REMARK    3  A    between atoms: C_3  and  C_5
REMARK    4  A    between atoms: C_3  and  N_77
REMARK    5  A    between atoms: C_6  and  C_7
REMARK    6  A    between atoms: C_6  and  N_77
REMARK    7  A    between atoms: C_7  and  C_8
REMARK    8  A    between atoms: C_8  and  N_9
REMARK    9  A    between atoms: C_10  and  C_12
REMARK   10  A    between atoms: N_22  and  C_30
REMARK   11  A    between atoms: C_23  and  C_25
REMARK   12  A    between atoms: C_35  and  C_36
REMARK   13  A    between atoms: C_35  and  N_77
REMARK                            x       y       z     vdW  Elec       q    Type
REMARK                         _______ _______ _______ _____ _____    ______ ____
ROOT
ATOM      1  C   UNL     1      -0.892   0.224   2.490  0.00  0.00    +0.131 C 
ATOM      2  C   UNL     1      -0.839  -0.293   1.077  0.00  0.00    -0.021 A 
ATOM      3  C   UNL     1      -0.088   0.353   0.119  0.00  0.00    +0.005 A 
ATOM      4  C   UNL     1      -0.041  -0.141  -1.173  0.00  0.00    +0.000 A 
ATOM      5  C   UNL     1      -0.744  -1.283  -1.512  0.00  0.00    +0.001 A 
ATOM      6  C   UNL     1      -1.504  -1.937  -0.563  0.00  0.00    +0.013 A 
ATOM      7  C   UNL     1      -1.559  -1.440   0.737  0.00  0.00    +0.041 A 
ATOM      8  C   UNL     1      -2.379  -2.106   1.771  0.00  0.00    +0.248 C 
ATOM      9  O   UNL     1      -2.820  -3.223   1.581  0.00  0.00    -0.270 OA
ATOM     10  N   UNL     1      -2.634  -1.461   2.926  0.00  0.00    -0.286 N 
ATOM     11  C   UNL     1      -2.262  -0.059   3.100  0.00  0.00    +0.130 C 
ENDROOT
BRANCH  11  12
ATOM     12  C   UNL     1      -3.292   0.815   2.431  0.00  0.00    +0.011 A 
ATOM     13  C   UNL     1      -3.845   1.972   2.870  0.00  0.00    +0.013 A 
ATOM     14  C   UNL     1      -4.779   2.612   2.077  0.00  0.00    +0.008 A 
ATOM     15  C   UNL     1      -5.121   2.058   0.888  0.00  0.00    +0.045 A 
ATOM     16  S   UNL     1      -4.104   0.591   0.857  0.00  0.00    -0.100 S 
ENDBRANCH  11  12
BRANCH  10  17
ATOM     17  C   UNL     1      -3.294  -2.176   4.021  0.00  0.00    +0.077 C 
ATOM     18  C   UNL     1      -2.467  -3.416   4.418  0.00  0.00    +0.022 C 
ATOM     19  C   UNL     1      -3.532  -4.491   4.753  0.00  0.00    +0.002 C 
ATOM     20  C   UNL     1      -4.629  -4.229   3.692  0.00  0.00    +0.002 C 
ATOM     21  C   UNL     1      -4.669  -2.692   3.560  0.00  0.00    +0.022 C 
ENDBRANCH  10  17
BRANCH   1  23
ATOM     22  N   UNL     1      -0.042   2.294   3.544  0.00  0.00    -0.315 N 
ATOM     23  C   UNL     1      -0.643   1.710   2.489  0.00  0.00    +0.223 C 
ATOM     24  O   UNL     1      -0.978   2.380   1.535  0.00  0.00    -0.275 OA
ATOM     25  H   UNL     1       0.279   1.751   4.281  0.00  0.00    +0.149 HD
BRANCH  22  26
ATOM     26  C   UNL     1       0.126   3.749   3.579  0.00  0.00    +0.102 C 
BRANCH  26  27
ATOM     27  C   UNL     1       0.831   4.150   4.876  0.00  0.00    +0.000 C 
BRANCH  27  28
ATOM     28  C   UNL     1       1.006   5.669   4.913  0.00  0.00    -0.076 C 
BRANCH  28  29
ATOM     29  N   UNL     1       1.511   6.057   6.247  0.00  0.00    +0.386 N 
ATOM     30  H   UNL     1       0.974   5.556   6.965  0.00  0.00    -0.081 HD
BRANCH  29  31
ATOM     31  C   UNL     1       2.938   5.692   6.373  0.00  0.00    -0.071 C 
ATOM     32  C   UNL     1       3.029   4.285   6.966  0.00  0.00    -0.013 C 
BRANCH  31  34
ATOM     33  C   UNL     1       3.656   7.149   4.474  0.00  0.00    +0.002 C 
ATOM     34  C   UNL     1       3.616   5.713   5.002  0.00  0.00    -0.019 C 
ENDBRANCH  31  34
ENDBRANCH  29  31
BRANCH  29  35
ATOM     35  C   UNL     1       1.342   7.511   6.448  0.00  0.00    -0.003 C 
BRANCH  35  36
ATOM     36  C   UNL     1       1.639   7.841   7.888  0.00  0.00    +0.089 A 
ATOM     37  C   UNL     1       2.813   8.292   8.366  0.00  0.00    +0.042 A 
ATOM     38  C   UNL     1       2.648   8.469   9.758  0.00  0.00    +0.041 A 
ATOM     39  C   UNL     1       1.386   8.107  10.050  0.00  0.00    +0.195 A 
ATOM     40  O   UNL     1       0.779   7.728   8.914  0.00  0.00    -0.470 OA
ENDBRANCH  35  36
ENDBRANCH  29  35
ENDBRANCH  28  29
ENDBRANCH  27  28
ENDBRANCH  26  27
ENDBRANCH  22  26
ENDBRANCH   1  23
TORSDOF 11
