REMARK  Name = ZINC20489811
REMARK  9 active torsions:
REMARK  status: ('A' for Active; 'I' for Inactive)
REMARK    1  A    between atoms: N_14  and  C_15
REMARK    2  A    between atoms: C_15  and  C_16
REMARK    3  A    between atoms: C_16  and  C_17
REMARK    4  A    between atoms: C_17  and  C_18
REMARK    5  A    between atoms: N_20  and  C_21
REMARK    6  A    between atoms: C_21  and  C_22
REMARK    7  A    between atoms: C_22  and  C_23
REMARK    8  A    between atoms: C_23  and  N_24
REMARK    9  A    between atoms: C_27  and  N_30
REMARK                            x       y       z     vdW  Elec       q    Type
REMARK                         _______ _______ _______ _____ _____    ______ ____
ROOT
ATOM      1  C   UNL     1       7.071   1.466   2.802  0.00  0.00    +0.213 C 
ATOM      2  O   UNL     1       6.411   1.046   3.728  0.00  0.00    -0.276 OA
ATOM      3  N   UNL     1       8.200   2.163   3.041  0.00  0.00    -0.315 N 
ATOM      4  H   UNL     1       8.728   2.500   2.300  0.00  0.00    +0.149 HD
ENDROOT
BRANCH   1   5
ATOM      5  C   UNL     1       6.630   1.210   1.384  0.00  0.00    +0.097 C 
BRANCH   5   6
ATOM      6  C   UNL     1       5.330   0.403   1.393  0.00  0.00    +0.031 C 
BRANCH   6   7
ATOM      7  C   UNL     1       4.881   0.142  -0.046  0.00  0.00    +0.126 C 
BRANCH   7  21
ATOM      8  C   UNL     1      -0.017   1.377   0.010  0.00  0.00    +0.002 A 
ATOM      9  C   UNL     1       1.170   2.089   0.002  0.00  0.00    +0.002 A 
ATOM     10  C   UNL     1       2.380   1.424  -0.013  0.00  0.00    +0.028 A 
ATOM     11  C   UNL     1       2.410   0.034  -0.021  0.00  0.00    +0.069 A 
ATOM     12  C   UNL     1       1.214  -0.682  -0.014  0.00  0.00    +0.070 A 
ATOM     13  C   UNL     1       0.002  -0.004   0.002  0.00  0.00    +0.028 A 
ATOM     14  N   UNL     1       1.229  -2.081  -0.022  0.00  0.00    -0.310 N 
ATOM     15  C   UNL     1       0.234  -3.002  -0.019  0.00  0.00    +0.092 A 
ATOM     16  C   UNL     1       0.782  -4.242  -0.032  0.00  0.00    +0.020 A 
ATOM     17  C   UNL     1       2.173  -4.097  -0.044  0.00  0.00    +0.033 A 
ATOM     18  C   UNL     1       2.438  -2.745  -0.038  0.00  0.00    +0.112 A 
ATOM     19  C   UNL     1       3.684  -1.977  -0.045  0.00  0.00    +0.276 A 
ATOM     20  O   UNL     1       4.758  -2.551  -0.059  0.00  0.00    -0.265 OA
ATOM     21  N   UNL     1       3.636  -0.630  -0.037  0.00  0.00    -0.305 N 
ENDBRANCH   7  21
ENDBRANCH   6   7
ENDBRANCH   5   6
ENDBRANCH   1   5
BRANCH   3  22
ATOM     22  C   UNL     1       8.629   2.413   4.419  0.00  0.00    +0.102 C 
BRANCH  22  23
ATOM     23  C   UNL     1       9.929   3.220   4.410  0.00  0.00    +0.000 C 
BRANCH  23  24
ATOM     24  C   UNL     1      10.377   3.481   5.849  0.00  0.00    -0.077 C 
BRANCH  24  25
ATOM     25  N   UNL     1      11.626   4.255   5.841  0.00  0.00    +0.380 N 
ATOM     26  C   UNL     1      12.694   3.452   5.232  0.00  0.00    -0.077 C 
ATOM     27  C   UNL     1      13.976   4.283   5.147  0.00  0.00    +0.000 C 
ATOM     28  C   UNL     1      14.396   4.709   6.556  0.00  0.00    +0.053 C 
ATOM     29  C   UNL     1      13.246   5.482   7.209  0.00  0.00    +0.000 C 
ATOM     30  C   UNL     1      11.991   4.607   7.218  0.00  0.00    -0.077 C 
ATOM     31  H   UNL     1      11.494   5.098   5.303  0.00  0.00    -0.082 HD
BRANCH  28  32
ATOM     32  N   UNL     1      15.583   5.571   6.476  0.00  0.00    -0.300 NA
ATOM     33  C   UNL     1      16.673   4.899   5.756  0.00  0.00    +0.084 C 
ATOM     34  C   UNL     1      17.837   5.873   5.564  0.00  0.00    +0.015 C 
ATOM     35  C   UNL     1      18.325   6.354   6.934  0.00  0.00    +0.002 C 
ATOM     36  C   UNL     1      17.159   7.007   7.682  0.00  0.00    +0.015 C 
ATOM     37  C   UNL     1      16.015   5.999   7.812  0.00  0.00    +0.084 C 
ENDBRANCH  28  32
ENDBRANCH  24  25
ENDBRANCH  23  24
ENDBRANCH  22  23
ENDBRANCH   3  22
TORSDOF 9
