REMARK  Name = ZINC34377564
REMARK  15 active torsions:
REMARK  status: ('A' for Active; 'I' for Inactive)
REMARK    1  A    between atoms: C_1  and  C_2
REMARK    2  A    between atoms: C_2  and  C_3
REMARK    3  A    between atoms: C_3  and  C_4
REMARK    4  A    between atoms: C_4  and  N_5
REMARK    5  A    between atoms: C_15  and  C_16
REMARK    6  A    between atoms: C_16  and  C_17
REMARK    7  A    between atoms: C_20  and  O_23
REMARK    8  A    between atoms: O_23  and  C_24
REMARK    9  A    between atoms: C_24  and  C_25
REMARK   10  A    between atoms: C_25  and  C_26
REMARK   11  A    between atoms: N_32  and  C_33
REMARK   12  A    between atoms: C_33  and  C_34
REMARK   13  A    between atoms: C_34  and  N_35
REMARK   14  A    between atoms: N_35  and  C_36
REMARK   15  A    between atoms: N_35  and  C_37
REMARK                            x       y       z     vdW  Elec       q    Type
REMARK                         _______ _______ _______ _____ _____    ______ ____
ROOT
ATOM      1  N   UNL     1      -2.619  -2.907   0.553  0.00  0.00    -0.269 N 
ATOM      2  C   UNL     1      -3.452  -3.332   1.590  0.00  0.00    +0.042 A 
ATOM      3  C   UNL     1      -3.195  -3.515   2.947  0.00  0.00    +0.024 A 
ATOM      4  C   UNL     1      -4.197  -3.950   3.790  0.00  0.00    +0.002 A 
ATOM      5  C   UNL     1      -5.463  -4.207   3.295  0.00  0.00    +0.000 A 
ATOM      6  C   UNL     1      -5.726  -4.029   1.949  0.00  0.00    +0.008 A 
ATOM      7  C   UNL     1      -4.728  -3.595   1.104  0.00  0.00    +0.011 A 
ATOM      8  C   UNL     1      -4.678  -3.309  -0.373  0.00  0.00    +0.174 C 
ATOM      9  C   UNL     1      -3.262  -2.859  -0.628  0.00  0.00    +0.253 C 
ATOM     10  O   UNL     1      -2.792  -2.522  -1.694  0.00  0.00    -0.272 OA
ATOM     11  C   UNL     1      -5.017  -4.534  -1.178  0.00  0.00    +0.089 C 
ATOM     12  C   UNL     1      -6.085  -4.206  -1.945  0.00  0.00    +0.250 C 
ATOM     13  O   UNL     1      -6.706  -5.031  -2.820  0.00  0.00    -0.282 OA
ATOM     14  C   UNL     1      -6.464  -2.802  -1.674  0.00  0.00    +0.288 C 
ATOM     15  O   UNL     1      -7.383  -2.212  -2.206  0.00  0.00    -0.266 OA
ATOM     16  N   UNL     1      -5.637  -2.274  -0.750  0.00  0.00    -0.275 N 
ENDROOT
BRANCH  11  17
ATOM     17  C   UNL     1      -4.329  -5.828  -1.139  0.00  0.00    +0.196 C 
ATOM     18  O   UNL     1      -4.510  -6.587  -0.205  0.00  0.00    -0.287 OA
BRANCH  17  19
ATOM     19  C   UNL     1      -3.415  -6.211  -2.234  0.00  0.00    +0.022 A 
ATOM     20  C   UNL     1      -3.248  -5.366  -3.335  0.00  0.00    +0.015 A 
ATOM     21  C   UNL     1      -2.395  -5.727  -4.354  0.00  0.00    +0.046 A 
ATOM     22  C   UNL     1      -1.700  -6.929  -4.288  0.00  0.00    +0.121 A 
ATOM     23  C   UNL     1      -1.864  -7.773  -3.195  0.00  0.00    +0.046 A 
ATOM     24  C   UNL     1      -2.710  -7.417  -2.169  0.00  0.00    +0.015 A 
BRANCH  22  25
ATOM     25  O   UNL     1      -0.860  -7.281  -5.294  0.00  0.00    -0.492 OA
BRANCH  25  26
ATOM     26  C   UNL     1      -0.177  -8.530  -5.163  0.00  0.00    +0.229 C 
BRANCH  26  27
ATOM     27  C   UNL     1       0.717  -8.753  -6.383  0.00  0.00    +0.038 C 
ATOM     28  C   UNL     1       1.448 -10.090  -6.243  0.00  0.00    +0.007 C 
ENDBRANCH  26  27
ENDBRANCH  25  26
ENDBRANCH  22  25
ENDBRANCH  17  19
ENDBRANCH  11  17
BRANCH   1  29
ATOM     29  C   UNL     1      -1.210  -2.548   0.731  0.00  0.00    +0.114 C 
BRANCH  29  30
ATOM     30  C   UNL     1      -1.107  -1.084   1.163  0.00  0.00    +0.019 C 
BRANCH  30  32
ATOM     31  C   UNL     1       0.468   0.755   1.780  0.00  0.00    +0.004 C 
ATOM     32  C   UNL     1       0.365  -0.709   1.349  0.00  0.00    -0.002 C 
ENDBRANCH  30  32
ENDBRANCH  29  30
ENDBRANCH   1  29
BRANCH  16  33
ATOM     33  C   UNL     1      -5.691  -0.909  -0.219  0.00  0.00    +0.091 C 
BRANCH  33  34
ATOM     34  C   UNL     1      -4.821   0.008  -1.081  0.00  0.00    -0.060 C 
BRANCH  34  35
ATOM     35  N   UNL     1      -4.875   1.376  -0.549  0.00  0.00    +0.377 N 
ATOM     36  C   UNL     1      -3.948   2.231  -1.302  0.00  0.00    -0.097 C 
ATOM     37  C   UNL     1      -6.241   1.899  -0.682  0.00  0.00    -0.097 C 
ATOM     38  H   UNL     1      -4.610   1.369   0.424  0.00  0.00    -0.083 HD
ENDBRANCH  34  35
ENDBRANCH  33  34
ENDBRANCH  16  33
TORSDOF 11
