REMARK  Name = ZINC09619766
REMARK  13 active torsions:
REMARK  status: ('A' for Active; 'I' for Inactive)
REMARK    1  A    between atoms: C_1  and  C_2
REMARK    2  A    between atoms: C_2  and  N_3
REMARK    3  A    between atoms: C_4  and  C_27
REMARK    4  A    between atoms: C_7  and  S_8
REMARK    5  A    between atoms: S_8  and  C_9
REMARK    6  A    between atoms: C_9  and  C_10
REMARK    7  A    between atoms: C_10  and  O_12
REMARK    8  A    between atoms: O_12  and  C_13
REMARK    9  A    between atoms: C_13  and  C_14
REMARK   10  A    between atoms: N_16  and  C_17
REMARK   11  A    between atoms: C_19  and  C_26
REMARK   12  A    between atoms: C_22  and  O_23
REMARK   13  A    between atoms: O_23  and  C_24
REMARK                            x       y       z     vdW  Elec       q    Type
REMARK                         _______ _______ _______ _____ _____    ______ ____
ROOT
ATOM      1  C   UNL     1       3.737  10.697  -0.158  0.00  0.00    +0.318 C 
ATOM      2  O   UNL     1       4.875  10.447  -0.477  0.00  0.00    -0.250 OA
ENDROOT
BRANCH   1   3
ATOM      3  C   UNL     1       2.738   9.581   0.007  0.00  0.00    +0.197 C 
BRANCH   3   4
ATOM      4  S   UNL     1       3.541   7.996  -0.339  0.00  0.00    -0.075 S 
BRANCH   4   9
ATOM      5  N   UNL     1       2.208   5.540  -0.197  0.00  0.00    -0.302 N 
ATOM      6  C   UNL     1       0.928   5.121   0.095  0.00  0.00    +0.171 A 
ATOM      7  N   UNL     1       0.225   6.197   0.371  0.00  0.00    -0.128 NA
ATOM      8  N   UNL     1       0.965   7.243   0.268  0.00  0.00    -0.122 NA
ATOM      9  C   UNL     1       2.185   6.902  -0.079  0.00  0.00    +0.192 A 
BRANCH   6  10
ATOM     10  C   UNL     1       0.443   3.732   0.103  0.00  0.00    +0.056 A 
ATOM     11  C   UNL     1      -0.848   3.267   0.114  0.00  0.00    +0.019 A 
ATOM     12  C   UNL     1      -1.061   1.907   0.113  0.00  0.00    +0.008 A 
ATOM     13  C   UNL     1       0.008   1.069   0.113  0.00  0.00    +0.046 A 
ATOM     14  S   UNL     1       1.380   2.212   0.100  0.00  0.00    -0.094 S 
ENDBRANCH   6  10
BRANCH   5  16
ATOM     15  C   UNL     1       3.395   4.527  -2.079  0.00  0.00    +0.027 C 
ATOM     16  C   UNL     1       3.353   4.701  -0.560  0.00  0.00    +0.122 C 
ENDBRANCH   5  16
ENDBRANCH   4   9
ENDBRANCH   3   4
ENDBRANCH   1   3
BRANCH   1  17
ATOM     17  O   UNL     1       3.362  11.969   0.049  0.00  0.00    -0.455 OA
BRANCH  17  18
ATOM     18  C   UNL     1       4.377  12.992  -0.128  0.00  0.00    +0.328 C 
BRANCH  18  19
ATOM     19  C   UNL     1       3.777  14.347   0.146  0.00  0.00    +0.255 C 
ATOM     20  O   UNL     1       2.609  14.441   0.459  0.00  0.00    -0.272 OA
ATOM     21  N   UNL     1       4.538  15.455   0.042  0.00  0.00    -0.280 N 
ATOM     22  H   UNL     1       5.486  15.376  -0.145  0.00  0.00    +0.155 HD
BRANCH  21  23
ATOM     23  C   UNL     1       3.959  16.721   0.205  0.00  0.00    +0.076 A 
ATOM     24  C   UNL     1       2.922  16.900   1.108  0.00  0.00    +0.031 A 
ATOM     25  C   UNL     1       2.352  18.149   1.267  0.00  0.00    -0.030 A 
ATOM     26  C   UNL     1       2.814  19.223   0.526  0.00  0.00    +0.047 A 
ATOM     27  C   UNL     1       3.848  19.051  -0.376  0.00  0.00    +0.067 A 
ATOM     28  C   UNL     1       4.427  17.803  -0.537  0.00  0.00    +0.143 A 
ATOM     29 CL   UNL     1       2.094  20.790   0.731  0.00  0.00    -0.083 Cl
ATOM     30  C   UNL     1       1.226  18.343   2.249  0.00  0.00    +0.045 C 
BRANCH  28  31
ATOM     31  O   UNL     1       5.447  17.634  -1.420  0.00  0.00    -0.493 OA
ATOM     32  C   UNL     1       5.876  18.788  -2.146  0.00  0.00    +0.277 C 
ENDBRANCH  28  31
ENDBRANCH  21  23
ENDBRANCH  18  19
ENDBRANCH  17  18
ENDBRANCH   1  17
TORSDOF 10
