REMARK  Name = ZINC01279910
REMARK  5 active torsions:
REMARK  status: ('A' for Active; 'I' for Inactive)
REMARK    1  A    between atoms: C_1  and  C_2
REMARK    2  A    between atoms: C_5  and  C_8
REMARK    3  A    between atoms: C_10  and  C_21
REMARK    4  A    between atoms: C_12  and  N_20
REMARK    5  A    between atoms: C_13  and  C_17
REMARK                            x       y       z     vdW  Elec       q    Type
REMARK                         _______ _______ _______ _____ _____    ______ ____
ROOT
ATOM      1  C   UNL     1      -0.538  -1.793   1.379  0.00  0.00    +0.073 A 
ATOM      2  C   UNL     1       0.797  -2.187   1.450  0.00  0.00    +0.040 A 
ATOM      3  C   UNL     1       1.791  -1.383   0.909  0.00  0.00    +0.031 A 
ATOM      4  C   UNL     1       1.418  -0.149   0.282  0.00  0.00    +0.040 A 
ATOM      5  C   UNL     1       2.256   0.806  -0.323  0.00  0.00    +0.054 A 
ATOM      6  C   UNL     1       1.696   1.940  -0.876  0.00  0.00    +0.097 A 
ATOM      7  S   UNL     1      -0.046   1.714  -0.567  0.00  0.00    -0.062 S 
ATOM      8  C   UNL     1       0.036   0.148   0.270  0.00  0.00    +0.112 A 
ATOM      9  N   UNL     1      -0.869  -0.646   0.795  0.00  0.00    -0.239 NA
ENDROOT
BRANCH   1  14
ATOM     10  C   UNL     1      -4.639  -5.148   3.633  0.00  0.00    +0.044 C 
ATOM     11  C   UNL     1      -3.566  -4.270   3.043  0.00  0.00    -0.050 A 
ATOM     12  C   UNL     1      -3.910  -3.076   2.435  0.00  0.00    +0.004 A 
ATOM     13  C   UNL     1      -2.931  -2.268   1.893  0.00  0.00    +0.010 A 
ATOM     14  C   UNL     1      -1.594  -2.657   1.960  0.00  0.00    +0.000 A 
ATOM     15  C   UNL     1      -1.254  -3.864   2.569  0.00  0.00    +0.010 A 
ATOM     16  C   UNL     1      -2.241  -4.661   3.112  0.00  0.00    +0.004 A 
ENDBRANCH   1  14
BRANCH   6  17
ATOM     17  C   UNL     1       2.345   3.018  -1.528  0.00  0.00    +0.250 C 
ATOM     18  O   UNL     1       3.556   3.012  -1.655  0.00  0.00    -0.270 OA
ATOM     19  N   UNL     1       1.621   4.049  -2.007  0.00  0.00    -0.325 N 
ATOM     20  H   UNL     1       0.657   4.053  -1.906  0.00  0.00    +0.145 HD
ATOM     21  H   UNL     1       2.066   4.787  -2.454  0.00  0.00    +0.145 HD
ENDBRANCH   6  17
BRANCH   3  22
ATOM     22  C   UNL     1       3.205  -1.790   0.979  0.00  0.00    +0.136 A 
ATOM     23  C   UNL     1       3.726  -2.955   0.503  0.00  0.00    +0.050 A 
ATOM     24  C   UNL     1       5.106  -2.925   0.779  0.00  0.00    +0.042 A 
ATOM     25  C   UNL     1       5.357  -1.760   1.411  0.00  0.00    +0.196 A 
ATOM     26  O   UNL     1       4.208  -1.078   1.530  0.00  0.00    -0.463 OA
ENDBRANCH   3  22
BRANCH   5  27
ATOM     27  N   UNL     1       3.630   0.609  -0.364  0.00  0.00    -0.356 N 
ATOM     28  H   UNL     1       3.992  -0.291  -0.361  0.00  0.00    +0.142 HD
ATOM     29  H   UNL     1       4.229   1.372  -0.396  0.00  0.00    +0.142 HD
ENDBRANCH   5  27
TORSDOF 4
