REMARK  Name = ZINC40610307
REMARK  6 active torsions:
REMARK  status: ('A' for Active; 'I' for Inactive)
REMARK    1  A    between atoms: C_4  and  C_7
REMARK    2  A    between atoms: C_7  and  C_8
REMARK    3  A    between atoms: C_8  and  N_9
REMARK    4  A    between atoms: C_11  and  N_28
REMARK    5  A    between atoms: C_12  and  O_16
REMARK    6  A    between atoms: O_16  and  C_17
REMARK                            x       y       z     vdW  Elec       q    Type
REMARK                         _______ _______ _______ _____ _____    ______ ____
ROOT
ATOM      1  N   UNL     1       5.349  -1.845   1.402  0.00  0.00    -0.327 N 
ATOM      2  C   UNL     1       5.975  -2.187   2.591  0.00  0.00    +0.156 A 
ATOM      3  C   UNL     1       7.237  -2.777   2.580  0.00  0.00    +0.227 A 
ATOM      4  C   UNL     1       7.822  -3.100   3.798  0.00  0.00    +0.256 A 
ATOM      5  N   UNL     1       7.162  -2.836   4.923  0.00  0.00    -0.199 NA
ATOM      6  C   UNL     1       5.970  -2.276   4.892  0.00  0.00    +0.227 A 
ATOM      7  N   UNL     1       5.383  -1.950   3.759  0.00  0.00    -0.218 NA
ATOM      8  H   UNL     1       5.787  -2.021   0.555  0.00  0.00    +0.148 HD
ENDROOT
BRANCH   3   9
ATOM      9  N   UNL     1       7.935  -3.054   1.305  0.00  0.00    +0.065 N 
ATOM     10  O   UNL     1       8.664  -2.219   0.821  0.00  0.00    -0.126 OA
ATOM     11  O   UNL     1       7.776  -4.114   0.746  0.00  0.00    -0.126 OA
ENDBRANCH   3   9
BRANCH   1  12
ATOM     12  C   UNL     1       4.024  -1.219   1.426  0.00  0.00    +0.107 C 
BRANCH  12  13
ATOM     13  C   UNL     1       3.563  -0.947  -0.007  0.00  0.00    +0.054 C 
BRANCH  13  17
ATOM     14  C   UNL     1      -0.298   0.879   0.060  0.00  0.00    +0.000 A 
ATOM     15  C   UNL     1       0.839   1.665   0.091  0.00  0.00    +0.000 A 
ATOM     16  C   UNL     1       2.088   1.074   0.069  0.00  0.00    +0.004 A 
ATOM     17  C   UNL     1       2.201  -0.303   0.018  0.00  0.00    -0.046 A 
ATOM     18  C   UNL     1       1.064  -1.088  -0.012  0.00  0.00    +0.004 A 
ATOM     19  C   UNL     1      -0.185  -0.497   0.008  0.00  0.00    +0.000 A 
ENDBRANCH  13  17
ENDBRANCH  12  13
ENDBRANCH   1  12
BRANCH   4  20
ATOM     20  O   UNL     1       9.048  -3.677   3.839  0.00  0.00    -0.434 OA
BRANCH  20  21
ATOM     21  C   UNL     1       9.619  -3.876   5.056  0.00  0.00    +0.156 A 
ATOM     22  C   UNL     1      10.487  -2.943   5.575  0.00  0.00    +0.049 A 
ATOM     23  C   UNL     1      11.079  -3.133   6.820  0.00  0.00    +0.019 A 
ATOM     24  C   UNL     1      10.814  -4.247   7.559  0.00  0.00    +0.027 A 
ATOM     25  C   UNL     1       9.933  -5.222   7.063  0.00  0.00    +0.018 A 
ATOM     26  C   UNL     1       9.320  -5.037   5.799  0.00  0.00    +0.114 A 
ATOM     27  N   UNL     1       8.478  -5.960   5.326  0.00  0.00    -0.251 NA
ATOM     28  C   UNL     1       8.197  -7.042   6.011  0.00  0.00    +0.111 A 
ATOM     29  C   UNL     1       8.760  -7.283   7.263  0.00  0.00    +0.020 A 
ATOM     30  C   UNL     1       9.638  -6.385   7.800  0.00  0.00    +0.013 A 
ATOM     31 BR   UNL     1      11.633  -4.481   9.247  0.00  0.00    -0.050 Br
ENDBRANCH  20  21
ENDBRANCH   4  20
TORSDOF 6
