REMARK  Name = ZINC36500056
REMARK  12 active torsions:
REMARK  status: ('A' for Active; 'I' for Inactive)
REMARK    1  A    between atoms: C_1  and  C_2
REMARK    2  A    between atoms: C_2  and  C_3
REMARK    3  A    between atoms: C_3  and  C_4
REMARK    4  A    between atoms: C_4  and  N_5
REMARK    5  A    between atoms: C_6  and  C_8
REMARK    6  A    between atoms: C_8  and  C_10
REMARK    7  A    between atoms: C_8  and  N_20
REMARK    8  A    between atoms: C_12  and  N_17
REMARK    9  A    between atoms: N_20  and  C_21
REMARK   10  A    between atoms: C_21  and  C_22
REMARK   11  A    between atoms: C_27  and  C_29
REMARK   12  A    between atoms: C_30  and  C_31
REMARK                            x       y       z     vdW  Elec       q    Type
REMARK                         _______ _______ _______ _____ _____    ______ ____
ROOT
ATOM      1  C   UNL     1       2.277  -4.340  -3.955  0.00  0.00    +0.195 C 
ENDROOT
BRANCH   1   2
ATOM      2  C   UNL     1       1.823  -3.850  -5.306  0.00  0.00    +0.002 A 
ATOM      3  C   UNL     1       1.117  -4.692  -6.146  0.00  0.00    +0.040 A 
ATOM      4  C   UNL     1       0.701  -4.242  -7.384  0.00  0.00    +0.127 A 
ATOM      5  C   UNL     1       0.989  -2.951  -7.784  0.00  0.00    +0.034 A 
ATOM      6  C   UNL     1       1.693  -2.108  -6.946  0.00  0.00    +0.022 A 
ATOM      7  C   UNL     1       2.106  -2.556  -5.703  0.00  0.00    +0.047 A 
ATOM      8 CL   UNL     1       2.984  -1.495  -4.646  0.00  0.00    -0.083 Cl
BRANCH   4   9
ATOM      9  N   UNL     1      -0.054  -5.144  -8.283  0.00  0.00    +0.056 N 
ATOM     10  O   UNL     1      -0.386  -6.241  -7.899  0.00  0.00    -0.126 OA
ATOM     11  O   UNL     1      -0.338  -4.784  -9.402  0.00  0.00    -0.126 OA
ENDBRANCH   4   9
ENDBRANCH   1   2
BRANCH   1  13
ATOM     12  N   UNL     1       0.988  -2.639  -2.706  0.00  0.00    -0.313 N 
ATOM     13  C   UNL     1       1.268  -3.941  -2.910  0.00  0.00    +0.238 C 
ATOM     14  O   UNL     1       0.708  -4.792  -2.252  0.00  0.00    -0.273 OA
ATOM     15  H   UNL     1       1.437  -1.958  -3.232  0.00  0.00    +0.149 HD
BRANCH  12  16
ATOM     16  C   UNL     1       0.007  -2.251  -1.690  0.00  0.00    +0.104 C 
BRANCH  16  17
ATOM     17  C   UNL     1      -0.123  -0.727  -1.661  0.00  0.00    +0.018 C 
BRANCH  17  19
ATOM     18  C   UNL     1      -1.277   1.203  -0.572  0.00  0.00    +0.004 C 
ATOM     19  C   UNL     1      -1.147  -0.322  -0.600  0.00  0.00    -0.002 C 
ENDBRANCH  17  19
ENDBRANCH  16  17
ENDBRANCH  12  16
ENDBRANCH   1  13
BRANCH   1  20
ATOM     20  N   UNL     1       2.402  -5.800  -3.982  0.00  0.00    -0.268 N 
ATOM     21  C   UNL     1       1.298  -6.569  -4.069  0.00  0.00    +0.293 C 
ATOM     22  O   UNL     1       0.203  -6.051  -4.190  0.00  0.00    -0.260 OA
BRANCH  21  23
ATOM     23  C   UNL     1       1.413  -7.995  -4.018  0.00  0.00    -0.003 C 
ATOM     24  C   UNL     1       1.508  -9.165  -3.975  0.00  0.00    -0.057 C 
BRANCH  24  25
ATOM     25  C   UNL     1       1.623 -10.591  -3.924  0.00  0.00    +0.025 A 
ATOM     26  C   UNL     1       2.878 -11.190  -3.779  0.00  0.00    +0.017 A 
ATOM     27  C   UNL     1       2.981 -12.564  -3.729  0.00  0.00    +0.001 A 
ATOM     28  C   UNL     1       1.845 -13.350  -3.824  0.00  0.00    +0.000 A 
ATOM     29  C   UNL     1       0.600 -12.765  -3.969  0.00  0.00    +0.001 A 
ATOM     30  C   UNL     1       0.480 -11.392  -4.013  0.00  0.00    +0.017 A 
ENDBRANCH  24  25
ENDBRANCH  21  23
BRANCH  20  31
ATOM     31  C   UNL     1       3.725  -6.424  -3.915  0.00  0.00    +0.184 C 
BRANCH  31  32
ATOM     32  C   UNL     1       4.148  -6.552  -2.474  0.00  0.00    +0.122 A 
ATOM     33  C   UNL     1       3.990  -7.643  -1.703  0.00  0.00    +0.046 A 
ATOM     34  C   UNL     1       4.524  -7.326  -0.432  0.00  0.00    +0.041 A 
ATOM     35  C   UNL     1       4.976  -6.061  -0.504  0.00  0.00    +0.195 A 
ATOM     36  O   UNL     1       4.751  -5.600  -1.745  0.00  0.00    -0.466 OA
ENDBRANCH  31  32
ENDBRANCH  20  31
ENDBRANCH   1  20
TORSDOF 11
