REMARK  Name = ZINC38752136
REMARK  9 active torsions:
REMARK  status: ('A' for Active; 'I' for Inactive)
REMARK    1  A    between atoms: C_7  and  C_10
REMARK    2  A    between atoms: C_10  and  C_11
REMARK    3  A    between atoms: C_11  and  C_13
REMARK    4  A    between atoms: C_11  and  N_30
REMARK    5  A    between atoms: N_15  and  C_16
REMARK    6  A    between atoms: C_16  and  C_17
REMARK    7  A    between atoms: C_17  and  C_19
REMARK    8  A    between atoms: C_17  and  N_25
REMARK    9  A    between atoms: C_31  and  C_33
REMARK                            x       y       z     vdW  Elec       q    Type
REMARK                         _______ _______ _______ _____ _____    ______ ____
ROOT
ATOM      1  C   UNL     1      -4.125   4.422  -0.526  0.00  0.00    +0.163 C 
ENDROOT
BRANCH   1   2
ATOM      2  C   UNL     1      -4.968   5.640  -0.801  0.00  0.00    +0.234 C 
ATOM      3  O   UNL     1      -4.440   6.723  -0.942  0.00  0.00    -0.274 OA
ATOM      4  N   UNL     1      -6.308   5.527  -0.891  0.00  0.00    -0.315 N 
ATOM      5  H   UNL     1      -6.730   4.661  -0.778  0.00  0.00    +0.149 HD
BRANCH   4   6
ATOM      6  C   UNL     1      -7.127   6.712  -1.158  0.00  0.00    +0.090 C 
BRANCH   6   7
ATOM      7  C   UNL     1      -8.589   6.293  -1.330  0.00  0.00    -0.037 C 
BRANCH   7   8
ATOM      8  N   UNL     1      -9.025   5.539  -0.147  0.00  0.00    +0.383 N 
ATOM      9  C   UNL     1      -8.829   6.354   1.080  0.00  0.00    -0.078 C 
ATOM     10  C   UNL     1      -9.808   5.708   2.093  0.00  0.00    -0.020 C 
ATOM     11  C   UNL     1     -11.026   5.345   1.214  0.00  0.00    -0.020 C 
ATOM     12  C   UNL     1     -10.476   5.266  -0.223  0.00  0.00    -0.078 C 
ATOM     13  H   UNL     1      -8.511   4.674  -0.076  0.00  0.00    -0.081 HD
ENDBRANCH   7   8
BRANCH   7  14
ATOM     14  C   UNL     1      -8.724   5.413  -2.574  0.00  0.00    +0.042 C 
ATOM     15  C   UNL     1      -8.383   6.199  -3.867  0.00  0.00    +0.040 C 
ATOM     16  C   UNL     1      -9.303   5.813  -4.980  0.00  0.00    -0.019 C 
ATOM     17  C   UNL     1     -10.442   5.205  -4.710  0.00  0.00    +0.036 C 
ATOM     18  S   UNL     1     -10.488   5.020  -2.935  0.00  0.00    -0.131 S 
ENDBRANCH   7  14
ENDBRANCH   6   7
ENDBRANCH   4   6
ENDBRANCH   1   2
BRANCH   1  19
ATOM     19  N   UNL     1      -2.744   4.680  -0.939  0.00  0.00    -0.299 N 
ATOM     20  C   UNL     1      -2.050   5.689  -0.376  0.00  0.00    +0.251 C 
ATOM     21  O   UNL     1      -2.571   6.386   0.475  0.00  0.00    -0.270 OA
ATOM     22  H   UNL     1      -2.328   4.125  -1.617  0.00  0.00    +0.150 HD
BRANCH  20  23
ATOM     23  C   UNL     1      -0.667   5.948  -0.789  0.00  0.00    +0.074 A 
ATOM     24  C   UNL     1       0.212   6.919  -0.337  0.00  0.00    +0.021 A 
ATOM     25  C   UNL     1       1.457   6.915  -0.919  0.00  0.00    +0.008 A 
ATOM     26  C   UNL     1       1.737   5.988  -1.869  0.00  0.00    +0.046 A 
ATOM     27  S   UNL     1       0.324   5.090  -1.997  0.00  0.00    -0.092 S 
ENDBRANCH  20  23
ENDBRANCH   1  19
BRANCH   1  28
ATOM     28  C   UNL     1      -4.160   4.105   0.970  0.00  0.00    +0.069 C 
BRANCH  28  35
ATOM     29  C   UNL     1       0.363   3.091   1.665  0.00  0.00    +0.001 A 
ATOM     30  C   UNL     1       0.589   1.737   1.868  0.00  0.00    +0.002 A 
ATOM     31  C   UNL     1      -0.457   0.840   1.853  0.00  0.00    +0.026 A 
ATOM     32  C   UNL     1      -1.753   1.294   1.633  0.00  0.00    +0.047 A 
ATOM     33  N   UNL     1      -2.977   0.668   1.560  0.00  0.00    -0.360 N 
ATOM     34  C   UNL     1      -3.958   1.591   1.319  0.00  0.00    +0.087 A 
ATOM     35  C   UNL     1      -3.420   2.818   1.228  0.00  0.00    -0.020 A 
ATOM     36  C   UNL     1      -1.976   2.668   1.428  0.00  0.00    +0.003 A 
ATOM     37  C   UNL     1      -0.903   3.559   1.453  0.00  0.00    +0.010 A 
ATOM     38  H   UNL     1      -3.123  -0.285   1.663  0.00  0.00    +0.165 HD
ENDBRANCH  28  35
ENDBRANCH   1  28
TORSDOF 9
