REMARK  Name = ZINC37129785
REMARK  4 active torsions:
REMARK  status: ('A' for Active; 'I' for Inactive)
REMARK    1  A    between atoms: C_3  and  C_8
REMARK    2  A    between atoms: C_5  and  O_7
REMARK    3  A    between atoms: C_8  and  N_9
REMARK    4  A    between atoms: N_9  and  C_10
REMARK                            x       y       z     vdW  Elec       q    Type
REMARK                         _______ _______ _______ _____ _____    ______ ____
ROOT
ATOM      1  C   UNL     1       5.285   3.141   1.606  0.00  0.00    +0.044 A 
ATOM      2  C   UNL     1       6.044   3.615   0.545  0.00  0.00    +0.051 A 
ATOM      3  C   UNL     1       7.214   4.315   0.794  0.00  0.00    +0.069 A 
ATOM      4  C   UNL     1       7.625   4.540   2.110  0.00  0.00    +0.068 A 
ATOM      5  C   UNL     1       6.862   4.065   3.166  0.00  0.00    +0.045 A 
ATOM      6  C   UNL     1       5.694   3.372   2.915  0.00  0.00    +0.041 A 
ATOM      7 BR   UNL     1       4.651   2.729   4.355  0.00  0.00    -0.048 Br
ATOM      8  N   UNL     1       8.818   5.260   2.041  0.00  0.00    -0.306 N 
ATOM      9  H   UNL     1       9.343   5.563   2.798  0.00  0.00    +0.170 HD
ATOM     10  C   UNL     1       9.117   5.461   0.744  0.00  0.00    +0.325 A 
ATOM     11  O   UNL     1      10.096   6.057   0.334  0.00  0.00    -0.247 OA
ATOM     12  N   UNL     1       8.169   4.903  -0.032  0.00  0.00    -0.306 N 
ATOM     13  H   UNL     1       8.153   4.909  -1.002  0.00  0.00    +0.170 HD
ENDROOT
BRANCH   1  14
ATOM     14  N   UNL     1       4.103   2.434   1.357  0.00  0.00    -0.339 N 
ATOM     15  H   UNL     1       3.570   2.106   2.098  0.00  0.00    +0.146 HD
BRANCH  14  16
ATOM     16  C   UNL     1       3.671   2.190  -0.021  0.00  0.00    +0.137 C 
BRANCH  16  19
ATOM     17  C   UNL     1      -0.017   1.377   0.010  0.00  0.00    +0.004 A 
ATOM     18  C   UNL     1       1.171   2.086   0.002  0.00  0.00    +0.005 A 
ATOM     19  C   UNL     1       2.379   1.415  -0.013  0.00  0.00    -0.027 A 
ATOM     20  C   UNL     1       2.403   0.033  -0.021  0.00  0.00    +0.050 A 
ATOM     21  C   UNL     1       1.214  -0.680  -0.013  0.00  0.00    +0.117 A 
ATOM     22  C   UNL     1       0.002  -0.004   0.002  0.00  0.00    +0.045 A 
BRANCH  21  23
ATOM     23  O   UNL     1       1.235  -2.039  -0.021  0.00  0.00    -0.507 OA
ATOM     24  H   UNL     1       1.249  -2.437   0.860  0.00  0.00    +0.292 HD
ENDBRANCH  21  23
ENDBRANCH  16  19
ENDBRANCH  14  16
ENDBRANCH   1  14
TORSDOF 4
