REMARK  Name = ZINC36491653
REMARK  16 active torsions:
REMARK  status: ('A' for Active; 'I' for Inactive)
REMARK    1  A    between atoms: C_1  and  C_2
REMARK    2  A    between atoms: C_2  and  C_3
REMARK    3  A    between atoms: C_2  and  C_4
REMARK    4  A    between atoms: C_2  and  C_5
REMARK    5  A    between atoms: C_5  and  C_6
REMARK    6  A    between atoms: C_6  and  C_7
REMARK    7  A    between atoms: C_6  and  C_8
REMARK    8  A    between atoms: C_6  and  N_9
REMARK    9  A    between atoms: C_10  and  C_12
REMARK   10  A    between atoms: C_12  and  C_14
REMARK   11  A    between atoms: C_12  and  N_24
REMARK   12  A    between atoms: C_16  and  N_21
REMARK   13  A    between atoms: N_24  and  C_25
REMARK   14  A    between atoms: C_31  and  C_33
REMARK   15  A    between atoms: C_33  and  O_34
REMARK   16  A    between atoms: O_34  and  C_35
REMARK                            x       y       z     vdW  Elec       q    Type
REMARK                         _______ _______ _______ _____ _____    ______ ____
ROOT
ATOM      1  C   UNL     1       5.260  -0.361  -4.397  0.00  0.00    +0.194 C 
ENDROOT
BRANCH   1   2
ATOM      2  C   UNL     1       5.202  -1.822  -4.759  0.00  0.00    +0.002 A 
ATOM      3  C   UNL     1       4.753  -2.746  -3.833  0.00  0.00    +0.040 A 
ATOM      4  C   UNL     1       4.700  -4.087  -4.165  0.00  0.00    +0.127 A 
ATOM      5  C   UNL     1       5.095  -4.505  -5.422  0.00  0.00    +0.034 A 
ATOM      6  C   UNL     1       5.544  -3.583  -6.348  0.00  0.00    +0.022 A 
ATOM      7  C   UNL     1       5.592  -2.240  -6.019  0.00  0.00    +0.047 A 
ATOM      8 CL   UNL     1       6.149  -1.079  -7.184  0.00  0.00    -0.083 Cl
BRANCH   4   9
ATOM      9  N   UNL     1       4.219  -5.075  -3.174  0.00  0.00    +0.056 N 
ATOM     10  O   UNL     1       3.874  -4.710  -2.074  0.00  0.00    -0.126 OA
ATOM     11  O   UNL     1       4.173  -6.248  -3.463  0.00  0.00    -0.126 OA
ENDBRANCH   4   9
ENDBRANCH   1   2
BRANCH   1  13
ATOM     12  N   UNL     1       3.038  -0.358  -3.311  0.00  0.00    -0.308 N 
ATOM     13  C   UNL     1       4.357  -0.098  -3.220  0.00  0.00    +0.239 C 
ATOM     14  O   UNL     1       4.818   0.348  -2.190  0.00  0.00    -0.273 OA
ATOM     15  H   UNL     1       2.670  -0.715  -4.134  0.00  0.00    +0.149 HD
BRANCH  12  16
ATOM     16  C   UNL     1       2.160  -0.103  -2.166  0.00  0.00    +0.030 C 
ATOM     17  C   UNL     1       2.420   1.306  -1.628  0.00  0.00    +0.031 C 
ATOM     18  C   UNL     1       2.444  -1.129  -1.067  0.00  0.00    +0.031 C 
BRANCH  16  19
ATOM     19  C   UNL     1       0.700  -0.219  -2.607  0.00  0.00    +0.031 C 
BRANCH  19  21
ATOM     20  C   UNL     1       0.954  -0.445  -5.083  0.00  0.00    +0.010 C 
ATOM     21  C   UNL     1       0.516   0.488  -3.952  0.00  0.00    -0.036 C 
ATOM     22  C   UNL     1       1.367   1.759  -3.981  0.00  0.00    +0.010 C 
ATOM     23  C   UNL     1      -0.958   0.856  -4.137  0.00  0.00    +0.010 C 
ENDBRANCH  19  21
ENDBRANCH  16  19
ENDBRANCH  12  16
ENDBRANCH   1  13
BRANCH   1  24
ATOM     24  N   UNL     1       6.636   0.001  -4.048  0.00  0.00    -0.281 N 
ATOM     25  C   UNL     1       7.281  -0.666  -3.070  0.00  0.00    +0.242 C 
ATOM     26  O   UNL     1       6.773  -1.647  -2.569  0.00  0.00    -0.273 OA
BRANCH  24  27
ATOM     27  C   UNL     1       7.311   1.089  -4.761  0.00  0.00    +0.077 C 
ATOM     28  C   UNL     1       6.289   1.862  -5.596  0.00  0.00    +0.022 C 
ATOM     29  C   UNL     1       6.994   2.998  -6.341  0.00  0.00    +0.002 C 
ATOM     30  C   UNL     1       8.069   2.414  -7.261  0.00  0.00    +0.000 C 
ATOM     31  C   UNL     1       9.091   1.641  -6.426  0.00  0.00    +0.002 C 
ATOM     32  C   UNL     1       8.386   0.505  -5.681  0.00  0.00    +0.022 C 
ENDBRANCH  24  27
BRANCH  25  33
ATOM     33  C   UNL     1       8.633  -0.193  -2.600  0.00  0.00    +0.255 C 
BRANCH  33  34
ATOM     34  O   UNL     1       9.023  -0.939  -1.446  0.00  0.00    -0.374 OA
ATOM     35  C   UNL     1      10.297  -0.568  -0.917  0.00  0.00    +0.194 C 
ENDBRANCH  33  34
ENDBRANCH  25  33
ENDBRANCH   1  24
TORSDOF 10
