REMARK  Name = ZINC40036333
REMARK  14 active torsions:
REMARK  status: ('A' for Active; 'I' for Inactive)
REMARK    1  A    between atoms: C_1  and  C_2
REMARK    2  A    between atoms: C_2  and  C_3
REMARK    3  A    between atoms: C_3  and  C_4
REMARK    4  A    between atoms: C_4  and  C_36
REMARK    5  A    between atoms: N_16  and  C_34
REMARK    6  A    between atoms: N_19  and  N_20
REMARK    7  A    between atoms: C_21  and  C_22
REMARK    8  A    between atoms: C_25  and  O_31
REMARK    9  A    between atoms: C_26  and  O_28
REMARK   10  A    between atoms: O_28  and  C_29
REMARK   11  A    between atoms: C_29  and  C_30
REMARK   12  A    between atoms: O_31  and  C_32
REMARK   13  A    between atoms: C_32  and  C_33
REMARK   14  A    between atoms: C_34  and  C_35
REMARK                            x       y       z     vdW  Elec       q    Type
REMARK                         _______ _______ _______ _____ _____    ______ ____
ROOT
ATOM      1  C   UNL     1       0.739  -2.027  -1.265  0.00  0.00    +0.004 C 
ATOM      2  C   UNL     1       1.543  -2.411  -2.505  0.00  0.00    +0.047 C 
ATOM      3  C   UNL     1       0.756  -2.125  -3.755  0.00  0.00    -0.037 A 
ATOM      4  C   UNL     1       1.394  -1.686  -4.897  0.00  0.00    +0.004 A 
ATOM      5  C   UNL     1       0.664  -1.429  -6.044  0.00  0.00    +0.000 A 
ATOM      6  C   UNL     1      -0.708  -1.610  -6.056  0.00  0.00    +0.001 A 
ATOM      7  C   UNL     1      -1.358  -2.048  -4.919  0.00  0.00    +0.010 A 
ATOM      8  C   UNL     1      -0.627  -2.306  -3.763  0.00  0.00    +0.004 A 
ATOM      9  C   UNL     1      -1.298  -2.768  -2.526  0.00  0.00    +0.084 A 
ATOM     10  C   UNL     1      -0.634  -2.636  -1.315  0.00  0.00    +0.049 A 
ATOM     11  C   UNL     1      -1.267  -3.080  -0.147  0.00  0.00    +0.260 A 
ATOM     12  O   UNL     1      -0.714  -2.983   0.937  0.00  0.00    -0.267 OA
ATOM     13  N   UNL     1      -2.502  -3.617  -0.245  0.00  0.00    -0.280 N 
ATOM     14  C   UNL     1      -3.112  -3.717  -1.459  0.00  0.00    +0.219 A 
ATOM     15  N   UNL     1      -2.522  -3.304  -2.562  0.00  0.00    -0.214 NA
ATOM     16  N   UNL     1      -4.368  -4.261  -1.534  0.00  0.00    -0.206 N 
ATOM     17  C   UNL     1       1.468  -2.529  -0.017  0.00  0.00    +0.017 C 
ATOM     18  H   UNL     1      -4.812  -4.570  -0.729  0.00  0.00    +0.177 HD
ENDROOT
BRANCH  16  19
ATOM     19  N   UNL     1      -5.010  -4.371  -2.775  0.00  0.00    -0.188 NA
ATOM     20  C   UNL     1      -6.199  -4.887  -2.847  0.00  0.00    +0.138 C 
BRANCH  20  21
ATOM     21  C   UNL     1      -6.875  -5.003  -4.152  0.00  0.00    -0.002 A 
ATOM     22  C   UNL     1      -6.234  -4.564  -5.313  0.00  0.00    +0.013 A 
ATOM     23  C   UNL     1      -6.868  -4.673  -6.533  0.00  0.00    +0.050 A 
ATOM     24  C   UNL     1      -8.141  -5.218  -6.611  0.00  0.00    +0.162 A 
ATOM     25  C   UNL     1      -8.786  -5.658  -5.457  0.00  0.00    +0.162 A 
ATOM     26  C   UNL     1      -8.155  -5.557  -4.231  0.00  0.00    +0.059 A 
BRANCH  25  27
ATOM     27  O   UNL     1     -10.034  -6.191  -5.537  0.00  0.00    -0.489 OA
BRANCH  27  28
ATOM     28  C   UNL     1     -10.636  -6.622  -4.314  0.00  0.00    +0.226 C 
ATOM     29  C   UNL     1     -12.027  -7.189  -4.601  0.00  0.00    +0.048 C 
ENDBRANCH  27  28
ENDBRANCH  25  27
BRANCH  24  30
ATOM     30  O   UNL     1      -8.762  -5.323  -7.816  0.00  0.00    -0.489 OA
BRANCH  30  31
ATOM     31  C   UNL     1      -8.044  -4.852  -8.958  0.00  0.00    +0.226 C 
ATOM     32  C   UNL     1      -8.896  -5.051 -10.213  0.00  0.00    +0.048 C 
ENDBRANCH  30  31
ENDBRANCH  24  30
ENDBRANCH  20  21
ENDBRANCH  16  19
BRANCH  13  33
ATOM     33  C   UNL     1      -3.188  -4.094   0.958  0.00  0.00    +0.125 C 
ATOM     34  C   UNL     1      -4.010  -2.953   1.563  0.00  0.00    +0.027 C 
ENDBRANCH  13  33
BRANCH   1  35
ATOM     35  C   UNL     1       0.613  -0.504  -1.198  0.00  0.00    +0.011 C 
BRANCH  35  37
ATOM     36  C   UNL     1      -0.295   1.411   0.126  0.00  0.00    +0.004 C 
ATOM     37  C   UNL     1      -0.168  -0.112   0.058  0.00  0.00    -0.003 C 
ENDBRANCH  35  37
ENDBRANCH   1  35
TORSDOF 9
