REMARK  Name = ZINC32527955
REMARK  5 active torsions:
REMARK  status: ('A' for Active; 'I' for Inactive)
REMARK    1  A    between atoms: C_9  and  S_11
REMARK    2  A    between atoms: S_11  and  C_12
REMARK    3  A    between atoms: C_12  and  C_13
REMARK    4  A    between atoms: C_21  and  S_25
REMARK    5  A    between atoms: S_25  and  N_28
REMARK                            x       y       z     vdW  Elec       q    Type
REMARK                         _______ _______ _______ _____ _____    ______ ____
ROOT
ATOM      1  C   UNL     1       1.984   3.586   0.002  0.00  0.00    +0.229 C 
ATOM      2  O   UNL     1       1.038   4.344   0.015  0.00  0.00    -0.275 OA
ATOM      3  N   UNL     1       3.240   4.076  -0.007  0.00  0.00    -0.264 N 
ATOM      4  C   UNL     1       3.449   5.445  -0.002  0.00  0.00    +0.165 A 
ATOM      5  N   UNL     1       2.563   6.413   0.013  0.00  0.00    -0.225 NA
ATOM      6  C   UNL     1       2.913   7.718   0.016  0.00  0.00    +0.080 A 
ATOM      7  C   UNL     1       2.065   8.850   0.031  0.00  0.00    +0.031 A 
ATOM      8  C   UNL     1       2.588  10.116   0.032  0.00  0.00    +0.030 A 
ATOM      9  C   UNL     1       3.958  10.335   0.020  0.00  0.00    +0.106 A 
ATOM     10  C   UNL     1       4.817   9.252   0.005  0.00  0.00    +0.045 A 
ATOM     11  C   UNL     1       4.302   7.979   0.004  0.00  0.00    +0.043 A 
ATOM     12  S   UNL     1       4.994   6.343  -0.004  0.00  0.00    -0.052 S 
ATOM     13  H   UNL     1       4.098   3.388  -0.019  0.00  0.00    +0.157 HD
ENDROOT
BRANCH   9  14
ATOM     14  S   UNL     1       4.597  11.977   0.023  0.00  0.00    +0.056 S 
ATOM     15  O   UNL     1       3.589  12.804   0.588  0.00  0.00    -0.153 OA
ATOM     16  O   UNL     1       5.910  11.901   0.561  0.00  0.00    -0.153 OA
BRANCH  14  17
ATOM     17  N   UNL     1       4.759  12.443  -1.558  0.00  0.00    -0.204 NA
ATOM     18  H   UNL     1       5.157  13.467  -1.600  0.00  0.00    +0.144 HD
ATOM     19  H   UNL     1       3.777  12.410  -2.052  0.00  0.00    +0.144 HD
ENDBRANCH  14  17
ENDBRANCH   9  14
BRANCH   1  20
ATOM     20  C   UNL     1       1.756   2.096  -0.004  0.00  0.00    +0.172 C 
BRANCH  20  21
ATOM     21  S   UNL     1      -0.022   1.758   0.012  0.00  0.00    -0.097 S 
BRANCH  21  30
ATOM     22  C   UNL     1       1.328  -4.744  -0.034  0.00  0.00    +0.001 A 
ATOM     23  C   UNL     1       2.501  -3.993  -0.041  0.00  0.00    +0.002 A 
ATOM     24  C   UNL     1       2.464  -2.632  -0.035  0.00  0.00    +0.028 A 
ATOM     25  C   UNL     1       1.226  -1.968  -0.020  0.00  0.00    +0.072 A 
ATOM     26  C   UNL     1       0.034  -2.733  -0.012  0.00  0.00    +0.000 A 
ATOM     27  C   UNL     1       0.109  -4.135  -0.019  0.00  0.00    +0.010 A 
ATOM     28  C   UNL     1      -1.209  -2.068   0.003  0.00  0.00    +0.012 A 
ATOM     29  C   UNL     1      -1.212  -0.706   0.016  0.00  0.00    +0.035 A 
ATOM     30  C   UNL     1       0.002  -0.004   0.002  0.00  0.00    +0.098 A 
ATOM     31  N   UNL     1       1.161  -0.632  -0.012  0.00  0.00    -0.240 NA
ENDBRANCH  21  30
ENDBRANCH  20  21
ENDBRANCH   1  20
TORSDOF 5
