REMARK  Name = ZINC12740815
REMARK  9 active torsions:
REMARK  status: ('A' for Active; 'I' for Inactive)
REMARK    1  A    between atoms: C_1  and  C_2
REMARK    2  A    between atoms: C_5  and  C_8
REMARK    3  A    between atoms: C_8  and  N_9
REMARK    4  A    between atoms: N_12  and  C_13
REMARK    5  A    between atoms: C_13  and  C_15
REMARK    6  A    between atoms: C_13  and  C_16
REMARK    7  A    between atoms: C_16  and  C_18
REMARK    8  A    between atoms: C_16  and  O_25
REMARK    9  A    between atoms: C_21  and  O_24
REMARK                            x       y       z     vdW  Elec       q    Type
REMARK                         _______ _______ _______ _____ _____    ______ ____
ROOT
ATOM      1  N   UNL     1       1.222  -2.667  -1.404  0.00  0.00    -0.295 N 
ATOM      2  C   UNL     1       1.237  -3.991  -1.657  0.00  0.00    +0.300 C 
ATOM      3  O   UNL     1       1.257  -4.786  -0.736  0.00  0.00    -0.253 OA
ATOM      4  N   UNL     1       1.231  -4.434  -2.929  0.00  0.00    -0.294 N 
ATOM      5  H   UNL     1       1.206  -2.034  -2.138  0.00  0.00    +0.151 HD
ATOM      6  H   UNL     1       1.215  -3.801  -3.664  0.00  0.00    +0.151 HD
ENDROOT
BRANCH   4   7
ATOM      7  C   UNL     1       1.248  -5.873  -3.204  0.00  0.00    +0.104 C 
ATOM      8  C   UNL     1       2.692  -6.378  -3.190  0.00  0.00    +0.031 C 
BRANCH   7   9
ATOM      9  C   UNL     1       0.628  -6.138  -4.578  0.00  0.00    +0.164 C 
BRANCH   9  10
ATOM     10  C   UNL     1       0.533  -7.624  -4.808  0.00  0.00    -0.017 A 
ATOM     11  C   UNL     1       1.648  -8.331  -5.219  0.00  0.00    +0.010 A 
ATOM     12  C   UNL     1       1.565  -9.695  -5.426  0.00  0.00    +0.046 A 
ATOM     13  C   UNL     1       0.358 -10.352  -5.232  0.00  0.00    +0.117 A 
ATOM     14  C   UNL     1      -0.760  -9.639  -4.826  0.00  0.00    +0.046 A 
ATOM     15  C   UNL     1      -0.670  -8.277  -4.615  0.00  0.00    +0.010 A 
BRANCH  13  16
ATOM     16  O   UNL     1       0.272 -11.692  -5.441  0.00  0.00    -0.507 OA
ATOM     17  H   UNL     1       0.033 -11.935  -6.346  0.00  0.00    +0.292 HD
ENDBRANCH  13  16
ENDBRANCH   9  10
BRANCH   9  18
ATOM     18  O   UNL     1       1.447  -5.550  -5.591  0.00  0.00    -0.385 OA
ATOM     19  H   UNL     1       2.350  -5.893  -5.614  0.00  0.00    +0.210 HD
ENDBRANCH   9  18
ENDBRANCH   7   9
ENDBRANCH   4   7
BRANCH   1  20
ATOM     20  C   UNL     1       1.229  -2.186  -0.021  0.00  0.00    +0.141 C 
BRANCH  20  25
ATOM     21  C   UNL     1       1.151   3.592   0.010  0.00  0.00    +0.044 C 
ATOM     22  C   UNL     1       1.171   2.086   0.002  0.00  0.00    -0.050 A 
ATOM     23  C   UNL     1      -0.017   1.378   0.010  0.00  0.00    +0.003 A 
ATOM     24  C   UNL     1       0.002  -0.004   0.002  0.00  0.00    +0.005 A 
ATOM     25  C   UNL     1       1.208  -0.679  -0.013  0.00  0.00    -0.030 A 
ATOM     26  C   UNL     1       2.396   0.029  -0.021  0.00  0.00    +0.005 A 
ATOM     27  C   UNL     1       2.377   1.411  -0.015  0.00  0.00    +0.003 A 
ENDBRANCH  20  25
ENDBRANCH   1  20
TORSDOF 7
