REMARK  Name = ZINC44021090
REMARK  5 active torsions:
REMARK  status: ('A' for Active; 'I' for Inactive)
REMARK    1  A    between atoms: N_7  and  C1*_8
REMARK    2  A    between atoms: C2*_10  and  O2*_20
REMARK    3  A    between atoms: C3*_12  and  O3*_19
REMARK    4  A    between atoms: C4*_14  and  C5*_17
REMARK    5  A    between atoms: C5*_17  and  O5*_18
REMARK                            x       y       z     vdW  Elec       q    Type
REMARK                         _______ _______ _______ _____ _____    ______ ____
ROOT
ATOM      1  C1* UNL     1      -1.259  -0.750   0.011  0.00  0.00    +0.255 C 
ATOM      2  C2* UNL     1      -1.405  -1.574  -1.288  0.00  0.00    +0.195 C 
ATOM      3  C3* UNL     1      -2.078  -2.886  -0.826  0.00  0.00    +0.178 C 
ATOM      4  C4* UNL     1      -2.259  -2.699   0.696  0.00  0.00    +0.177 C 
ATOM      5  O4* UNL     1      -1.257  -1.728   1.073  0.00  0.00    -0.346 OA
ENDROOT
BRANCH   1  12
ATOM      6  C   UNL     1      -0.016   1.359   0.009  0.00  0.00    +0.111 A 
ATOM      7  C   UNL     1       1.156   2.037   0.002  0.00  0.00    +0.069 A 
ATOM      8  C   UNL     1       2.365   1.311  -0.013  0.00  0.00    +0.136 A 
ATOM      9  N   UNL     1       2.333  -0.015  -0.020  0.00  0.00    -0.177 NA
ATOM     10  C   UNL     1       1.173  -0.668  -0.013  0.00  0.00    +0.352 A 
ATOM     11  O   UNL     1       1.170  -1.888  -0.019  0.00  0.00    -0.244 OA
ATOM     12  N   UNL     1       0.002  -0.004   0.002  0.00  0.00    -0.269 N 
ATOM     13  N   UNL     1       3.570   1.974  -0.022  0.00  0.00    -0.342 N 
ATOM     14  I   UNL     1       1.173   4.132   0.012  0.00  0.00    -0.039 I 
ATOM     15  H   UNL     1       3.590   2.944  -0.017  0.00  0.00    +0.144 HD
ATOM     16  H   UNL     1       4.400   1.472  -0.033  0.00  0.00    +0.144 HD
ENDBRANCH   1  12
BRANCH   3  17
ATOM     17  O3* UNL     1      -1.233  -4.005  -1.100  0.00  0.00    -0.386 OA
ATOM     18  H3* UNL     1      -1.607  -4.855  -0.830  0.00  0.00    +0.210 HD
ENDBRANCH   3  17
BRANCH   2  19
ATOM     19  O2* UNL     1      -0.122  -1.840  -1.859  0.00  0.00    -0.385 OA
ATOM     20  H2* UNL     1      -0.155  -2.355  -2.677  0.00  0.00    +0.210 HD
ENDBRANCH   2  19
BRANCH   4  21
ATOM     21  C5* UNL     1      -2.023  -4.023   1.427  0.00  0.00    +0.190 C 
BRANCH  21  22
ATOM     22  O5* UNL     1      -2.308  -3.857   2.817  0.00  0.00    -0.392 OA
ATOM     23  H5* UNL     1      -2.180  -4.658   3.343  0.00  0.00    +0.210 HD
ENDBRANCH  21  22
ENDBRANCH   4  21
TORSDOF 5
