REMARK  Name = ZINC01902206
REMARK  11 active torsions:
REMARK  status: ('A' for Active; 'I' for Inactive)
REMARK    1  A    between atoms: C_1  and  C_2
REMARK    2  A    between atoms: C_13  and  C_47
REMARK    3  A    between atoms: C_17  and  O_24
REMARK    4  A    between atoms: C_21  and  O_23
REMARK    5  A    between atoms: O_24  and  C_25
REMARK    6  A    between atoms: C_25  and  C_27
REMARK    7  A    between atoms: N_34  and  C_36
REMARK    8  A    between atoms: C_36  and  C_37
REMARK    9  A    between atoms: C_37  and  O_38
REMARK   10  A    between atoms: O_38  and  C_39
REMARK   11  A    between atoms: C_39  and  C_41
REMARK                            x       y       z     vdW  Elec       q    Type
REMARK                         _______ _______ _______ _____ _____    ______ ____
ROOT
ATOM      1  C   UNL     1      -0.561   3.413  -5.634  0.00  0.00    +0.010 C 
ATOM      2  C   UNL     1      -0.551   1.909  -5.406  0.00  0.00    +0.018 C 
ATOM      3  C   UNL     1       0.772   1.398  -4.741  0.00  0.00    -0.005 C 
ATOM      4  C   UNL     1       0.761   2.077  -3.328  0.00  0.00    +0.009 C 
ATOM      5  C   UNL     1       0.011   1.063  -2.446  0.00  0.00    +0.013 C 
ATOM      6  C   UNL     1      -0.736   1.594  -1.257  0.00  0.00    +0.011 C 
ATOM      7  C   UNL     1      -0.013   1.086   0.008  0.00  0.00    +0.013 C 
ATOM      8  C   UNL     1      -0.731   1.588   1.258  0.00  0.00    +0.001 C 
ATOM      9  C   UNL     1      -2.163   1.052   1.261  0.00  0.00    +0.009 C 
ATOM     10  C   UNL     1      -2.880   1.506  -0.003  0.00  0.00    -0.011 C 
ATOM     11  C   UNL     1      -2.168   1.040  -1.259  0.00  0.00    +0.012 C 
ATOM     12  C   UNL     1      -2.126  -0.461  -1.492  0.00  0.00    +0.050 C 
ATOM     13  C   UNL     1      -1.789  -0.683  -2.984  0.00  0.00    +0.186 C 
ATOM     14  C   UNL     1      -0.909   0.404  -3.497  0.00  0.00    +0.038 C 
ATOM     15  C   UNL     1       0.253  -0.067  -4.436  0.00  0.00    +0.017 C 
ATOM     16  C   UNL     1      -1.613   1.465  -4.360  0.00  0.00    +0.128 C 
ATOM     17  C   UNL     1      -2.978   3.034  -0.045  0.00  0.00    +0.122 C 
ATOM     18  N   UNL     1      -1.811   3.665  -0.634  0.00  0.00    -0.376 N 
ATOM     19  C   UNL     1      -0.817   3.088  -1.168  0.00  0.00    +0.061 C 
ATOM     20  C   UNL     1      -4.307   0.952   0.018  0.00  0.00    +0.013 C 
ENDROOT
BRANCH  16  21
ATOM     21  O   UNL     1      -2.031   2.609  -3.618  0.00  0.00    -0.391 OA
ATOM     22  H   UNL     1      -2.475   3.283  -4.151  0.00  0.00    +0.210 HD
ENDBRANCH  16  21
BRANCH  13  23
ATOM     23  O   UNL     1      -1.122  -1.967  -3.142  0.00  0.00    -0.457 OA
BRANCH  23  24
ATOM     24  C   UNL     1      -1.907  -3.045  -3.334  0.00  0.00    +0.339 C 
ATOM     25  O   UNL     1      -3.115  -2.919  -3.368  0.00  0.00    -0.245 OA
BRANCH  24  26
ATOM     26  C   UNL     1      -1.299  -4.381  -3.502  0.00  0.00    +0.059 A 
ATOM     27  C   UNL     1       0.089  -4.529  -3.469  0.00  0.00    +0.015 A 
ATOM     28  C   UNL     1       0.649  -5.780  -3.621  0.00  0.00    +0.001 A 
ATOM     29  C   UNL     1      -0.160  -6.886  -3.817  0.00  0.00    +0.000 A 
ATOM     30  C   UNL     1      -1.536  -6.745  -3.857  0.00  0.00    +0.001 A 
ATOM     31  C   UNL     1      -2.110  -5.500  -3.701  0.00  0.00    +0.015 A 
ENDBRANCH  24  26
ENDBRANCH  23  24
ENDBRANCH  13  23
BRANCH  18  32
ATOM     32  C   UNL     1      -1.774   5.131  -0.609  0.00  0.00    +0.156 C 
BRANCH  32  33
ATOM     33  C   UNL     1      -2.905   5.684  -1.478  0.00  0.00    +0.253 C 
BRANCH  33  34
ATOM     34  O   UNL     1      -4.185   5.322  -0.894  0.00  0.00    -0.459 OA
BRANCH  34  35
ATOM     35  C   UNL     1      -5.291   5.735  -1.542  0.00  0.00    +0.339 C 
ATOM     36  O   UNL     1      -5.190   6.381  -2.566  0.00  0.00    -0.245 OA
BRANCH  35  37
ATOM     37  C   UNL     1      -6.628   5.404  -1.007  0.00  0.00    +0.059 A 
ATOM     38  C   UNL     1      -6.748   4.657   0.166  0.00  0.00    +0.015 A 
ATOM     39  C   UNL     1      -7.999   4.356   0.663  0.00  0.00    +0.001 A 
ATOM     40  C   UNL     1      -9.133   4.782  -0.005  0.00  0.00    +0.000 A 
ATOM     41  C   UNL     1      -9.021   5.518  -1.171  0.00  0.00    +0.001 A 
ATOM     42  C   UNL     1      -7.777   5.831  -1.676  0.00  0.00    +0.015 A 
ENDBRANCH  35  37
ENDBRANCH  34  35
ENDBRANCH  33  34
ENDBRANCH  32  33
ENDBRANCH  18  32
TORSDOF 9
