REMARK  Name = ZINC61031864
REMARK  9 active torsions:
REMARK  status: ('A' for Active; 'I' for Inactive)
REMARK    1  A    between atoms: C_1  and  C_2
REMARK    2  A    between atoms: C_2  and  C_27
REMARK    3  A    between atoms: C_4  and  N_10
REMARK    4  A    between atoms: C_6  and  C_8
REMARK    5  A    between atoms: C_6  and  C_9
REMARK    6  A    between atoms: C_11  and  C_13
REMARK    7  A    between atoms: C_13  and  C_14
REMARK    8  A    between atoms: C_14  and  C_15
REMARK    9  A    between atoms: C_15  and  N_16
REMARK                            x       y       z     vdW  Elec       q    Type
REMARK                         _______ _______ _______ _____ _____    ______ ____
ROOT
ATOM      1  N   UNL     1       2.615  -0.819  -2.626  0.00  0.00    -0.313 N 
ATOM      2  C   UNL     1       3.770  -0.334  -3.123  0.00  0.00    +0.213 C 
ATOM      3  O   UNL     1       4.374   0.530  -2.523  0.00  0.00    -0.276 OA
ATOM      4  H   UNL     1       2.133  -1.510  -3.106  0.00  0.00    +0.149 HD
ENDROOT
BRANCH   1   8
ATOM      5  C   UNL     1      -0.019   1.528   0.010  0.00  0.00    -0.010 C 
ATOM      6  C   UNL     1       0.002  -0.004   0.002  0.00  0.00    -0.072 C 
ATOM      7  C   UNL     1       0.573  -0.505  -1.321  0.00  0.00    +0.009 C 
ATOM      8  C   UNL     1       2.088  -0.301  -1.357  0.00  0.00    +0.070 C 
ATOM      9  C   UNL     1       2.703  -1.086  -0.198  0.00  0.00    +0.009 C 
ATOM     10  C   UNL     1       2.147  -0.590   1.133  0.00  0.00    -0.072 C 
ATOM     11  N   UNL     1       0.697  -0.529   1.164  0.00  0.00    +0.386 N 
ATOM     12  C   UNL     1       2.769   0.766   1.481  0.00  0.00    -0.010 C 
ATOM     13  C   UNL     1       2.600  -1.589   2.223  0.00  0.00    -0.010 C 
ATOM     14  C   UNL     1      -1.468  -0.478   0.079  0.00  0.00    -0.010 C 
ATOM     15  H   UNL     1       0.416   0.021   1.982  0.00  0.00    -0.084 HD
ATOM     16  H   UNL     1       0.341  -1.472   1.351  0.00  0.00    -0.084 HD
ENDBRANCH   1   8
BRANCH   2  17
ATOM     17  C   UNL     1       4.312  -0.866  -4.426  0.00  0.00    +0.097 C 
BRANCH  17  18
ATOM     18  C   UNL     1       5.623  -0.153  -4.762  0.00  0.00    +0.029 C 
BRANCH  18  19
ATOM     19  C   UNL     1       6.173  -0.692  -6.084  0.00  0.00    +0.118 C 
BRANCH  19  20
ATOM     20  N   UNL     1       7.428  -0.010  -6.406  0.00  0.00    -0.224 N 
ATOM     21  C   UNL     1       7.510   1.131  -7.124  0.00  0.00    +0.246 C 
ATOM     22  O   UNL     1       6.595   1.762  -7.608  0.00  0.00    -0.273 OA
ATOM     23  C   UNL     1       8.981   1.452  -7.196  0.00  0.00    +0.113 C 
ATOM     24  C   UNL     1       9.279   2.817  -6.563  0.00  0.00    +0.035 C 
ATOM     25  C   UNL     1      10.429   3.390  -7.432  0.00  0.00    +0.003 C 
ATOM     26  C   UNL     1      10.053   2.914  -8.858  0.00  0.00    +0.003 C 
ATOM     27  C   UNL     1       9.470   1.500  -8.645  0.00  0.00    +0.035 C 
ATOM     28  N   UNL     1       9.628   0.371  -6.449  0.00  0.00    -0.285 N 
ATOM     29  C   UNL     1       8.638  -0.436  -6.019  0.00  0.00    +0.309 C 
ATOM     30  O   UNL     1       8.821  -1.439  -5.357  0.00  0.00    -0.252 OA
ATOM     31  H   UNL     1      10.579   0.259  -6.293  0.00  0.00    +0.151 HD
ENDBRANCH  19  20
ENDBRANCH  18  19
ENDBRANCH  17  18
ENDBRANCH   2  17
TORSDOF 5
