REMARK  Name = ZINC40680094
REMARK  7 active torsions:
REMARK  status: ('A' for Active; 'I' for Inactive)
REMARK    1  A    between atoms: C_1  and  C_2
REMARK    2  A    between atoms: C_2  and  C_3
REMARK    3  A    between atoms: C_3  and  C_4
REMARK    4  A    between atoms: C_4  and  C_5
REMARK    5  A    between atoms: C_8  and  N_11
REMARK    6  A    between atoms: C_13  and  N_26
REMARK    7  A    between atoms: C_14  and  N_18
REMARK                            x       y       z     vdW  Elec       q    Type
REMARK                         _______ _______ _______ _____ _____    ______ ____
ROOT
ATOM      1  N   UNL     1      -6.729  -4.047   0.045  0.00  0.00    -0.298 N 
ATOM      2  C   UNL     1      -7.428  -4.183  -1.149  0.00  0.00    +0.149 A 
ATOM      3  C   UNL     1      -8.774  -4.554  -1.144  0.00  0.00    +0.106 A 
ATOM      4  C   UNL     1      -9.428  -4.676  -2.371  0.00  0.00    +0.150 A 
ATOM      5  N   UNL     1      -8.749  -4.436  -3.490  0.00  0.00    -0.219 NA
ATOM      6  C   UNL     1      -7.479  -4.089  -3.451  0.00  0.00    +0.225 A 
ATOM      7  N   UNL     1      -6.825  -3.957  -2.314  0.00  0.00    -0.219 NA
ATOM      8  H   UNL     1      -7.152  -4.285   0.885  0.00  0.00    +0.154 HD
ENDROOT
BRANCH   4   9
ATOM      9  N   UNL     1     -10.769  -5.043  -2.424  0.00  0.00    -0.283 N 
ATOM     10  C   UNL     1     -11.382  -5.267  -3.653  0.00  0.00    +0.124 A 
ATOM     11  C   UNL     1     -12.689  -5.740  -3.695  0.00  0.00    +0.045 A 
ATOM     12  C   UNL     1     -13.286  -5.959  -4.923  0.00  0.00    +0.020 A 
ATOM     13  C   UNL     1     -12.553  -5.695  -6.074  0.00  0.00    +0.036 A 
ATOM     14  C   UNL     1     -11.258  -5.226  -5.957  0.00  0.00    +0.128 A 
ATOM     15  N   UNL     1     -10.717  -5.022  -4.771  0.00  0.00    -0.239 NA
ATOM     16 BR   UNL     1     -13.317  -5.975  -7.780  0.00  0.00    -0.049 Br
ATOM     17  H   UNL     1     -11.277  -5.143  -1.603  0.00  0.00    +0.155 HD
ENDBRANCH   4   9
BRANCH   1  21
ATOM     18  C   UNL     1      -2.818  -2.616   0.018  0.00  0.00    -0.047 A 
ATOM     19  C   UNL     1      -3.724  -2.164  -0.924  0.00  0.00    +0.005 A 
ATOM     20  C   UNL     1      -5.022  -2.637  -0.918  0.00  0.00    +0.023 A 
ATOM     21  C   UNL     1      -5.416  -3.567   0.036  0.00  0.00    +0.032 A 
ATOM     22  C   UNL     1      -4.503  -4.018   0.981  0.00  0.00    +0.023 A 
ATOM     23  C   UNL     1      -3.206  -3.545   0.966  0.00  0.00    +0.005 A 
BRANCH  18  24
ATOM     24  C   UNL     1      -1.403  -2.098   0.008  0.00  0.00    +0.035 C 
BRANCH  24  25
ATOM     25  C   UNL     1      -0.539  -2.991  -0.885  0.00  0.00    +0.004 C 
BRANCH  25  27
ATOM     26  C   UNL     1       1.761  -3.358  -1.789  0.00  0.00    +0.004 C 
ATOM     27  C   UNL     1       0.897  -2.465  -0.895  0.00  0.00    -0.003 C 
ENDBRANCH  25  27
ENDBRANCH  24  25
ENDBRANCH  18  24
ENDBRANCH   1  21
BRANCH   3  28
ATOM     28  N   UNL     1      -9.451  -4.798   0.061  0.00  0.00    -0.353 N 
ATOM     29  H   UNL     1      -8.983  -4.709   0.906  0.00  0.00    +0.143 HD
ATOM     30  H   UNL     1     -10.386  -5.055   0.049  0.00  0.00    +0.143 HD
ENDBRANCH   3  28
TORSDOF 6
