REMARK  Name = ZINC02859655
REMARK  13 active torsions:
REMARK  status: ('A' for Active; 'I' for Inactive)
REMARK    1  A    between atoms: C_1  and  C_2
REMARK    2  A    between atoms: C_2  and  C_3
REMARK    3  A    between atoms: C_2  and  C_4
REMARK    4  A    between atoms: C_4  and  C_5
REMARK    5  A    between atoms: C_5  and  C_7
REMARK    6  A    between atoms: C_5  and  N_26
REMARK    7  A    between atoms: C_10  and  S_15
REMARK    8  A    between atoms: N_11  and  C_12
REMARK    9  A    between atoms: C_12  and  C_13
REMARK   10  A    between atoms: S_15  and  C_16
REMARK   11  A    between atoms: C_16  and  C_17
REMARK   12  A    between atoms: C_20  and  N_23
REMARK   13  A    between atoms: C_28  and  C_30
REMARK                            x       y       z     vdW  Elec       q    Type
REMARK                         _______ _______ _______ _____ _____    ______ ____
ROOT
ATOM      1  C   UNL     1      -2.102   1.894  -2.029  0.00  0.00    +0.155 A 
ATOM      2  N   UNL     1      -3.102   1.165  -2.436  0.00  0.00    -0.132 NA
ATOM      3  N   UNL     1      -3.239   0.140  -1.673  0.00  0.00    -0.122 NA
ATOM      4  C   UNL     1      -2.322   0.157  -0.733  0.00  0.00    +0.192 A 
ATOM      5  N   UNL     1      -1.565   1.276  -0.934  0.00  0.00    -0.301 N 
ENDROOT
BRANCH   1   6
ATOM      6  C   UNL     1      -1.624   3.180  -2.653  0.00  0.00    +0.142 C 
BRANCH   6   7
ATOM      7  N   UNL     1      -1.435   2.985  -4.092  0.00  0.00    -0.301 N 
ATOM      8  H   UNL     1      -1.908   2.272  -4.551  0.00  0.00    +0.150 HD
ATOM      9  C   UNL     1      -0.606   3.794  -4.779  0.00  0.00    +0.246 C 
ATOM     10  O   UNL     1       0.057   4.626  -4.191  0.00  0.00    -0.270 OA
BRANCH   9  11
ATOM     11  C   UNL     1      -0.501   3.671  -6.248  0.00  0.00    +0.055 A 
ATOM     12  C   UNL     1      -1.261   2.716  -6.927  0.00  0.00    +0.014 A 
ATOM     13  C   UNL     1      -1.159   2.606  -8.298  0.00  0.00    +0.001 A 
ATOM     14  C   UNL     1      -0.307   3.440  -9.002  0.00  0.00    +0.001 A 
ATOM     15  C   UNL     1       0.448   4.388  -8.337  0.00  0.00    +0.021 A 
ATOM     16  C   UNL     1       0.353   4.512  -6.964  0.00  0.00    +0.053 A 
ATOM     17 CL   UNL     1       1.298   5.707  -6.131  0.00  0.00    -0.083 Cl
ENDBRANCH   9  11
ENDBRANCH   6   7
BRANCH   6  18
ATOM     18  C   UNL     1      -2.663   4.278  -2.419  0.00  0.00    +0.033 C 
BRANCH  18  20
ATOM     19  C   UNL     1      -1.439   5.222  -0.456  0.00  0.00    +0.007 C 
ATOM     20  C   UNL     1      -2.751   4.588  -0.923  0.00  0.00    -0.015 C 
ATOM     21  C   UNL     1      -3.905   5.559  -0.670  0.00  0.00    +0.007 C 
ENDBRANCH  18  20
ENDBRANCH   6  18
ENDBRANCH   1   6
BRANCH   5  22
ATOM     22  C   UNL     1      -0.420   1.724  -0.138  0.00  0.00    +0.152 C 
BRANCH  22  23
ATOM     23  C   UNL     1       0.832   1.048  -0.633  0.00  0.00    -0.013 C 
ATOM     24  C   UNL     1       1.864   1.767  -0.999  0.00  0.00    +0.005 C 
ENDBRANCH  22  23
ENDBRANCH   5  22
BRANCH   4  25
ATOM     25  S   UNL     1      -2.108  -1.037   0.545  0.00  0.00    -0.081 S 
BRANCH  25  26
ATOM     26  C   UNL     1      -3.459  -2.173   0.143  0.00  0.00    +0.112 C 
BRANCH  26  27
ATOM     27  C   UNL     1      -3.471  -3.309   1.133  0.00  0.00    -0.037 A 
ATOM     28  C   UNL     1      -2.745  -4.457   0.878  0.00  0.00    +0.007 A 
ATOM     29  C   UNL     1      -2.753  -5.497   1.789  0.00  0.00    +0.033 A 
ATOM     30  C   UNL     1      -3.496  -5.392   2.950  0.00  0.00    +0.126 A 
ATOM     31  C   UNL     1      -4.226  -4.246   3.203  0.00  0.00    +0.033 A 
ATOM     32  C   UNL     1      -4.214  -3.204   2.295  0.00  0.00    +0.007 A 
BRANCH  30  33
ATOM     33  N   UNL     1      -3.508  -6.508   3.923  0.00  0.00    +0.056 N 
ATOM     34  O   UNL     1      -4.162  -6.415   4.947  0.00  0.00    -0.126 OA
ATOM     35  O   UNL     1      -2.865  -7.518   3.700  0.00  0.00    -0.126 OA
ENDBRANCH  30  33
ENDBRANCH  26  27
ENDBRANCH  25  26
ENDBRANCH   4  25
TORSDOF 11
