REMARK  Name = ZINC06244874
REMARK  10 active torsions:
REMARK  status: ('A' for Active; 'I' for Inactive)
REMARK    1  A    between atoms: C_1  and  C_2
REMARK    2  A    between atoms: C_5  and  C_39
REMARK    3  A    between atoms: C_9  and  C_14
REMARK    4  A    between atoms: C_14  and  C_16
REMARK    5  A    between atoms: C_14  and  N_69
REMARK    6  A    between atoms: N_20  and  C_21
REMARK    7  A    between atoms: C_26  and  C_27
REMARK    8  A    between atoms: C_26  and  N_69
REMARK    9  A    between atoms: C_33  and  C_34
REMARK   10  A    between atoms: C_33  and  N_69
REMARK                            x       y       z     vdW  Elec       q    Type
REMARK                         _______ _______ _______ _____ _____    ______ ____
ROOT
ATOM      1  C   UNL     1       3.517  -0.207  -1.270  0.00  0.00    +0.040 C 
ENDROOT
BRANCH   1  10
ATOM      2  C   UNL     1       8.553  -0.338  -2.588  0.00  0.00    +0.044 C 
ATOM      3  C   UNL     1       7.758  -0.652  -3.829  0.00  0.00    -0.041 A 
ATOM      4  C   UNL     1       8.398  -0.903  -5.009  0.00  0.00    +0.004 A 
ATOM      5  C   UNL     1       7.675  -1.194  -6.157  0.00  0.00    +0.005 A 
ATOM      6  C   UNL     1       6.297  -1.235  -6.129  0.00  0.00    -0.026 A 
ATOM      7  C   UNL     1       5.623  -0.982  -4.939  0.00  0.00    +0.052 A 
ATOM      8  C   UNL     1       6.361  -0.688  -3.776  0.00  0.00    +0.002 A 
ATOM      9  C   UNL     1       5.642  -0.424  -2.528  0.00  0.00    +0.018 A 
ATOM     10  C   UNL     1       4.287  -0.473  -2.538  0.00  0.00    +0.011 A 
ATOM     11  C   UNL     1       3.596  -0.779  -3.730  0.00  0.00    +0.251 A 
ATOM     12  O   UNL     1       2.378  -0.823  -3.715  0.00  0.00    -0.268 OA
ATOM     13  N   UNL     1       4.246  -1.017  -4.882  0.00  0.00    -0.322 N 
ATOM     14  H   UNL     1       3.740  -1.220  -5.684  0.00  0.00    +0.169 HD
ATOM     15  C   UNL     1       5.524  -1.553  -7.383  0.00  0.00    +0.046 C 
ENDBRANCH   1  10
BRANCH   1  16
ATOM     16  C   UNL     1       2.941  -1.499  -0.752  0.00  0.00    +0.143 A 
ATOM     17  N   UNL     1       1.906  -2.143  -1.234  0.00  0.00    -0.115 NA
ATOM     18  N   UNL     1       1.729  -3.201  -0.520  0.00  0.00    -0.023 NA
ATOM     19  N   UNL     1       2.619  -3.245   0.409  0.00  0.00    -0.044 NA
ATOM     20  N   UNL     1       3.385  -2.212   0.300  0.00  0.00    -0.227 N 
BRANCH  20  21
ATOM     21  C   UNL     1       4.524  -1.879   1.158  0.00  0.00    +0.111 C 
ATOM     22  C   UNL     1       5.554  -3.028   1.139  0.00  0.00    +0.027 C 
ATOM     23  C   UNL     1       6.088  -3.083   2.592  0.00  0.00    +0.002 C 
ATOM     24  C   UNL     1       4.821  -2.793   3.434  0.00  0.00    +0.002 C 
ATOM     25  C   UNL     1       4.059  -1.730   2.617  0.00  0.00    +0.027 C 
ENDBRANCH  20  21
ENDBRANCH   1  16
BRANCH   1  26
ATOM     26  N   UNL     1       2.415   0.730  -1.573  0.00  0.00    +0.397 N 
ATOM     27  H   UNL     1       1.938   0.419  -2.427  0.00  0.00    -0.079 HD
BRANCH  26  28
ATOM     28  C   UNL     1       1.444   0.744  -0.458  0.00  0.00    -0.039 C 
BRANCH  28  29
ATOM     29  C   UNL     1       0.229   1.529  -0.881  0.00  0.00    -0.046 A 
ATOM     30  C   UNL     1      -0.829   0.898  -1.518  0.00  0.00    +0.005 A 
ATOM     31  C   UNL     1      -1.923   1.661  -1.893  0.00  0.00    +0.020 A 
ATOM     32  C   UNL     1      -1.928   3.015  -1.613  0.00  0.00    +0.111 A 
ATOM     33  N   UNL     1      -0.904   3.582  -1.006  0.00  0.00    -0.263 NA
ATOM     34  C   UNL     1       0.155   2.888  -0.639  0.00  0.00    +0.112 A 
ENDBRANCH  28  29
ENDBRANCH  26  28
BRANCH  26  35
ATOM     35  C   UNL     1       2.952   2.090  -1.791  0.00  0.00    -0.001 C 
BRANCH  35  36
ATOM     36  C   UNL     1       3.584   2.146  -3.158  0.00  0.00    +0.089 A 
ATOM     37  C   UNL     1       2.931   2.334  -4.319  0.00  0.00    +0.042 A 
ATOM     38  C   UNL     1       3.905   2.317  -5.344  0.00  0.00    +0.041 A 
ATOM     39  C   UNL     1       5.095   2.119  -4.748  0.00  0.00    +0.195 A 
ATOM     40  O   UNL     1       4.895   2.022  -3.423  0.00  0.00    -0.470 OA
ENDBRANCH  35  36
ENDBRANCH  26  35
ENDBRANCH   1  26
TORSDOF 8
