REMARK  Name = ZINC27748002
REMARK  11 active torsions:
REMARK  status: ('A' for Active; 'I' for Inactive)
REMARK    1  A    between atoms: C_1  and  C_2
REMARK    2  A    between atoms: C_2  and  S_3
REMARK    3  A    between atoms: S_3  and  C_6
REMARK    4  A    between atoms: C_9  and  N_22
REMARK    5  A    between atoms: C_10  and  C_12
REMARK    6  A    between atoms: N_14  and  C_15
REMARK    7  A    between atoms: C_19  and  C_21
REMARK    8  A    between atoms: N_22  and  C_23
REMARK    9  A    between atoms: N_22  and  C_31
REMARK   10  A    between atoms: C_23  and  C_24
REMARK   11  A    between atoms: C_31  and  C_32
REMARK                            x       y       z     vdW  Elec       q    Type
REMARK                         _______ _______ _______ _____ _____    ______ ____
ROOT
ATOM      1  C   UNL     1       1.960   1.996   1.224  0.00  0.00    +0.271 A 
ATOM      2  N   UNL     1       2.143   0.696   1.080  0.00  0.00    -0.218 NA
ATOM      3  C   UNL     1       1.141  -0.105   0.771  0.00  0.00    +0.140 A 
ATOM      4  C   UNL     1      -0.134   0.440   0.596  0.00  0.00    +0.080 A 
ATOM      5  C   UNL     1      -0.288   1.826   0.758  0.00  0.00    +0.152 A 
ATOM      6  N   UNL     1       0.782   2.557   1.070  0.00  0.00    -0.205 NA
ENDROOT
BRANCH   5   7
ATOM      7  C   UNL     1      -1.611   2.463   0.579  0.00  0.00    +0.269 C 
ATOM      8  O   UNL     1      -2.578   1.786   0.290  0.00  0.00    -0.268 OA
ATOM      9  N   UNL     1      -1.744   3.795   0.738  0.00  0.00    -0.280 N 
ATOM     10  H   UNL     1      -0.857   4.419   0.919  0.00  0.00    +0.155 HD
BRANCH   9  11
ATOM     11  C   UNL     1      -3.011   4.383   0.671  0.00  0.00    +0.034 A 
ATOM     12  C   UNL     1      -4.128   3.684   1.111  0.00  0.00    +0.023 A 
ATOM     13  C   UNL     1      -5.377   4.268   1.044  0.00  0.00    +0.002 A 
ATOM     14  C   UNL     1      -5.517   5.548   0.540  0.00  0.00    +0.003 A 
ATOM     15  C   UNL     1      -4.408   6.248   0.102  0.00  0.00    -0.049 A 
ATOM     16  C   UNL     1      -3.155   5.671   0.171  0.00  0.00    +0.026 A 
ATOM     17  C   UNL     1      -4.565   7.643  -0.445  0.00  0.00    +0.044 C 
ENDBRANCH   9  11
ENDBRANCH   5   7
BRANCH   1  18
ATOM     18  S   UNL     1       3.340   3.011   1.636  0.00  0.00    +0.032 S 
ATOM     19  O   UNL     1       2.778   4.134   2.302  0.00  0.00    -0.166 OA
ATOM     20  O   UNL     1       4.238   2.143   2.313  0.00  0.00    -0.166 OA
BRANCH  18  22
ATOM     21  C   UNL     1       5.258   4.411   0.280  0.00  0.00    +0.028 C 
ATOM     22  C   UNL     1       4.040   3.516   0.041  0.00  0.00    +0.172 C 
ENDBRANCH  18  22
ENDBRANCH   1  18
BRANCH   4  23
ATOM     23  N   UNL     1      -1.217  -0.366   0.271  0.00  0.00    -0.315 N 
BRANCH  23  24
ATOM     24  C   UNL     1      -0.993  -1.062  -1.003  0.00  0.00    +0.140 C 
BRANCH  24  25
ATOM     25  C   UNL     1      -1.150  -0.088  -2.142  0.00  0.00    -0.030 A 
ATOM     26  C   UNL     1      -2.405   0.172  -2.660  0.00  0.00    +0.006 A 
ATOM     27  C   UNL     1      -2.551   1.069  -3.701  0.00  0.00    +0.020 A 
ATOM     28  C   UNL     1      -1.439   1.699  -4.232  0.00  0.00    +0.041 A 
ATOM     29  C   UNL     1      -0.182   1.434  -3.717  0.00  0.00    +0.020 A 
ATOM     30  C   UNL     1      -0.039   0.541  -2.672  0.00  0.00    +0.006 A 
ATOM     31 CL   UNL     1      -1.620   2.821  -5.544  0.00  0.00    -0.084 Cl
ENDBRANCH  24  25
ENDBRANCH  23  24
BRANCH  23  32
ATOM     32  C   UNL     1      -1.505  -1.321   1.349  0.00  0.00    +0.179 C 
BRANCH  32  33
ATOM     33  C   UNL     1      -2.889  -1.886   1.164  0.00  0.00    +0.122 A 
ATOM     34  C   UNL     1      -3.193  -3.030   0.524  0.00  0.00    +0.046 A 
ATOM     35  C   UNL     1      -4.598  -3.174   0.589  0.00  0.00    +0.041 A 
ATOM     36  C   UNL     1      -5.069  -2.110   1.264  0.00  0.00    +0.195 A 
ATOM     37  O   UNL     1      -4.029  -1.336   1.615  0.00  0.00    -0.466 OA
ENDBRANCH  32  33
ENDBRANCH  23  32
ENDBRANCH   4  23
TORSDOF 9
