REMARK  Name = ZINC65409737
REMARK  6 active torsions:
REMARK  status: ('A' for Active; 'I' for Inactive)
REMARK    1  A    between atoms: C_1  and  C_2
REMARK    2  A    between atoms: N_10  and  C_11
REMARK    3  A    between atoms: C_11  and  C_12
REMARK    4  A    between atoms: C_12  and  N_13
REMARK    5  A    between atoms: C_16  and  C_25
REMARK    6  A    between atoms: C_18  and  C_20
REMARK                            x       y       z     vdW  Elec       q    Type
REMARK                         _______ _______ _______ _____ _____    ______ ____
ROOT
ATOM      1  N   UNL     1       6.109  -1.946  -0.039  0.00  0.00    -0.277 NA
ATOM      2  C   UNL     1       6.360  -1.350   1.298  0.00  0.00    +0.169 C 
ATOM      3  N   UNL     1       7.818  -1.067   1.293  0.00  0.00    -0.295 NA
ATOM      4  C   UNL     1       8.417  -2.224   0.587  0.00  0.00    +0.110 C 
ATOM      5  C   UNL     1       7.291  -2.803  -0.290  0.00  0.00    +0.144 C 
ATOM      6  H   UNL     1       8.017  -0.204   0.808  0.00  0.00    +0.124 HD
ENDROOT
BRANCH   5   7
ATOM      7  C   UNL     1       7.680  -2.741  -1.745  0.00  0.00    +0.104 A 
ATOM      8  N   UNL     1       7.480  -1.712  -2.552  0.00  0.00    -0.349 N 
ATOM      9  C   UNL     1       7.962  -2.031  -3.771  0.00  0.00    +0.101 A 
ATOM     10  C   UNL     1       8.463  -3.280  -3.691  0.00  0.00    +0.101 A 
ATOM     11  N   UNL     1       8.284  -3.705  -2.423  0.00  0.00    -0.349 N 
ATOM     12  H   UNL     1       8.549  -4.568  -2.069  0.00  0.00    +0.166 HD
ATOM     13  H   UNL     1       7.059  -0.873  -2.310  0.00  0.00    +0.166 HD
ENDBRANCH   5   7
BRANCH   4  14
ATOM     14  C   UNL     1       9.569  -1.770  -0.273  0.00  0.00    -0.029 A 
ATOM     15  C   UNL     1       9.491  -0.571  -0.955  0.00  0.00    +0.005 A 
ATOM     16  C   UNL     1      10.547  -0.155  -1.744  0.00  0.00    +0.000 A 
ATOM     17  C   UNL     1      11.681  -0.938  -1.850  0.00  0.00    +0.000 A 
ATOM     18  C   UNL     1      11.760  -2.137  -1.166  0.00  0.00    +0.000 A 
ATOM     19  C   UNL     1      10.705  -2.551  -0.374  0.00  0.00    +0.005 A 
ENDBRANCH   4  14
BRANCH   1  20
ATOM     20  C   UNL     1       4.873  -2.741  -0.038  0.00  0.00    +0.105 C 
BRANCH  20  21
ATOM     21  C   UNL     1       3.664  -1.804  -0.026  0.00  0.00    +0.119 C 
BRANCH  21  31
ATOM     22  C   UNL     1      -0.018   1.503   0.010  0.00  0.00    +0.066 C 
ATOM     23  C   UNL     1       0.002  -0.004   0.002  0.00  0.00    +0.047 A 
ATOM     24  C   UNL     1      -1.171  -0.701   0.004  0.00  0.00    +0.093 A 
ATOM     25  C   UNL     1      -1.126  -2.107  -0.004  0.00  0.00    +0.253 A 
ATOM     26  O   UNL     1      -2.156  -2.762  -0.004  0.00  0.00    -0.268 OA
ATOM     27  N   UNL     1       0.078  -2.717  -0.014  0.00  0.00    -0.295 N 
ATOM     28  H   UNL     1       0.132  -3.686  -0.020  0.00  0.00    +0.172 HD
ATOM     29  C   UNL     1       1.215  -1.970  -0.015  0.00  0.00    +0.196 A 
ATOM     30  N   UNL     1       1.164  -0.653  -0.013  0.00  0.00    -0.221 NA
ATOM     31  N   UNL     1       2.432  -2.597  -0.025  0.00  0.00    -0.314 N 
ATOM     32  H   UNL     1       2.478  -3.566  -0.031  0.00  0.00    +0.149 HD
ENDBRANCH  21  31
ENDBRANCH  20  21
ENDBRANCH   1  20
TORSDOF 5
