REMARK  Name = ZINC09663334
REMARK  11 active torsions:
REMARK  status: ('A' for Active; 'I' for Inactive)
REMARK    1  A    between atoms: C_1  and  C_2
REMARK    2  A    between atoms: C_2  and  N_3
REMARK    3  A    between atoms: C_4  and  C_28
REMARK    4  A    between atoms: C_7  and  S_8
REMARK    5  A    between atoms: S_8  and  C_9
REMARK    6  A    between atoms: C_9  and  C_11
REMARK    7  A    between atoms: C_9  and  C_12
REMARK    8  A    between atoms: N_14  and  C_15
REMARK    9  A    between atoms: C_18  and  N_25
REMARK   10  A    between atoms: C_20  and  C_21
REMARK   11  A    between atoms: C_28  and  C_29
REMARK                            x       y       z     vdW  Elec       q    Type
REMARK                         _______ _______ _______ _____ _____    ______ ____
ROOT
ATOM      1  C   UNL     1       3.212   2.722   3.571  0.00  0.00    +0.137 C 
ATOM      2  C   UNL     1       3.436   4.204   3.261  0.00  0.00    +0.029 C 
ENDROOT
BRANCH   1   3
ATOM      3  C   UNL     1       3.099   2.532   5.061  0.00  0.00    +0.230 C 
ATOM      4  O   UNL     1       2.007   2.418   5.577  0.00  0.00    -0.274 OA
ATOM      5  N   UNL     1       4.211   2.487   5.821  0.00  0.00    -0.284 N 
ATOM      6  H   UNL     1       5.085   2.498   5.402  0.00  0.00    +0.155 HD
BRANCH   5   7
ATOM      7  C   UNL     1       4.104   2.427   7.215  0.00  0.00    +0.045 A 
ATOM      8  C   UNL     1       2.968   2.915   7.848  0.00  0.00    +0.026 A 
ATOM      9  C   UNL     1       2.865   2.854   9.223  0.00  0.00    +0.034 A 
ATOM     10  C   UNL     1       3.892   2.307   9.971  0.00  0.00    +0.127 A 
ATOM     11  C   UNL     1       5.024   1.820   9.345  0.00  0.00    +0.047 A 
ATOM     12  C   UNL     1       5.130   1.873   7.968  0.00  0.00    +0.078 A 
BRANCH  12  13
ATOM     13  C   UNL     1       6.362   1.337   7.286  0.00  0.00    +0.419 C 
ATOM     14  F   UNL     1       7.247   0.835   8.247  0.00  0.00    -0.166 F 
ATOM     15  F   UNL     1       5.999   0.312   6.406  0.00  0.00    -0.166 F 
ATOM     16  F   UNL     1       6.985   2.366   6.571  0.00  0.00    -0.166 F 
ENDBRANCH  12  13
BRANCH  10  17
ATOM     17  N   UNL     1       3.778   2.242  11.446  0.00  0.00    +0.056 N 
ATOM     18  O   UNL     1       2.781   2.670  11.999  0.00  0.00    -0.126 OA
ATOM     19  O   UNL     1       4.681   1.760  12.106  0.00  0.00    -0.126 OA
ENDBRANCH  10  17
ENDBRANCH   5   7
ENDBRANCH   1   3
BRANCH   1  20
ATOM     20  S   UNL     1       1.686   2.163   2.774  0.00  0.00    -0.074 S 
BRANCH  20  25
ATOM     21  N   UNL     1       1.358   2.072  -0.004  0.00  0.00    -0.306 N 
ATOM     22  C   UNL     1       2.122   2.374  -1.097  0.00  0.00    +0.138 A 
ATOM     23  N   UNL     1       3.274   2.796  -0.661  0.00  0.00    -0.133 NA
ATOM     24  N   UNL     1       3.292   2.781   0.624  0.00  0.00    -0.122 NA
ATOM     25  C   UNL     1       2.139   2.350   1.081  0.00  0.00    +0.192 A 
BRANCH  21  27
ATOM     26  C   UNL     1       0.009   0.032  -0.018  0.00  0.00    +0.027 C 
ATOM     27  C   UNL     1      -0.016   1.561   0.002  0.00  0.00    +0.122 C 
ENDBRANCH  21  27
BRANCH  22  28
ATOM     28  C   UNL     1       1.707   2.242  -2.540  0.00  0.00    +0.111 C 
BRANCH  28  29
ATOM     29  C   UNL     1       1.073   3.530  -3.000  0.00  0.00    -0.040 A 
ATOM     30  C   UNL     1      -0.291   3.713  -2.871  0.00  0.00    +0.004 A 
ATOM     31  C   UNL     1      -0.872   4.896  -3.288  0.00  0.00    +0.000 A 
ATOM     32  C   UNL     1      -0.091   5.891  -3.844  0.00  0.00    +0.000 A 
ATOM     33  C   UNL     1       1.273   5.706  -3.978  0.00  0.00    +0.000 A 
ATOM     34  C   UNL     1       1.854   4.525  -3.556  0.00  0.00    +0.004 A 
ENDBRANCH  28  29
ENDBRANCH  22  28
ENDBRANCH  20  25
ENDBRANCH   1  20
TORSDOF 9
