REMARK  Name = ZINC14745394
REMARK  7 active torsions:
REMARK  status: ('A' for Active; 'I' for Inactive)
REMARK    1  A    between atoms: C_1  and  C_2
REMARK    2  A    between atoms: C_2  and  N_3
REMARK    3  A    between atoms: C_6  and  C_8
REMARK    4  A    between atoms: C_18  and  N_66
REMARK    5  A    between atoms: C_22  and  C_23
REMARK    6  A    between atoms: C_22  and  N_66
REMARK    7  A    between atoms: C_23  and  C_24
REMARK                            x       y       z     vdW  Elec       q    Type
REMARK                         _______ _______ _______ _____ _____    ______ ____
ROOT
ATOM      1  N   UNL     1       8.295   3.088  -6.269  0.00  0.00    -0.268 N 
ATOM      2  C   UNL     1       7.732   3.526  -5.131  0.00  0.00    +0.043 A 
ATOM      3  C   UNL     1       8.147   2.705  -4.135  0.00  0.00    +0.004 A 
ATOM      4  C   UNL     1       8.989   1.758  -4.742  0.00  0.00    +0.151 A 
ATOM      5  N   UNL     1       9.027   2.055  -6.030  0.00  0.00    -0.166 NA
ATOM      6  C   UNL     1       7.746   2.841  -2.692  0.00  0.00    +0.023 C 
ATOM      7  C   UNL     1       6.519   3.760  -2.618  0.00  0.00    -0.067 C 
ATOM      8  C   UNL     1       6.785   5.034  -3.425  0.00  0.00    -0.009 C 
ATOM      9  C   UNL     1       6.810   4.700  -4.922  0.00  0.00    +0.054 C 
ENDROOT
BRANCH   4  10
ATOM     10  C   UNL     1       9.694   0.646  -4.072  0.00  0.00    +0.267 C 
ATOM     11  O   UNL     1       9.491   0.420  -2.895  0.00  0.00    -0.268 OA
ATOM     12  N   UNL     1      10.561  -0.117  -4.766  0.00  0.00    -0.296 N 
ATOM     13  C   UNL     1      10.869   0.248  -6.130  0.00  0.00    +0.108 C 
ATOM     14  C   UNL     1       9.869  -0.425  -7.093  0.00  0.00    +0.019 C 
ATOM     15  C   UNL     1      10.125  -1.872  -7.165  0.00  0.00    +0.002 C 
ATOM     16  C   UNL     1       9.936  -2.610  -5.843  0.00  0.00    +0.002 C 
ATOM     17  C   UNL     1      11.206  -2.520  -5.034  0.00  0.00    +0.019 C 
ATOM     18  C   UNL     1      11.154  -1.296  -4.103  0.00  0.00    +0.108 C 
ENDBRANCH   4  10
BRANCH   7  19
ATOM     19  N   UNL     1       6.264   4.114  -1.209  0.00  0.00    +0.381 N 
ATOM     20  H   UNL     1       6.847   4.919  -0.951  0.00  0.00    -0.086 HD
ATOM     21  H   UNL     1       6.501   3.314  -0.611  0.00  0.00    -0.086 HD
BRANCH  19  22
ATOM     22  C   UNL     1       4.843   4.460  -1.017  0.00  0.00    -0.077 C 
BRANCH  22  23
ATOM     23  C   UNL     1       4.609   4.822   0.451  0.00  0.00    +0.018 C 
BRANCH  23  24
ATOM     24  C   UNL     1       3.159   5.178   0.655  0.00  0.00    -0.024 A 
ATOM     25  C   UNL     1       2.629   6.411   0.637  0.00  0.00    +0.087 A 
ATOM     26  N   UNL     1       1.281   6.343   0.862  0.00  0.00    -0.360 N 
ATOM     27  H   UNL     1       0.682   7.105   0.894  0.00  0.00    +0.165 HD
ATOM     28  C   UNL     1       0.901   5.031   1.034  0.00  0.00    +0.047 A 
ATOM     29  C   UNL     1       2.061   4.243   0.913  0.00  0.00    +0.003 A 
ATOM     30  C   UNL     1       1.978   2.856   1.043  0.00  0.00    +0.010 A 
ATOM     31  C   UNL     1       0.768   2.269   1.289  0.00  0.00    +0.001 A 
ATOM     32  C   UNL     1      -0.380   3.041   1.404  0.00  0.00    +0.002 A 
ATOM     33  C   UNL     1      -0.320   4.412   1.284  0.00  0.00    +0.026 A 
ENDBRANCH  23  24
ENDBRANCH  22  23
ENDBRANCH  19  22
ENDBRANCH   7  19
BRANCH   1  35
ATOM     34  C   UNL     1       6.901   3.046  -8.278  0.00  0.00    +0.029 C 
ATOM     35  C   UNL     1       8.104   3.694  -7.588  0.00  0.00    +0.140 C 
ENDBRANCH   1  35
TORSDOF 6
