REMARK  Name = ZINC41584585
REMARK  10 active torsions:
REMARK  status: ('A' for Active; 'I' for Inactive)
REMARK    1  A    between atoms: C_1  and  C_2
REMARK    2  A    between atoms: C_4  and  O_37
REMARK    3  A    between atoms: C_5  and  C_23
REMARK    4  A    between atoms: C_11  and  C_12
REMARK    5  A    between atoms: C_15  and  C_18
REMARK    6  A    between atoms: C_18  and  C_19
REMARK    7  A    between atoms: C_18  and  C_20
REMARK    8  A    between atoms: C_18  and  C_21
REMARK    9  A    between atoms: C_23  and  N_24
REMARK   10  A    between atoms: C_29  and  C_31
REMARK                            x       y       z     vdW  Elec       q    Type
REMARK                         _______ _______ _______ _____ _____    ______ ____
ROOT
ATOM      1  C   UNL     1       0.830   0.971   0.157  0.00  0.00    +0.045 C 
ATOM      2  C   UNL     1       0.554  -0.510   0.107  0.00  0.00    -0.033 A 
ATOM      3  C   UNL     1       0.315  -1.122  -1.091  0.00  0.00    +0.050 A 
ATOM      4  C   UNL     1       0.060  -2.489  -1.140  0.00  0.00    +0.122 A 
ATOM      5  C   UNL     1       0.046  -3.245   0.021  0.00  0.00    +0.020 A 
ATOM      6  C   UNL     1       0.288  -2.640   1.248  0.00  0.00    +0.145 A 
ATOM      7  C   UNL     1       0.548  -1.260   1.284  0.00  0.00    +0.071 A 
ATOM      8  C   UNL     1       0.768  -0.915   2.700  0.00  0.00    +0.232 C 
ATOM      9  O   UNL     1       1.020   0.180   3.171  0.00  0.00    -0.283 OA
ATOM     10  C   UNL     1       0.616  -2.192   3.418  0.00  0.00    +0.176 C 
ATOM     11  C   UNL     1       0.731  -2.377   4.756  0.00  0.00    +0.058 C 
ATOM     12  O   UNL     1       0.329  -3.144   2.500  0.00  0.00    -0.451 OA
ENDROOT
BRANCH  11  13
ATOM     13  C   UNL     1       0.698  -3.736   5.316  0.00  0.00    -0.021 A 
ATOM     14  C   UNL     1       0.683  -3.925   6.702  0.00  0.00    +0.008 A 
ATOM     15  C   UNL     1       0.652  -5.203   7.218  0.00  0.00    +0.005 A 
ATOM     16  C   UNL     1       0.636  -6.297   6.370  0.00  0.00    -0.042 A 
ATOM     17  C   UNL     1       0.652  -6.118   4.997  0.00  0.00    +0.005 A 
ATOM     18  C   UNL     1       0.677  -4.846   4.465  0.00  0.00    +0.008 A 
BRANCH  16  19
ATOM     19  C   UNL     1       0.603  -7.690   6.943  0.00  0.00    -0.013 C 
ATOM     20  C   UNL     1      -0.596  -7.826   7.884  0.00  0.00    +0.015 C 
ATOM     21  C   UNL     1       0.477  -8.707   5.807  0.00  0.00    +0.015 C 
ATOM     22  C   UNL     1       1.894  -7.952   7.721  0.00  0.00    +0.015 C 
ENDBRANCH  16  19
ENDBRANCH  11  13
BRANCH   4  23
ATOM     23  O   UNL     1      -0.177  -3.087  -2.335  0.00  0.00    -0.506 OA
ATOM     24  H   UNL     1       0.618  -3.418  -2.774  0.00  0.00    +0.292 HD
ENDBRANCH   4  23
BRANCH   5  25
ATOM     25  C   UNL     1      -0.232  -4.725  -0.047  0.00  0.00    -0.035 C 
BRANCH  25  26
ATOM     26  N   UNL     1      -1.683  -4.949  -0.093  0.00  0.00    +0.387 N 
ATOM     27  C   UNL     1      -2.289  -4.479   1.158  0.00  0.00    -0.078 C 
ATOM     28  C   UNL     1      -3.810  -4.635   1.083  0.00  0.00    -0.019 C 
ATOM     29  C   UNL     1      -4.155  -6.112   0.870  0.00  0.00    -0.003 C 
ATOM     30  C   UNL     1      -3.457  -6.611  -0.398  0.00  0.00    -0.011 C 
ATOM     31  C   UNL     1      -1.950  -6.382  -0.268  0.00  0.00    -0.036 C 
ATOM     32  H   UNL     1      -2.077  -4.438  -0.868  0.00  0.00    -0.080 HD
BRANCH  31  33
ATOM     33  C   UNL     1      -1.258  -6.873  -1.514  0.00  0.00    -0.043 A 
ATOM     34  C   UNL     1      -0.546  -8.062  -1.499  0.00  0.00    +0.005 A 
ATOM     35  C   UNL     1       0.074  -8.475  -2.668  0.00  0.00    +0.020 A 
ATOM     36  C   UNL     1      -0.037  -7.692  -3.802  0.00  0.00    +0.111 A 
ATOM     37  N   UNL     1      -0.723  -6.566  -3.779  0.00  0.00    -0.263 NA
ATOM     38  C   UNL     1      -1.331  -6.146  -2.687  0.00  0.00    +0.112 A 
ENDBRANCH  31  33
ENDBRANCH  25  26
ENDBRANCH   5  25
TORSDOF 6
