REMARK  Name = ZINC09422151
REMARK  16 active torsions:
REMARK  status: ('A' for Active; 'I' for Inactive)
REMARK    1  A    between atoms: C_1  and  C_2
REMARK    2  A    between atoms: C_2  and  C_3
REMARK    3  A    between atoms: C_3  and  C_4
REMARK    4  A    between atoms: C_4  and  N_71
REMARK    5  A    between atoms: C_5  and  C_6
REMARK    6  A    between atoms: C_5  and  N_71
REMARK    7  A    between atoms: C_6  and  C_7
REMARK    8  A    between atoms: C_7  and  C_8
REMARK    9  A    between atoms: C_9  and  C_10
REMARK   10  A    between atoms: C_9  and  N_71
REMARK   11  A    between atoms: C_11  and  O_34
REMARK   12  A    between atoms: C_18  and  C_19
REMARK   13  A    between atoms: N_21  and  C_30
REMARK   14  A    between atoms: C_25  and  O_28
REMARK   15  A    between atoms: O_28  and  C_29
REMARK   16  A    between atoms: C_30  and  C_31
REMARK                            x       y       z     vdW  Elec       q    Type
REMARK                         _______ _______ _______ _____ _____    ______ ____
ROOT
ATOM      1  C   UNL     1      -2.431   1.326   0.237  0.00  0.00    +0.020 A 
ATOM      2  C   UNL     1      -3.014   2.582   0.181  0.00  0.00    +0.122 A 
ATOM      3  C   UNL     1      -3.503   3.082  -1.022  0.00  0.00    +0.046 A 
ATOM      4  C   UNL     1      -3.424   2.332  -2.162  0.00  0.00    +0.019 A 
ATOM      5  C   UNL     1      -2.845   1.064  -2.119  0.00  0.00    +0.068 A 
ATOM      6  C   UNL     1      -2.343   0.552  -0.911  0.00  0.00    +0.144 A 
ATOM      7  O   UNL     1      -1.840  -0.680  -1.137  0.00  0.00    -0.451 OA
ATOM      8  C   UNL     1      -1.972  -1.039  -2.436  0.00  0.00    +0.176 C 
ATOM      9  C   UNL     1      -1.566  -2.219  -2.982  0.00  0.00    +0.060 C 
ATOM     10  C   UNL     1      -2.607   0.023  -3.134  0.00  0.00    +0.231 C 
ATOM     11  O   UNL     1      -2.893   0.064  -4.319  0.00  0.00    -0.283 OA
ENDROOT
BRANCH   9  12
ATOM     12  C   UNL     1      -1.927  -2.550  -4.359  0.00  0.00    +0.004 A 
ATOM     13  C   UNL     1      -3.140  -2.326  -4.973  0.00  0.00    +0.094 A 
ATOM     14  N   UNL     1      -3.088  -2.767  -6.254  0.00  0.00    -0.346 N 
ATOM     15  C   UNL     1      -1.845  -3.305  -6.530  0.00  0.00    +0.050 A 
ATOM     16  C   UNL     1      -1.065  -3.197  -5.368  0.00  0.00    +0.011 A 
ATOM     17  C   UNL     1       0.245  -3.665  -5.359  0.00  0.00    +0.056 A 
ATOM     18  C   UNL     1       0.775  -4.237  -6.501  0.00  0.00    +0.121 A 
ATOM     19  C   UNL     1       0.002  -4.344  -7.653  0.00  0.00    +0.047 A 
ATOM     20  C   UNL     1      -1.297  -3.883  -7.670  0.00  0.00    +0.030 A 
BRANCH  18  21
ATOM     21  O   UNL     1       2.055  -4.697  -6.499  0.00  0.00    -0.495 OA
ATOM     22  C   UNL     1       2.538  -5.276  -7.713  0.00  0.00    +0.277 C 
ENDBRANCH  18  21
BRANCH  14  23
ATOM     23  C   UNL     1      -4.195  -2.688  -7.209  0.00  0.00    +0.118 C 
ATOM     24  C   UNL     1      -4.972  -4.006  -7.198  0.00  0.00    +0.027 C 
ENDBRANCH  14  23
ENDBRANCH   9  12
BRANCH   2  25
ATOM     25  O   UNL     1      -3.103   3.334   1.309  0.00  0.00    -0.506 OA
ATOM     26  H   UNL     1      -2.341   3.909   1.459  0.00  0.00    +0.292 HD
ENDBRANCH   2  25
BRANCH   1  27
ATOM     27  C   UNL     1      -1.898   0.799   1.545  0.00  0.00    -0.036 C 
BRANCH  27  28
ATOM     28  N   UNL     1      -0.507   1.269   1.714  0.00  0.00    +0.383 N 
ATOM     29  H   UNL     1      -0.450   2.253   1.426  0.00  0.00    -0.081 HD
BRANCH  28  30
ATOM     30  C   UNL     1       0.403   0.468   0.869  0.00  0.00    -0.078 C 
BRANCH  30  31
ATOM     31  C   UNL     1       0.414  -0.992   1.327  0.00  0.00    -0.019 C 
BRANCH  31  33
ATOM     32  C   UNL     1       1.317  -3.272   0.850  0.00  0.00    +0.004 C 
ATOM     33  C   UNL     1       1.306  -1.812   0.392  0.00  0.00    -0.005 C 
ENDBRANCH  31  33
ENDBRANCH  30  31
ENDBRANCH  28  30
BRANCH  28  34
ATOM     34  C   UNL     1      -0.106   1.160   3.132  0.00  0.00    -0.078 C 
BRANCH  34  35
ATOM     35  C   UNL     1       1.244   1.855   3.318  0.00  0.00    -0.019 C 
BRANCH  35  36
ATOM     36  C   UNL     1       1.663   1.771   4.787  0.00  0.00    -0.005 C 
ATOM     37  C   UNL     1       3.014   2.466   4.973  0.00  0.00    +0.004 C 
ENDBRANCH  35  36
ENDBRANCH  34  35
ENDBRANCH  28  34
ENDBRANCH  27  28
ENDBRANCH   1  27
TORSDOF 12
