REMARK  Name = ZINC35156052
REMARK  11 active torsions:
REMARK  status: ('A' for Active; 'I' for Inactive)
REMARK    1  A    between atoms: C_1  and  O_2
REMARK    2  A    between atoms: O_2  and  C_3
REMARK    3  A    between atoms: C_3  and  C_4
REMARK    4  A    between atoms: C_4  and  N_5
REMARK    5  A    between atoms: N_5  and  C_6
REMARK    6  A    between atoms: C_6  and  C_7
REMARK    7  A    between atoms: C_7  and  C_8
REMARK    8  A    between atoms: C_14  and  C_16
REMARK    9  A    between atoms: C_23  and  C_25
REMARK   10  A    between atoms: C_30  and  O_31
REMARK   11  A    between atoms: O_31  and  C_32
REMARK                            x       y       z     vdW  Elec       q    Type
REMARK                         _______ _______ _______ _____ _____    ______ ____
ROOT
ATOM      1  C   UNL     1      -1.097  -4.380  -2.779  0.00  0.00    +0.115 C 
ENDROOT
BRANCH   1   2
ATOM      2  C   UNL     1      -1.711  -4.678  -4.122  0.00  0.00    +0.220 C 
ATOM      3  O   UNL     1      -2.291  -3.804  -4.732  0.00  0.00    -0.275 OA
ATOM      4  N   UNL     1      -1.616  -5.916  -4.647  0.00  0.00    -0.263 N 
ATOM      5  C   UNL     1      -2.182  -6.191  -5.885  0.00  0.00    +0.188 A 
ATOM      6  N   UNL     1      -2.841  -5.384  -6.696  0.00  0.00    -0.125 NA
ATOM      7  N   UNL     1      -3.303  -5.780  -7.803  0.00  0.00    -0.140 NA
ATOM      8  C   UNL     1      -3.119  -7.046  -8.158  0.00  0.00    +0.134 A 
ATOM      9  S   UNL     1      -2.200  -7.641  -6.745  0.00  0.00    -0.030 S 
ATOM     10  H   UNL     1      -1.152  -6.615  -4.159  0.00  0.00    +0.157 HD
BRANCH   8  11
ATOM     11  C   UNL     1      -3.548  -7.760  -9.380  0.00  0.00    +0.010 A 
ATOM     12  C   UNL     1      -3.246  -9.113  -9.543  0.00  0.00    +0.011 A 
ATOM     13  C   UNL     1      -3.649  -9.774 -10.685  0.00  0.00    +0.002 A 
ATOM     14  C   UNL     1      -4.352  -9.099 -11.667  0.00  0.00    +0.015 A 
ATOM     15  C   UNL     1      -4.654  -7.757 -11.512  0.00  0.00    +0.019 A 
ATOM     16  C   UNL     1      -4.261  -7.085 -10.371  0.00  0.00    +0.026 A 
ATOM     17 BR   UNL     1      -5.614  -6.843 -12.861  0.00  0.00    -0.050 Br
ENDBRANCH   8  11
ENDBRANCH   1   2
BRANCH   1  18
ATOM     18  C   UNL     1      -1.345  -2.913  -2.419  0.00  0.00    +0.117 C 
BRANCH  18  19
ATOM     19  N   UNL     1      -0.748  -2.623  -1.113  0.00  0.00    -0.295 N 
ATOM     20  C   UNL     1      -1.473  -2.788   0.011  0.00  0.00    +0.250 C 
ATOM     21  O   UNL     1      -1.006  -2.469   1.087  0.00  0.00    -0.270 OA
BRANCH  20  22
ATOM     22  C   UNL     1      -2.833  -3.355  -0.065  0.00  0.00    +0.078 A 
ATOM     23  C   UNL     1      -3.814  -2.728  -0.838  0.00  0.00    +0.017 A 
ATOM     24  C   UNL     1      -5.082  -3.262  -0.905  0.00  0.00    +0.001 A 
ATOM     25  C   UNL     1      -5.390  -4.420  -0.209  0.00  0.00    +0.004 A 
ATOM     26  C   UNL     1      -4.431  -5.050   0.559  0.00  0.00    +0.046 A 
ATOM     27  C   UNL     1      -3.147  -4.528   0.633  0.00  0.00    +0.132 A 
BRANCH  27  28
ATOM     28  O   UNL     1      -2.202  -5.149   1.383  0.00  0.00    -0.494 OA
ATOM     29  C   UNL     1      -2.596  -6.341   2.067  0.00  0.00    +0.277 C 
ENDBRANCH  27  28
ENDBRANCH  20  22
BRANCH  19  30
ATOM     30  C   UNL     1       0.637  -2.154  -1.029  0.00  0.00    +0.136 C 
BRANCH  30  31
ATOM     31  C   UNL     1       0.674  -0.637  -1.226  0.00  0.00    +0.178 C 
BRANCH  31  33
ATOM     32  C   UNL     1      -0.030   1.427  -0.232  0.00  0.00    +0.194 C 
ATOM     33  O   UNL     1      -0.007   0.001  -0.144  0.00  0.00    -0.381 OA
ENDBRANCH  31  33
ENDBRANCH  30  31
ENDBRANCH  19  30
ENDBRANCH  18  19
ENDBRANCH   1  18
TORSDOF 9
