REMARK  Name = ZINC67381540
REMARK  6 active torsions:
REMARK  status: ('A' for Active; 'I' for Inactive)
REMARK    1  A    between atoms: C_1  and  C_2
REMARK    2  A    between atoms: C_6  and  C_7
REMARK    3  A    between atoms: N_9  and  N_10
REMARK    4  A    between atoms: N_13  and  C_14
REMARK    5  A    between atoms: C_14  and  C_15
REMARK    6  A    between atoms: C_15  and  N_21
REMARK                            x       y       z     vdW  Elec       q    Type
REMARK                         _______ _______ _______ _____ _____    ______ ____
ROOT
ATOM      1  N   UNL     1       2.731  -2.578   9.048  0.00  0.00    -0.218 N 
ATOM      2  C   UNL     1       1.618  -2.689   8.296  0.00  0.00    +0.316 C 
ATOM      3  O   UNL     1       0.839  -1.759   8.222  0.00  0.00    -0.251 OA
ATOM      4  N   UNL     1       1.370  -3.831   7.626  0.00  0.00    -0.300 N 
ATOM      5  H   UNL     1       2.910  -1.755   9.530  0.00  0.00    +0.174 HD
ATOM      6  H   UNL     1       1.992  -4.573   7.684  0.00  0.00    +0.150 HD
ENDROOT
BRANCH   1   9
ATOM      7  C   UNL     1       4.742  -3.538   9.885  0.00  0.00    +0.267 C 
ATOM      8  O   UNL     1       4.967  -2.506  10.490  0.00  0.00    -0.268 OA
ATOM      9  N   UNL     1       3.630  -3.649   9.133  0.00  0.00    -0.229 N 
ATOM     10  H   UNL     1       3.451  -4.471   8.650  0.00  0.00    +0.173 HD
BRANCH   7  16
ATOM     11  C   UNL     1       7.391  -3.612  11.522  0.00  0.00    +0.045 C 
ATOM     12  C   UNL     1       6.871  -4.750  10.682  0.00  0.00    -0.031 A 
ATOM     13  C   UNL     1       7.540  -5.945  10.575  0.00  0.00    +0.011 A 
ATOM     14  C   UNL     1       7.015  -6.927   9.802  0.00  0.00    +0.046 A 
ATOM     15  S   UNL     1       5.597  -6.261   9.197  0.00  0.00    -0.092 S 
ATOM     16  C   UNL     1       5.682  -4.659   9.974  0.00  0.00    +0.078 A 
ENDBRANCH   7  16
ENDBRANCH   1   9
BRANCH   4  17
ATOM     17  C   UNL     1       0.160  -3.953   6.808  0.00  0.00    +0.094 C 
BRANCH  17  18
ATOM     18  C   UNL     1       0.183  -5.286   6.058  0.00  0.00    -0.050 C 
ATOM     19  C   UNL     1      -1.012  -5.355   5.104  0.00  0.00    -0.010 C 
ATOM     20  C   UNL     1      -2.311  -5.243   5.905  0.00  0.00    -0.001 C 
ATOM     21  C   UNL     1      -2.392  -6.394   6.909  0.00  0.00    -0.000 C 
ATOM     22  C   UNL     1      -1.197  -6.325   7.863  0.00  0.00    -0.001 C 
ATOM     23  C   UNL     1       0.102  -6.437   7.062  0.00  0.00    -0.010 C 
BRANCH  18  24
ATOM     24  N   UNL     1       1.430  -5.394   5.289  0.00  0.00    +0.384 N 
ATOM     25  C   UNL     1       1.527  -4.264   4.356  0.00  0.00    -0.078 C 
ATOM     26  C   UNL     1       2.861  -4.327   3.610  0.00  0.00    -0.019 C 
ATOM     27  C   UNL     1       2.943  -5.643   2.831  0.00  0.00    -0.004 C 
ATOM     28  C   UNL     1       2.766  -6.812   3.804  0.00  0.00    -0.019 C 
ATOM     29  C   UNL     1       1.435  -6.657   4.543  0.00  0.00    -0.078 C 
ATOM     30  H   UNL     1       2.216  -5.374   5.921  0.00  0.00    -0.081 HD
ENDBRANCH  18  24
ENDBRANCH  17  18
ENDBRANCH   4  17
TORSDOF 5
