REMARK  Name = ZINC66384021
REMARK  8 active torsions:
REMARK  status: ('A' for Active; 'I' for Inactive)
REMARK    1  A    between atoms: C_6  and  C_7
REMARK    2  A    between atoms: C_7  and  C_8
REMARK    3  A    between atoms: C_8  and  C_9
REMARK    4  A    between atoms: C_9  and  N_10
REMARK    5  A    between atoms: N_13  and  N_14
REMARK    6  A    between atoms: N_14  and  C_15
REMARK    7  A    between atoms: C_15  and  N_17
REMARK    8  A    between atoms: N_17  and  C_18
REMARK                            x       y       z     vdW  Elec       q    Type
REMARK                         _______ _______ _______ _____ _____    ______ ____
ROOT
ATOM      1  N   UNL     1      -3.493  -2.053  -2.798  0.00  0.00    -0.298 N 
ATOM      2  C   UNL     1      -4.635  -2.729  -3.037  0.00  0.00    +0.316 C 
ATOM      3  O   UNL     1      -5.304  -3.138  -2.108  0.00  0.00    -0.251 OA
ATOM      4  N   UNL     1      -5.033  -2.952  -4.305  0.00  0.00    -0.219 N 
ATOM      5  H   UNL     1      -2.959  -1.726  -3.539  0.00  0.00    +0.150 HD
ATOM      6  H   UNL     1      -5.854  -3.439  -4.477  0.00  0.00    +0.174 HD
ENDROOT
BRANCH   4   7
ATOM      7  N   UNL     1      -4.261  -2.481  -5.375  0.00  0.00    -0.245 N 
ATOM      8  H   UNL     1      -3.440  -1.994  -5.203  0.00  0.00    +0.172 HD
BRANCH   7   9
ATOM      9  C   UNL     1      -4.660  -2.704  -6.643  0.00  0.00    +0.147 C 
ATOM     10  S   UNL     1      -3.717  -2.128  -7.951  0.00  0.00    -0.017 S 
BRANCH   9  11
ATOM     11  N   UNL     1      -5.801  -3.380  -6.882  0.00  0.00    -0.323 N 
ATOM     12  H   UNL     1      -6.335  -3.707  -6.141  0.00  0.00    +0.148 HD
BRANCH  11  13
ATOM     13  C   UNL     1      -6.234  -3.623  -8.260  0.00  0.00    +0.072 C 
ATOM     14  C   UNL     1      -5.606  -4.928  -8.790  0.00  0.00    +0.022 C 
ATOM     15  C   UNL     1      -6.696  -6.001  -8.545  0.00  0.00    +0.002 C 
ATOM     16  C   UNL     1      -8.005  -5.237  -8.862  0.00  0.00    +0.002 C 
ATOM     17  C   UNL     1      -7.760  -3.819  -8.306  0.00  0.00    +0.022 C 
ENDBRANCH  11  13
ENDBRANCH   9  11
ENDBRANCH   7   9
ENDBRANCH   4   7
BRANCH   1  18
ATOM     18  C   UNL     1      -3.060  -1.810  -1.420  0.00  0.00    +0.106 C 
BRANCH  18  19
ATOM     19  C   UNL     1      -1.745  -1.028  -1.429  0.00  0.00    +0.023 C 
BRANCH  19  20
ATOM     20  C   UNL     1      -1.293  -0.775   0.011  0.00  0.00    +0.037 C 
BRANCH  20  26
ATOM     21  C   UNL     1      -0.017   1.378   0.010  0.00  0.00    +0.005 A 
ATOM     22  C   UNL     1       1.171   2.086   0.002  0.00  0.00    +0.022 A 
ATOM     23  C   UNL     1       2.378   1.412  -0.013  0.00  0.00    +0.059 A 
ATOM     24  C   UNL     1       2.397   0.027  -0.021  0.00  0.00    +0.060 A 
ATOM     25  C   UNL     1       1.208  -0.680  -0.013  0.00  0.00    +0.025 A 
ATOM     26  C   UNL     1       0.002  -0.004   0.002  0.00  0.00    -0.046 A 
ATOM     27 CL   UNL     1       3.912  -0.821  -0.040  0.00  0.00    -0.082 Cl
ATOM     28 CL   UNL     1       3.869   2.301  -0.023  0.00  0.00    -0.082 Cl
ENDBRANCH  20  26
ENDBRANCH  19  20
ENDBRANCH  18  19
ENDBRANCH   1  18
TORSDOF 8
