REMARK  Name = ZINC13064698
REMARK  11 active torsions:
REMARK  status: ('A' for Active; 'I' for Inactive)
REMARK    1  A    between atoms: C_1  and  C_2
REMARK    2  A    between atoms: C_2  and  C_3
REMARK    3  A    between atoms: C_3  and  C_5
REMARK    4  A    between atoms: C_3  and  N_69
REMARK    5  A    between atoms: N_9  and  C_10
REMARK    6  A    between atoms: C_10  and  C_11
REMARK    7  A    between atoms: C_18  and  C_19
REMARK    8  A    between atoms: C_18  and  N_69
REMARK    9  A    between atoms: C_23  and  C_32
REMARK   10  A    between atoms: C_24  and  C_31
REMARK   11  A    between atoms: C_33  and  N_69
REMARK                            x       y       z     vdW  Elec       q    Type
REMARK                         _______ _______ _______ _____ _____    ______ ____
ROOT
ATOM      1  N   UNL     1      -6.148   3.521  -0.869  0.00  0.00    +0.391 N 
ATOM      2  H   UNL     1      -5.285   4.069  -0.966  0.00  0.00    -0.080 HD
ENDROOT
BRANCH   1   3
ATOM      3  C   UNL     1      -6.132   2.422  -1.856  0.00  0.00    -0.067 C 
ATOM      4  C   UNL     1      -4.694   1.881  -1.990  0.00  0.00    -0.015 C 
ATOM      5  C   UNL     1      -4.546   1.564  -3.500  0.00  0.00    -0.002 C 
ATOM      6  C   UNL     1      -5.322   2.725  -4.170  0.00  0.00    -0.002 C 
ATOM      7  C   UNL     1      -6.532   2.958  -3.242  0.00  0.00    -0.015 C 
ENDBRANCH   1   3
BRANCH   1   8
ATOM      8  C   UNL     1      -7.307   4.404  -1.115  0.00  0.00    +0.003 C 
BRANCH   8   9
ATOM      9  C   UNL     1      -8.592   3.619  -1.056  0.00  0.00    +0.138 A 
ATOM     10  N   UNL     1      -8.818   2.540  -0.345  0.00  0.00    -0.115 NA
ATOM     11  N   UNL     1     -10.032   2.168  -0.563  0.00  0.00    -0.023 NA
ATOM     12  N   UNL     1     -10.584   2.976  -1.399  0.00  0.00    -0.044 NA
ATOM     13  N   UNL     1      -9.728   3.884  -1.727  0.00  0.00    -0.226 N 
BRANCH  13  14
ATOM     14  C   UNL     1      -9.951   4.995  -2.655  0.00  0.00    +0.182 C 
BRANCH  14  15
ATOM     15  C   UNL     1      -9.712   4.526  -4.067  0.00  0.00    -0.026 A 
ATOM     16  C   UNL     1      -8.487   4.744  -4.670  0.00  0.00    +0.008 A 
ATOM     17  C   UNL     1      -8.265   4.309  -5.963  0.00  0.00    +0.038 A 
ATOM     18  C   UNL     1      -9.274   3.665  -6.659  0.00  0.00    +0.123 A 
ATOM     19  C   UNL     1     -10.502   3.451  -6.056  0.00  0.00    +0.038 A 
ATOM     20  C   UNL     1     -10.720   3.882  -4.761  0.00  0.00    +0.008 A 
ATOM     21  F   UNL     1      -9.059   3.244  -7.924  0.00  0.00    -0.205 F 
ENDBRANCH  14  15
ENDBRANCH  13  14
ENDBRANCH   8   9
BRANCH   8  23
ATOM     22  C   UNL     1      -6.031   6.305  -0.114  0.00  0.00    +0.002 C 
ATOM     23  C   UNL     1      -7.332   5.502  -0.049  0.00  0.00    -0.011 C 
ENDBRANCH   8  23
ENDBRANCH   1   8
BRANCH   1  24
ATOM     24  C   UNL     1      -6.214   2.970   0.501  0.00  0.00    -0.036 C 
BRANCH  24  25
ATOM     25  C   UNL     1      -4.941   2.216   0.784  0.00  0.00    +0.001 A 
ATOM     26  C   UNL     1      -3.887   2.858   1.347  0.00  0.00    +0.017 A 
ATOM     27  C   UNL     1      -2.664   2.097   1.610  0.00  0.00    -0.001 A 
ATOM     28  C   UNL     1      -1.544   2.704   2.188  0.00  0.00    +0.013 A 
ATOM     29  C   UNL     1      -0.418   1.967   2.420  0.00  0.00    -0.047 A 
ATOM     30  C   UNL     1      -0.375   0.619   2.088  0.00  0.00    -0.046 A 
ATOM     31  C   UNL     1      -1.466   0.001   1.518  0.00  0.00    +0.030 A 
ATOM     32  C   UNL     1      -2.622   0.733   1.266  0.00  0.00    +0.049 A 
ATOM     33  N   UNL     1      -3.730   0.138   0.702  0.00  0.00    -0.322 N 
ATOM     34  H   UNL     1      -3.701  -0.804   0.470  0.00  0.00    +0.169 HD
ATOM     35  C   UNL     1      -4.849   0.845   0.464  0.00  0.00    +0.251 A 
ATOM     36  O   UNL     1      -5.808   0.287  -0.041  0.00  0.00    -0.268 OA
ATOM     37  C   UNL     1       0.878  -0.174   2.354  0.00  0.00    +0.044 C 
ATOM     38  C   UNL     1       0.788   2.622   3.042  0.00  0.00    +0.044 C 
ENDBRANCH  24  25
ENDBRANCH   1  24
TORSDOF 8
