REMARK  Name = ZINC01577038
REMARK  10 active torsions:
REMARK  status: ('A' for Active; 'I' for Inactive)
REMARK    1  A    between atoms: C_1  and  N_2
REMARK    2  A    between atoms: N_2  and  C_3
REMARK    3  A    between atoms: N_2  and  C_4
REMARK    4  A    between atoms: C_6  and  N_23
REMARK    5  A    between atoms: C_7  and  C_11
REMARK    6  A    between atoms: C_11  and  C_12
REMARK    7  A    between atoms: C_13  and  N_22
REMARK    8  A    between atoms: C_15  and  N_19
REMARK    9  A    between atoms: N_19  and  C_20
REMARK   10  A    between atoms: N_19  and  C_21
REMARK                            x       y       z     vdW  Elec       q    Type
REMARK                         _______ _______ _______ _____ _____    ______ ____
ROOT
ATOM      1  C   UNL     1       1.029  -0.257  -1.265  0.00  0.00    +0.077 C 
ENDROOT
BRANCH   1   5
ATOM      2  C   UNL     1       2.270   3.785  -1.923  0.00  0.00    +0.032 A 
ATOM      3  C   UNL     1       1.082   3.527  -1.253  0.00  0.00    +0.046 A 
ATOM      4  C   UNL     1       0.679   2.217  -1.040  0.00  0.00    +0.031 A 
ATOM      5  C   UNL     1       1.466   1.166  -1.497  0.00  0.00    -0.004 A 
ATOM      6  C   UNL     1       2.648   1.426  -2.165  0.00  0.00    +0.048 A 
ATOM      7  C   UNL     1       3.052   2.732  -2.378  0.00  0.00    +0.043 A 
ATOM      8 CL   UNL     1       3.628   0.112  -2.735  0.00  0.00    -0.083 Cl
BRANCH   2  10
ATOM      9  C   UNL     1       1.852   6.214  -1.660  0.00  0.00    +0.129 C 
ATOM     10  N   UNL     1       2.678   5.104  -2.140  0.00  0.00    -0.336 N 
ATOM     11  C   UNL     1       3.931   5.375  -2.848  0.00  0.00    +0.129 C 
ENDBRANCH   2  10
BRANCH   4  12
ATOM     12  N   UNL     1      -0.515   1.954  -0.366  0.00  0.00    -0.358 N 
ATOM     13  H   UNL     1      -1.231   2.608  -0.374  0.00  0.00    +0.142 HD
ATOM     14  H   UNL     1      -0.629   1.116   0.111  0.00  0.00    +0.142 HD
ENDBRANCH   4  12
ENDBRANCH   1   5
BRANCH   1  15
ATOM     15  C   UNL     1       0.322  -0.772  -2.493  0.00  0.00    -0.004 A 
ATOM     16  C   UNL     1       1.028  -1.488  -3.452  0.00  0.00    +0.031 A 
ATOM     17  C   UNL     1       0.377  -1.962  -4.581  0.00  0.00    +0.046 A 
ATOM     18  C   UNL     1      -0.980  -1.719  -4.750  0.00  0.00    +0.032 A 
ATOM     19  C   UNL     1      -1.681  -1.003  -3.788  0.00  0.00    +0.043 A 
ATOM     20  C   UNL     1      -1.030  -0.537  -2.660  0.00  0.00    +0.048 A 
ATOM     21 CL   UNL     1      -1.911   0.351  -1.457  0.00  0.00    -0.083 Cl
BRANCH  18  22
ATOM     22  N   UNL     1      -1.639  -2.194  -5.886  0.00  0.00    -0.336 N 
ATOM     23  C   UNL     1      -0.898  -2.949  -6.901  0.00  0.00    +0.129 C 
ATOM     24  C   UNL     1      -3.070  -1.938  -6.064  0.00  0.00    +0.129 C 
ENDBRANCH  18  22
BRANCH  16  25
ATOM     25  N   UNL     1       2.393  -1.730  -3.279  0.00  0.00    -0.358 N 
ATOM     26  H   UNL     1       2.775  -1.740  -2.387  0.00  0.00    +0.142 HD
ATOM     27  H   UNL     1       2.959  -1.888  -4.051  0.00  0.00    +0.142 HD
ENDBRANCH  16  25
ENDBRANCH   1  15
TORSDOF 6
