REMARK  Name = ZINC44217184
REMARK  5 active torsions:
REMARK  status: ('A' for Active; 'I' for Inactive)
REMARK    1  A    between atoms: C_7  and  C_18
REMARK    2  A    between atoms: C_8  and  C_11
REMARK    3  A    between atoms: C_18  and  C_20
REMARK    4  A    between atoms: C_18  and  N_24
REMARK    5  A    between atoms: C_20  and  C_21
REMARK                            x       y       z     vdW  Elec       q    Type
REMARK                         _______ _______ _______ _____ _____    ______ ____
ROOT
ATOM      1  C   UNL     1      -0.016   1.362   0.009  0.00  0.00    +0.001 A 
ATOM      2  C   UNL     1       1.170   2.083   0.002  0.00  0.00    +0.002 A 
ATOM      3  C   UNL     1       2.386   1.436  -0.013  0.00  0.00    +0.026 A 
ATOM      4  C   UNL     1       2.430   0.046  -0.021  0.00  0.00    +0.047 A 
ATOM      5  C   UNL     1       1.225  -0.681  -0.013  0.00  0.00    +0.002 A 
ATOM      6  C   UNL     1       0.002  -0.004   0.002  0.00  0.00    +0.010 A 
ATOM      7  C   UNL     1       1.599  -2.095  -0.025  0.00  0.00    -0.028 A 
ATOM      8  C   UNL     1       2.954  -2.145  -0.038  0.00  0.00    +0.049 A 
ATOM      9  N   UNL     1       3.462  -0.866  -0.036  0.00  0.00    -0.354 N 
ATOM     10  H   UNL     1       4.406  -0.641  -0.043  0.00  0.00    +0.166 HD
ENDROOT
BRANCH   8  11
ATOM     11  C   UNL     1       3.762  -3.383  -0.052  0.00  0.00    -0.001 A 
ATOM     12  C   UNL     1       3.434  -4.443   0.796  0.00  0.00    +0.011 A 
ATOM     13  C   UNL     1       4.191  -5.596   0.778  0.00  0.00    +0.020 A 
ATOM     14  C   UNL     1       5.275  -5.703  -0.077  0.00  0.00    +0.041 A 
ATOM     15  C   UNL     1       5.605  -4.655  -0.920  0.00  0.00    +0.020 A 
ATOM     16  C   UNL     1       4.851  -3.500  -0.916  0.00  0.00    +0.011 A 
ATOM     17 CL   UNL     1       6.223  -7.157  -0.093  0.00  0.00    -0.084 Cl
ENDBRANCH   8  11
BRANCH   7  18
ATOM     18  C   UNL     1       0.658  -3.272  -0.021  0.00  0.00    -0.031 C 
BRANCH  18  19
ATOM     19  N   UNL     1      -0.403  -3.048   0.969  0.00  0.00    +0.383 N 
ATOM     20  H   UNL     1      -0.913  -2.210   0.732  0.00  0.00    -0.089 HD
ATOM     21  H   UNL     1      -1.033  -3.836   0.971  0.00  0.00    -0.089 HD
ATOM     22  H   UNL     1       0.008  -2.943   1.885  0.00  0.00    -0.089 HD
ENDBRANCH  18  19
BRANCH  18  23
ATOM     23  C   UNL     1       0.035  -3.430  -1.410  0.00  0.00    +0.113 C 
BRANCH  23  24
ATOM     24  C   UNL     1      -0.810  -4.678  -1.442  0.00  0.00    +0.355 C 
ATOM     25  O   UNL     1      -0.905  -5.375  -0.446  0.00  0.00    -0.246 OA
ATOM     26  O   UNL     1      -1.399  -4.989  -2.463  0.00  0.00    -0.246 OA
ENDBRANCH  23  24
ENDBRANCH  18  23
ENDBRANCH   7  18
TORSDOF 5
