REMARK  Name = ZINC08409884
REMARK  5 active torsions:
REMARK  status: ('A' for Active; 'I' for Inactive)
REMARK    1  A    between atoms: C_1  and  C_2
REMARK    2  A    between atoms: C_4  and  C_24
REMARK    3  A    between atoms: C_8  and  N_23
REMARK    4  A    between atoms: C_9  and  C_11
REMARK    5  A    between atoms: C_11  and  C_13
REMARK                            x       y       z     vdW  Elec       q    Type
REMARK                         _______ _______ _______ _____ _____    ______ ____
ROOT
ATOM      1  C   UNL     1      -3.021   3.198   1.712  0.00  0.00    +0.044 C 
ATOM      2  C   UNL     1      -1.664   2.565   1.542  0.00  0.00    -0.037 A 
ATOM      3  C   UNL     1      -1.512   1.202   1.648  0.00  0.00    +0.027 A 
ATOM      4  C   UNL     1      -0.261   0.622   1.496  0.00  0.00    +0.040 A 
ATOM      5  N   UNL     1       0.795   1.369   1.239  0.00  0.00    -0.245 NA
ATOM      6  C   UNL     1       0.700   2.676   1.123  0.00  0.00    +0.111 A 
ATOM      7  C   UNL     1      -0.527   3.364   1.265  0.00  0.00    +0.032 A 
ATOM      8  C   UNL     1      -0.449   4.807   1.106  0.00  0.00    +0.052 A 
ATOM      9  C   UNL     1       0.786   5.370   0.836  0.00  0.00    +0.078 A 
ATOM     10  S   UNL     1       1.878   3.962   0.790  0.00  0.00    -0.064 S 
ATOM     11  C   UNL     1      -0.109  -0.872   1.621  0.00  0.00    +0.065 C 
ENDROOT
BRANCH   8  12
ATOM     12  N   UNL     1      -1.580   5.596   1.220  0.00  0.00    -0.356 N 
ATOM     13  H   UNL     1      -2.442   5.253   0.938  0.00  0.00    +0.142 HD
ATOM     14  H   UNL     1      -1.511   6.493   1.583  0.00  0.00    +0.142 HD
ENDBRANCH   8  12
BRANCH   9  15
ATOM     15  C   UNL     1       1.103   6.725   0.644  0.00  0.00    +0.178 C 
ATOM     16  O   UNL     1       0.230   7.568   0.709  0.00  0.00    -0.291 OA
BRANCH  15  17
ATOM     17  C   UNL     1       2.525   7.133   0.358  0.00  0.00    +0.035 C 
ATOM     18  C   UNL     1       3.001   6.456  -0.929  0.00  0.00    +0.018 C 
ATOM     19  C   UNL     1       4.444   6.870  -1.220  0.00  0.00    -0.010 C 
ATOM     20  C   UNL     1       4.515   8.390  -1.386  0.00  0.00    +0.007 C 
ATOM     21  C   UNL     1       4.040   9.066  -0.099  0.00  0.00    -0.010 C 
ATOM     22  C   UNL     1       2.596   8.652   0.191  0.00  0.00    +0.018 C 
ATOM     23  C   UNL     1       4.937   8.638   1.064  0.00  0.00    +0.007 C 
ATOM     24  C   UNL     1       4.866   7.119   1.230  0.00  0.00    -0.010 C 
ATOM     25  C   UNL     1       5.342   6.442  -0.057  0.00  0.00    +0.007 C 
ATOM     26  C   UNL     1       3.422   6.705   1.521  0.00  0.00    +0.018 C 
ENDBRANCH  15  17
ENDBRANCH   9  15
TORSDOF 3
