REMARK  Name = ZINC26464202
REMARK  8 active torsions:
REMARK  status: ('A' for Active; 'I' for Inactive)
REMARK    1  A    between atoms: C_1  and  C_2
REMARK    2  A    between atoms: C_2  and  C_4
REMARK    3  A    between atoms: C_2  and  N_19
REMARK    4  A    between atoms: N_6  and  C_7
REMARK    5  A    between atoms: C_7  and  C_8
REMARK    6  A    between atoms: C_8  and  C_9
REMARK    7  A    between atoms: N_22  and  S_25
REMARK    8  A    between atoms: S_25  and  C_28
REMARK                            x       y       z     vdW  Elec       q    Type
REMARK                         _______ _______ _______ _____ _____    ______ ____
ROOT
ATOM      1  N   UNL     1      -0.510   2.039  -1.266  0.00  0.00    +0.389 N 
ATOM      2  C   UNL     1      -0.098   3.437  -1.443  0.00  0.00    -0.060 C 
ATOM      3  C   UNL     1      -0.471   3.901  -2.856  0.00  0.00    +0.091 C 
ATOM      4  N   UNL     1      -1.904   3.643  -3.069  0.00  0.00    -0.180 NA
ATOM      5  C   UNL     1      -2.418   2.296  -2.779  0.00  0.00    +0.091 C 
ATOM      6  C   UNL     1      -1.968   1.895  -1.370  0.00  0.00    -0.060 C 
ATOM      7  H   UNL     1      -0.058   1.451  -2.078  0.00  0.00    -0.081 HD
ENDROOT
BRANCH   4   8
ATOM      8  S   UNL     1      -2.910   4.837  -3.621  0.00  0.00    +0.063 S 
ATOM      9  O   UNL     1      -2.091   5.770  -4.313  0.00  0.00    -0.153 OA
ATOM     10  O   UNL     1      -4.012   4.186  -4.238  0.00  0.00    -0.153 OA
BRANCH   8  11
ATOM     11  C   UNL     1      -3.547   5.676  -2.208  0.00  0.00    +0.133 A 
ATOM     12  C   UNL     1      -3.231   6.975  -1.994  0.00  0.00    +0.031 A 
ATOM     13  C   UNL     1      -3.718   7.671  -0.887  0.00  0.00    +0.004 A 
ATOM     14  C   UNL     1      -4.527   7.078   0.023  0.00  0.00    +0.031 A 
ATOM     15  C   UNL     1      -4.899   5.717  -0.137  0.00  0.00    +0.102 A 
ATOM     16  C   UNL     1      -4.395   4.991  -1.299  0.00  0.00    +0.126 A 
ATOM     17  N   UNL     1      -4.826   3.732  -1.328  0.00  0.00    -0.189 NA
ATOM     18  S   UNL     1      -5.732   3.550  -0.062  0.00  0.00    +0.117 S 
ATOM     19  N   UNL     1      -5.673   4.955   0.631  0.00  0.00    -0.191 NA
ENDBRANCH   8  11
ENDBRANCH   4   8
BRANCH   1  21
ATOM     20  C   UNL     1      -0.880   2.039   1.155  0.00  0.00    -0.004 C 
ATOM     21  C   UNL     1      -0.018   1.503   0.010  0.00  0.00    +0.016 C 
BRANCH  21  22
ATOM     22  C   UNL     1      -0.095  -0.002  -0.014  0.00  0.00    +0.199 C 
ATOM     23  O   UNL     1      -0.752  -0.562  -0.865  0.00  0.00    -0.278 OA
ATOM     24  N   UNL     1       0.566  -0.725   0.912  0.00  0.00    -0.316 N 
ATOM     25  H   UNL     1       1.162  -0.217   1.684  0.00  0.00    +0.149 HD
BRANCH  24  26
ATOM     26  C   UNL     1       0.491  -2.188   0.888  0.00  0.00    +0.109 C 
BRANCH  26  27
ATOM     27  C   UNL     1       1.325  -2.760   2.037  0.00  0.00    +0.056 C 
BRANCH  27  28
ATOM     28  C   UNL     1       1.248  -4.265   2.013  0.00  0.00    -0.021 A 
ATOM     29  C   UNL     1       0.406  -5.033   2.722  0.00  0.00    +0.087 A 
ATOM     30  N   UNL     1       0.627  -6.353   2.438  0.00  0.00    -0.360 N 
ATOM     31  H   UNL     1       0.020  -7.130   2.927  0.00  0.00    +0.165 HD
ATOM     32  C   UNL     1       1.649  -6.470   1.523  0.00  0.00    +0.047 A 
ATOM     33  C   UNL     1       2.083  -5.167   1.216  0.00  0.00    +0.003 A 
ATOM     34  C   UNL     1       3.121  -4.976   0.303  0.00  0.00    +0.010 A 
ATOM     35  C   UNL     1       3.712  -6.057  -0.289  0.00  0.00    +0.001 A 
ATOM     36  C   UNL     1       3.288  -7.344   0.011  0.00  0.00    +0.002 A 
ATOM     37  C   UNL     1       2.264  -7.556   0.909  0.00  0.00    +0.026 A 
ENDBRANCH  27  28
ENDBRANCH  26  27
ENDBRANCH  24  26
ENDBRANCH  21  22
ENDBRANCH   1  21
TORSDOF 7
