REMARK  Name = ZINC40334482
REMARK  5 active torsions:
REMARK  status: ('A' for Active; 'I' for Inactive)
REMARK    1  A    between atoms: C_1  and  C_2
REMARK    2  A    between atoms: C_6  and  C_21
REMARK    3  A    between atoms: N_9  and  S_10
REMARK    4  A    between atoms: S_10  and  C_13
REMARK    5  A    between atoms: C_18  and  N_19
REMARK                            x       y       z     vdW  Elec       q    Type
REMARK                         _______ _______ _______ _____ _____    ______ ____
ROOT
ATOM      1  S   UNL     1       1.410   0.712   2.310  0.00  0.00    +0.063 S 
ATOM      2  O   UNL     1       2.830   0.751   2.352  0.00  0.00    -0.153 OA
ATOM      3  O   UNL     1       0.623   1.870   2.070  0.00  0.00    -0.153 OA
ENDROOT
BRANCH   1  10
ATOM      4  C   UNL     1      -0.275   1.459   0.162  0.00  0.00    +0.026 C 
ATOM      5  C   UNL     1       0.060  -0.031   0.073  0.00  0.00    +0.077 C 
ATOM      6  C   UNL     1       0.710  -0.332  -1.281  0.00  0.00    +0.021 C 
ATOM      7  C   UNL     1       1.168  -1.792  -1.309  0.00  0.00    +0.015 C 
ATOM      8  C   UNL     1       2.209  -2.023  -0.212  0.00  0.00    +0.090 C 
ATOM      9  C   UNL     1       1.576  -1.742   1.155  0.00  0.00    +0.122 C 
ATOM     10  N   UNL     1       1.001  -0.389   1.143  0.00  0.00    -0.173 NA
BRANCH   8  11
ATOM     11  C   UNL     1       3.379  -1.098  -0.425  0.00  0.00    +0.215 C 
ATOM     12  O   UNL     1       3.680  -0.293   0.431  0.00  0.00    -0.276 OA
ATOM     13  N   UNL     1       4.091  -1.163  -1.568  0.00  0.00    -0.329 N 
ATOM     14  H   UNL     1       3.850  -1.807  -2.253  0.00  0.00    +0.145 HD
ATOM     15  H   UNL     1       4.844  -0.568  -1.705  0.00  0.00    +0.145 HD
ENDBRANCH   8  11
ENDBRANCH   1  10
BRANCH   1  16
ATOM     16  C   UNL     1       0.879   0.054   3.856  0.00  0.00    +0.127 A 
ATOM     17  C   UNL     1       1.809  -0.282   4.821  0.00  0.00    +0.050 A 
ATOM     18  C   UNL     1       1.393  -0.798   6.035  0.00  0.00    +0.043 A 
ATOM     19  C   UNL     1       0.044  -0.980   6.287  0.00  0.00    +0.022 A 
ATOM     20  C   UNL     1      -0.890  -0.647   5.326  0.00  0.00    +0.026 A 
ATOM     21  C   UNL     1      -0.475  -0.123   4.108  0.00  0.00    +0.051 A 
ATOM     22 CL   UNL     1       2.564  -1.219   7.245  0.00  0.00    -0.083 Cl
BRANCH  21  23
ATOM     23  N   UNL     1      -1.419   0.221   3.136  0.00  0.00    -0.356 N 
ATOM     24  H   UNL     1      -1.129   0.605   2.293  0.00  0.00    +0.142 HD
ATOM     25  H   UNL     1      -2.363   0.076   3.304  0.00  0.00    +0.142 HD
ENDBRANCH  21  23
ENDBRANCH   1  16
TORSDOF 4
