REMARK  Name = ZINC62090360
REMARK  7 active torsions:
REMARK  status: ('A' for Active; 'I' for Inactive)
REMARK    1  A    between atoms: C_1  and  C_2
REMARK    2  A    between atoms: C_2  and  C_3
REMARK    3  A    between atoms: C_2  and  C_4
REMARK    4  A    between atoms: C_7  and  S_10
REMARK    5  A    between atoms: S_10  and  N_13
REMARK    6  A    between atoms: N_13  and  C_14
REMARK    7  A    between atoms: N_23  and  C_24
REMARK                            x       y       z     vdW  Elec       q    Type
REMARK                         _______ _______ _______ _____ _____    ______ ____
ROOT
ATOM      1  N   UNL     1      -6.495  -0.960  -0.826  0.00  0.00    -0.216 N 
ATOM      2  H   UNL     1      -6.702  -0.182  -0.284  0.00  0.00    +0.174 HD
ENDROOT
BRANCH   1   3
ATOM      3  C   UNL     1      -6.257  -0.815  -2.197  0.00  0.00    +0.052 A 
ATOM      4  C   UNL     1      -4.960  -0.900  -2.688  0.00  0.00    +0.026 A 
ATOM      5  C   UNL     1      -4.724  -0.755  -4.042  0.00  0.00    +0.028 A 
ATOM      6  C   UNL     1      -5.780  -0.527  -4.909  0.00  0.00    +0.072 A 
ATOM      7  C   UNL     1      -7.082  -0.444  -4.423  0.00  0.00    +0.143 A 
ATOM      8  C   UNL     1      -7.317  -0.593  -3.065  0.00  0.00    +0.072 A 
ATOM      9  O   UNL     1      -8.127  -0.229  -5.266  0.00  0.00    -0.488 OA
ATOM     10  C   UNL     1      -7.844   0.340  -6.546  0.00  0.00    +0.248 C 
ATOM     11  C   UNL     1      -6.697  -0.446  -7.196  0.00  0.00    +0.146 C 
ATOM     12  N   UNL     1      -5.539  -0.376  -6.288  0.00  0.00    -0.327 N 
ATOM     13  C   UNL     1      -4.185  -0.156  -6.801  0.00  0.00    +0.129 C 
ENDBRANCH   1   3
BRANCH   1  14
ATOM     14  S   UNL     1      -6.425  -2.460  -0.127  0.00  0.00    +0.072 S 
ATOM     15  O   UNL     1      -6.772  -2.288   1.240  0.00  0.00    -0.150 OA
ATOM     16  O   UNL     1      -5.192  -3.039  -0.533  0.00  0.00    -0.150 OA
BRANCH  14  20
ATOM     17  C   UNL     1      -9.705  -4.963  -1.989  0.00  0.00    -0.045 A 
ATOM     18  C   UNL     1      -8.418  -5.027  -2.489  0.00  0.00    +0.006 A 
ATOM     19  C   UNL     1      -7.416  -4.263  -1.921  0.00  0.00    +0.029 A 
ATOM     20  C   UNL     1      -7.702  -3.433  -0.852  0.00  0.00    +0.109 A 
ATOM     21  C   UNL     1      -8.989  -3.369  -0.352  0.00  0.00    +0.029 A 
ATOM     22  C   UNL     1      -9.991  -4.130  -0.923  0.00  0.00    +0.006 A 
BRANCH  17  24
ATOM     23  C   UNL     1     -10.949  -5.421  -4.084  0.00  0.00    +0.012 C 
ATOM     24  C   UNL     1     -10.797  -5.796  -2.609  0.00  0.00    +0.013 C 
ATOM     25  C   UNL     1     -10.434  -7.278  -2.494  0.00  0.00    +0.012 C 
ENDBRANCH  17  24
ENDBRANCH  14  20
ENDBRANCH   1  14
TORSDOF 4
