REMARK  Name = ZINC37730327
REMARK  5 active torsions:
REMARK  status: ('A' for Active; 'I' for Inactive)
REMARK    1  A    between atoms: C_1  and  C_2
REMARK    2  A    between atoms: C_3  and  S_8
REMARK    3  A    between atoms: S_8  and  N_11
REMARK    4  A    between atoms: N_11  and  C_12
REMARK    5  A    between atoms: C_15  and  N_19
REMARK                            x       y       z     vdW  Elec       q    Type
REMARK                         _______ _______ _______ _____ _____    ______ ____
ROOT
ATOM      1  N   UNL     1      -1.454   0.520  -3.020  0.00  0.00    -0.096 NA
ENDROOT
BRANCH   1   2
ATOM      2  C   UNL     1      -1.707   1.157  -4.242  0.00  0.00    +0.102 A 
ATOM      3  C   UNL     1      -1.801   0.409  -5.408  0.00  0.00    +0.045 A 
ATOM      4  C   UNL     1      -2.050   1.038  -6.613  0.00  0.00    +0.040 A 
ATOM      5  C   UNL     1      -2.207   2.417  -6.658  0.00  0.00    +0.027 A 
ATOM      6  C   UNL     1      -2.113   3.165  -5.492  0.00  0.00    +0.040 A 
ATOM      7  C   UNL     1      -1.870   2.536  -4.286  0.00  0.00    +0.045 A 
ATOM      8 BR   UNL     1      -1.750   3.553  -2.696  0.00  0.00    -0.048 Br
ATOM      9 BR   UNL     1      -1.587  -1.468  -5.348  0.00  0.00    -0.048 Br
BRANCH   5  10
ATOM     10  N   UNL     1      -2.459   3.053  -7.879  0.00  0.00    -0.358 N 
ATOM     11  H   UNL     1      -2.524   2.531  -8.694  0.00  0.00    +0.142 HD
ATOM     12  H   UNL     1      -2.568   4.017  -7.911  0.00  0.00    +0.142 HD
ENDBRANCH   5  10
ENDBRANCH   1   2
BRANCH   1  13
ATOM     13  S   UNL     1       0.039  -0.128  -2.717  0.00  0.00    +0.095 S 
ATOM     14  O   UNL     1       0.968   0.946  -2.777  0.00  0.00    -0.148 OA
ATOM     15  O   UNL     1       0.155  -1.282  -3.539  0.00  0.00    -0.148 OA
BRANCH  13  18
ATOM     16  C   UNL     1      -0.229   1.577   0.077  0.00  0.00    +0.067 C 
ATOM     17  C   UNL     1      -0.083   0.078   0.054  0.00  0.00    +0.060 A 
ATOM     18  C   UNL     1       0.033  -0.696  -1.050  0.00  0.00    +0.150 A 
ATOM     19  C   UNL     1       0.147  -2.026  -0.633  0.00  0.00    +0.163 A 
ATOM     20  N   UNL     1       0.101  -2.050   0.675  0.00  0.00    -0.180 NA
ATOM     21  N   UNL     1      -0.039  -0.734   1.132  0.00  0.00    -0.280 N 
ATOM     22  H   UNL     1      -0.096  -0.455   2.059  0.00  0.00    +0.189 HD
ENDBRANCH  13  18
ENDBRANCH   1  13
TORSDOF 4
