REMARK  Name = ZINC05008362
REMARK  4 active torsions:
REMARK  status: ('A' for Active; 'I' for Inactive)
REMARK    1  A    between atoms: C_3  and  C_10
REMARK    2  A    between atoms: C_5  and  N_7
REMARK    3  A    between atoms: N_12  and  C_17
REMARK    4  A    between atoms: C_17  and  C_18
REMARK                            x       y       z     vdW  Elec       q    Type
REMARK                         _______ _______ _______ _____ _____    ______ ____
ROOT
ATOM      1  C   UNL     1      -0.775   1.636   1.247  0.00  0.00    +0.165 C 
ATOM      2  N   UNL     1      -2.078   2.300   1.052  0.00  0.00    -0.284 N 
ATOM      3  C   UNL     1      -2.372   2.815  -0.136  0.00  0.00    +0.227 C 
ATOM      4  O   UNL     1      -3.434   3.364  -0.339  0.00  0.00    -0.275 OA
ATOM      5  C   UNL     1      -1.327   2.693  -1.233  0.00  0.00    +0.167 C 
ATOM      6  S   UNL     1       0.152   2.216  -0.238  0.00  0.00    -0.124 S 
ENDROOT
BRANCH   1   9
ATOM      7  C   UNL     1       0.575   3.890   3.958  0.00  0.00    +0.003 A 
ATOM      8  C   UNL     1      -0.029   3.458   2.792  0.00  0.00    +0.006 A 
ATOM      9  C   UNL     1      -0.113   2.107   2.516  0.00  0.00    -0.015 A 
ATOM     10  C   UNL     1       0.416   1.186   3.402  0.00  0.00    +0.039 A 
ATOM     11  C   UNL     1       1.023   1.618   4.566  0.00  0.00    +0.127 A 
ATOM     12  C   UNL     1       1.103   2.970   4.845  0.00  0.00    +0.033 A 
BRANCH  11  13
ATOM     13  N   UNL     1       1.589   0.632   5.515  0.00  0.00    +0.056 N 
ATOM     14  O   UNL     1       1.519  -0.559   5.270  0.00  0.00    -0.126 OA
ATOM     15  O   UNL     1       2.124   1.012   6.541  0.00  0.00    -0.126 OA
ENDBRANCH  11  13
ENDBRANCH   1   9
BRANCH   2  16
ATOM     16  C   UNL     1      -3.037   2.389   2.155  0.00  0.00    +0.116 C 
BRANCH  16  17
ATOM     17  C   UNL     1      -3.904   1.129   2.180  0.00  0.00    -0.013 C 
ATOM     18  C   UNL     1      -4.559   0.933   0.812  0.00  0.00    +0.012 C 
ATOM     19  C   UNL     1      -5.427  -0.327   0.837  0.00  0.00    -0.010 C 
ATOM     20  C   UNL     1      -6.512  -0.178   1.905  0.00  0.00    +0.007 C 
ATOM     21  C   UNL     1      -5.856   0.017   3.274  0.00  0.00    -0.010 C 
ATOM     22  C   UNL     1      -4.989   1.278   3.249  0.00  0.00    +0.012 C 
ATOM     23  C   UNL     1      -4.983  -1.196   3.599  0.00  0.00    +0.007 C 
ATOM     24  C   UNL     1      -3.898  -1.345   2.531  0.00  0.00    -0.010 C 
ATOM     25  C   UNL     1      -4.553  -1.540   1.162  0.00  0.00    +0.007 C 
ATOM     26  C   UNL     1      -3.031  -0.085   2.506  0.00  0.00    +0.012 C 
ENDBRANCH  16  17
ENDBRANCH   2  16
TORSDOF 4
