REMARK  Name = ZINC10001156
REMARK  3 active torsions:
REMARK  status: ('A' for Active; 'I' for Inactive)
REMARK    1  A    between atoms: C_3  and  C_7
REMARK    2  A    between atoms: C_14  and  C_27
REMARK    3  A    between atoms: C_16  and  C_20
REMARK                            x       y       z     vdW  Elec       q    Type
REMARK                         _______ _______ _______ _____ _____    ______ ____
ROOT
ATOM      1  C   UNL     1       3.680   2.028  -0.023  0.00  0.00    +0.252 C 
ATOM      2  O   UNL     1       3.726   3.242  -0.017  0.00  0.00    -0.270 OA
ATOM      3  N   UNL     1       4.820   1.310  -0.037  0.00  0.00    -0.253 N 
ATOM      4  C   UNL     1       6.035   1.950  -0.046  0.00  0.00    +0.207 C 
ATOM      5  N   UNL     1       6.209   3.254  -0.035  0.00  0.00    -0.184 NA
ATOM      6  C   UNL     1       7.522   3.550  -0.048  0.00  0.00    +0.216 C 
ATOM      7  N   UNL     1       8.163   4.698  -0.044  0.00  0.00    -0.326 N 
ATOM      8  C   UNL     1       9.513   4.822  -0.058  0.00  0.00    +0.047 C 
ATOM      9  C   UNL     1      10.328   3.751  -0.078  0.00  0.00    +0.028 C 
ATOM     10  C   UNL     1       9.678   2.379  -0.084  0.00  0.00    +0.152 C 
ATOM     11  N   UNL     1       8.212   2.354  -0.067  0.00  0.00    -0.209 N 
ATOM     12  N   UNL     1       7.256   1.334  -0.061  0.00  0.00    -0.232 N 
ATOM     13  H   UNL     1       4.783   0.341  -0.042  0.00  0.00    +0.158 HD
ATOM     14  H   UNL     1       7.634   5.511  -0.030  0.00  0.00    +0.169 HD
ATOM     15  H   UNL     1       7.425   0.379  -0.068  0.00  0.00    +0.173 HD
ENDROOT
BRANCH  10  16
ATOM     16  C   UNL     1      10.141   1.647  -1.317  0.00  0.00    -0.021 A 
ATOM     17  C   UNL     1       9.556   1.915  -2.540  0.00  0.00    +0.007 A 
ATOM     18  C   UNL     1       9.980   1.244  -3.672  0.00  0.00    +0.020 A 
ATOM     19  C   UNL     1      10.990   0.303  -3.579  0.00  0.00    +0.041 A 
ATOM     20  C   UNL     1      11.575   0.034  -2.355  0.00  0.00    +0.020 A 
ATOM     21  C   UNL     1      11.154   0.710  -1.225  0.00  0.00    +0.007 A 
ATOM     22 CL   UNL     1      11.523  -0.541  -5.000  0.00  0.00    -0.084 Cl
ENDBRANCH  10  16
BRANCH   8  23
ATOM     23  C   UNL     1      10.111   6.181  -0.052  0.00  0.00    -0.002 A 
ATOM     24  C   UNL     1      11.496   6.335  -0.073  0.00  0.00    +0.011 A 
ATOM     25  C   UNL     1      12.047   7.600  -0.068  0.00  0.00    +0.020 A 
ATOM     26  C   UNL     1      11.226   8.715  -0.043  0.00  0.00    +0.041 A 
ATOM     27  C   UNL     1       9.850   8.567  -0.022  0.00  0.00    +0.020 A 
ATOM     28  C   UNL     1       9.289   7.306  -0.033  0.00  0.00    +0.011 A 
ATOM     29 CL   UNL     1      11.925  10.304  -0.036  0.00  0.00    -0.084 Cl
ENDBRANCH   8  23
BRANCH   1  32
ATOM     30  C   UNL     1      -0.017   1.379   0.010  0.00  0.00    +0.020 A 
ATOM     31  C   UNL     1       1.181   2.073   0.002  0.00  0.00    +0.016 A 
ATOM     32  C   UNL     1       2.373   1.339  -0.013  0.00  0.00    +0.055 A 
ATOM     33  C   UNL     1       2.306  -0.056  -0.020  0.00  0.00    +0.123 A 
ATOM     34  N   UNL     1       1.141  -0.670  -0.012  0.00  0.00    -0.263 NA
ATOM     35  C   UNL     1       0.002  -0.004   0.002  0.00  0.00    +0.111 A 
ENDBRANCH   1  32
TORSDOF 3
