REMARK  Name = ZINC16012613
REMARK  6 active torsions:
REMARK  status: ('A' for Active; 'I' for Inactive)
REMARK    1  A    between atoms: C_1  and  C_2
REMARK    2  A    between atoms: C_16  and  C_19
REMARK    3  A    between atoms: C_19  and  C_20
REMARK    4  A    between atoms: C_20  and  S_21
REMARK    5  A    between atoms: S_21  and  C_22
REMARK    6  A    between atoms: N_25  and  C_28
REMARK                            x       y       z     vdW  Elec       q    Type
REMARK                         _______ _______ _______ _____ _____    ______ ____
ROOT
ATOM      1  C   UNL     1       0.133   1.578   0.109  0.00  0.00    +0.047 C 
ATOM      2  C   UNL     1       0.117   0.072   0.073  0.00  0.00    -0.011 A 
ATOM      3  C   UNL     1       0.110  -0.588  -1.140  0.00  0.00    +0.046 A 
ATOM      4  C   UNL     1       0.096  -1.971  -1.183  0.00  0.00    +0.021 A 
ATOM      5  C   UNL     1       0.088  -2.696  -0.004  0.00  0.00    +0.009 A 
ATOM      6  C   UNL     1       0.096  -2.042   1.208  0.00  0.00    +0.004 A 
ATOM      7  C   UNL     1       0.114  -0.651   1.263  0.00  0.00    +0.043 A 
ATOM      8  N   UNL     1       0.123  -0.221   2.592  0.00  0.00    -0.283 N 
ATOM      9  C   UNL     1       0.117  -1.251   3.459  0.00  0.00    +0.243 C 
ATOM     10  O   UNL     1       0.120  -1.178   4.670  0.00  0.00    -0.273 OA
ATOM     11  C   UNL     1       0.091  -2.509   2.635  0.00  0.00    +0.136 C 
ATOM     12  C   UNL     1       1.308  -3.390   2.944  0.00  0.00    +0.122 C 
ATOM     13  C   UNL     1       0.774  -4.846   2.848  0.00  0.00    +0.107 C 
ATOM     14  C   UNL     1      -0.718  -4.696   2.481  0.00  0.00    +0.068 C 
ATOM     15  N   UNL     1      -1.093  -3.336   2.932  0.00  0.00    -0.295 NA
ATOM     16  C   UNL     1       1.533  -5.419   1.673  0.00  0.00    +0.227 C 
ATOM     17  O   UNL     1       1.421  -6.549   1.250  0.00  0.00    -0.275 OA
ATOM     18  N   UNL     1       2.348  -4.484   1.172  0.00  0.00    -0.238 N 
ATOM     19  C   UNL     1       2.309  -3.295   1.815  0.00  0.00    +0.228 C 
ATOM     20  O   UNL     1       2.961  -2.311   1.538  0.00  0.00    -0.275 OA
ATOM     21 CL   UNL     1       0.120   0.322  -2.619  0.00  0.00    -0.083 Cl
ATOM     22  H   UNL     1       0.134   0.712   2.858  0.00  0.00    +0.155 HD
ATOM     23  H   UNL     1      -1.296  -3.337   3.920  0.00  0.00    +0.123 HD
ENDROOT
BRANCH  18  24
ATOM     24  C   UNL     1       3.221  -4.728   0.021  0.00  0.00    +0.084 C 
ATOM     25  C   UNL     1       4.265  -5.809   0.369  0.00  0.00    +0.023 C 
ATOM     26  C   UNL     1       3.644  -7.123  -0.167  0.00  0.00    +0.002 C 
ATOM     27  C   UNL     1       2.970  -6.670  -1.486  0.00  0.00    +0.002 C 
ATOM     28  C   UNL     1       2.398  -5.275  -1.159  0.00  0.00    +0.023 C 
ENDBRANCH  18  24
BRANCH  14  29
ATOM     29  C   UNL     1      -1.552  -5.762   3.195  0.00  0.00    +0.030 C 
BRANCH  29  30
ATOM     30  C   UNL     1      -3.004  -5.674   2.723  0.00  0.00    +0.070 C 
BRANCH  30  31
ATOM     31  S   UNL     1      -3.993  -6.938   3.569  0.00  0.00    -0.164 S 
ATOM     32  C   UNL     1      -5.665  -6.704   2.907  0.00  0.00    +0.084 C 
ENDBRANCH  30  31
ENDBRANCH  29  30
ENDBRANCH  14  29
TORSDOF 4
