REMARK  Name = ZINC02707413
REMARK  6 active torsions:
REMARK  status: ('A' for Active; 'I' for Inactive)
REMARK    1  A    between atoms: C_1  and  O_2
REMARK    2  A    between atoms: O_2  and  C_3
REMARK    3  A    between atoms: C_6  and  O_33
REMARK    4  A    between atoms: C_7  and  C_9
REMARK    5  A    between atoms: C_20  and  C_22
REMARK    6  A    between atoms: O_33  and  C_34
REMARK                            x       y       z     vdW  Elec       q    Type
REMARK                         _______ _______ _______ _____ _____    ______ ____
ROOT
ATOM      1  C   UNL     1       1.203   7.451  -0.312  0.00  0.00    +0.176 C 
ATOM      2  C   UNL     1       1.084   5.947  -0.307  0.00  0.00    +0.026 C 
ATOM      3  C   UNL     1      -0.047   5.322   0.028  0.00  0.00    +0.050 C 
ATOM      4  C   UNL     1      -0.064   3.840   0.021  0.00  0.00    +0.038 A 
ATOM      5  C   UNL     1      -1.256   3.127   0.029  0.00  0.00    +0.013 A 
ATOM      6  C   UNL     1      -1.224   1.746   0.017  0.00  0.00    +0.001 A 
ATOM      7  C   UNL     1      -0.013   1.076   0.008  0.00  0.00    +0.004 A 
ATOM      8  C   UNL     1       1.179   1.778   0.000  0.00  0.00    +0.046 A 
ATOM      9  C   UNL     1       1.161   3.160   0.006  0.00  0.00    +0.131 A 
ATOM     10  O   UNL     1       2.308   3.886  -0.003  0.00  0.00    -0.479 OA
ATOM     11  C   UNL     1       2.288   5.126  -0.709  0.00  0.00    +0.241 C 
ATOM     12  N   UNL     1      -1.210   6.020   0.373  0.00  0.00    -0.283 N 
ATOM     13  C   UNL     1      -1.244   7.377   0.096  0.00  0.00    +0.219 A 
ATOM     14  N   UNL     1      -0.119   8.060  -0.233  0.00  0.00    -0.221 N 
ATOM     15  N   UNL     1      -0.510   9.380  -0.455  0.00  0.00    -0.156 NA
ATOM     16  C   UNL     1      -1.803   9.432  -0.251  0.00  0.00    +0.247 A 
ATOM     17  N   UNL     1      -2.244   8.215   0.085  0.00  0.00    -0.201 NA
ATOM     18  H   UNL     1      -1.962   5.571   0.791  0.00  0.00    +0.155 HD
ENDROOT
BRANCH   1  23
ATOM     19  C   UNL     1       2.359   8.009   3.242  0.00  0.00    +0.121 A 
ATOM     20  C   UNL     1       3.545   8.701   3.043  0.00  0.00    +0.049 A 
ATOM     21  C   UNL     1       3.970   8.988   1.761  0.00  0.00    +0.049 A 
ATOM     22  C   UNL     1       3.212   8.583   0.672  0.00  0.00    +0.126 A 
ATOM     23  C   UNL     1       2.027   7.891   0.871  0.00  0.00    +0.026 A 
ATOM     24  C   UNL     1       1.598   7.609   2.154  0.00  0.00    +0.055 A 
BRANCH  19  26
ATOM     25  C   UNL     1       2.770   8.174   5.579  0.00  0.00    +0.277 C 
ATOM     26  O   UNL     1       1.940   7.727   4.505  0.00  0.00    -0.495 OA
ENDBRANCH  19  26
BRANCH  22  27
ATOM     27  O   UNL     1       3.631   8.865  -0.591  0.00  0.00    -0.495 OA
ATOM     28  C   UNL     1       4.861   9.581  -0.721  0.00  0.00    +0.277 C 
ENDBRANCH  22  27
ENDBRANCH   1  23
BRANCH  11  29
ATOM     29  C   UNL     1       2.232   4.854  -2.190  0.00  0.00    +0.034 A 
ATOM     30  C   UNL     1       2.890   5.476  -3.198  0.00  0.00    +0.015 A 
ATOM     31  C   UNL     1       2.683   5.052  -4.497  0.00  0.00    +0.008 A 
ATOM     32  C   UNL     1       1.826   4.026  -4.724  0.00  0.00    +0.045 A 
ATOM     33  S   UNL     1       1.287   3.622  -3.071  0.00  0.00    -0.098 S 
ENDBRANCH  11  29
TORSDOF 4
