REMARK  Name = ZINC30986905
REMARK  6 active torsions:
REMARK  status: ('A' for Active; 'I' for Inactive)
REMARK    1  A    between atoms: C_6  and  C_7
REMARK    2  A    between atoms: C_9  and  C_12
REMARK    3  A    between atoms: C_12  and  N_13
REMARK    4  A    between atoms: C_16  and  C_19
REMARK    5  A    between atoms: N_21  and  C_22
REMARK    6  A    between atoms: C_25  and  C_28
REMARK                            x       y       z     vdW  Elec       q    Type
REMARK                         _______ _______ _______ _____ _____    ______ ____
ROOT
ATOM      1  N   UNL     1      -1.882  -4.773  -0.845  0.00  0.00    +0.386 N 
ATOM      2  C   UNL     1      -2.520  -4.259   0.374  0.00  0.00    -0.077 C 
ATOM      3  C   UNL     1      -2.553  -2.730   0.329  0.00  0.00    -0.006 C 
ATOM      4  C   UNL     1      -1.121  -2.197   0.216  0.00  0.00    +0.072 C 
ATOM      5  C   UNL     1      -0.463  -2.785  -1.035  0.00  0.00    -0.006 C 
ATOM      6  C   UNL     1      -0.492  -4.313  -0.950  0.00  0.00    -0.077 C 
ATOM      7  H   UNL     1      -2.434  -4.371  -1.707  0.00  0.00    -0.081 HD
ENDROOT
BRANCH   4   8
ATOM      8  C   UNL     1      -1.150  -0.694   0.111  0.00  0.00    +0.220 C 
ATOM      9  O   UNL     1      -2.211  -0.106   0.124  0.00  0.00    -0.275 OA
ATOM     10  N   UNL     1       0.002  -0.004   0.002  0.00  0.00    -0.285 N 
ATOM     11  H   UNL     1       0.957  -0.541  -0.098  0.00  0.00    +0.155 HD
BRANCH  10  12
ATOM     12  C   UNL     1      -0.016   1.395   0.015  0.00  0.00    +0.033 A 
ATOM     13  C   UNL     1       0.912   2.110  -0.729  0.00  0.00    +0.023 A 
ATOM     14  C   UNL     1       0.889   3.491  -0.717  0.00  0.00    +0.006 A 
ATOM     15  C   UNL     1      -0.052   4.162   0.043  0.00  0.00    -0.041 A 
ATOM     16  C   UNL     1      -0.975   3.452   0.789  0.00  0.00    +0.006 A 
ATOM     17  C   UNL     1      -0.960   2.071   0.778  0.00  0.00    +0.023 A 
BRANCH  15  18
ATOM     18  C   UNL     1      -0.071   5.668   0.058  0.00  0.00    -0.003 C 
ATOM     19  C   UNL     1       0.146   6.167   1.488  0.00  0.00    +0.015 C 
ATOM     20  C   UNL     1       0.126   7.697   1.503  0.00  0.00    -0.010 C 
ATOM     21  C   UNL     1       1.242   8.230   0.601  0.00  0.00    +0.007 C 
ATOM     22  C   UNL     1       1.024   7.731  -0.829  0.00  0.00    -0.010 C 
ATOM     23  C   UNL     1       1.044   6.202  -0.844  0.00  0.00    +0.015 C 
ATOM     24  C   UNL     1      -0.329   8.229  -1.342  0.00  0.00    +0.007 C 
ATOM     25  C   UNL     1      -1.444   7.696  -0.441  0.00  0.00    -0.010 C 
ATOM     26  C   UNL     1      -1.226   8.195   0.989  0.00  0.00    +0.007 C 
ATOM     27  C   UNL     1      -1.424   6.166  -0.456  0.00  0.00    +0.015 C 
ENDBRANCH  15  18
ENDBRANCH  10  12
ENDBRANCH   4   8
BRANCH   1  28
ATOM     28  C   UNL     1      -1.957  -6.239  -0.901  0.00  0.00    +0.022 C 
BRANCH  28  31
ATOM     29  C   UNL     1      -0.386  -7.390  -3.922  0.00  0.00    +0.202 A 
ATOM     30  N   UNL     1      -0.299  -7.022  -2.624  0.00  0.00    -0.193 NA
ATOM     31  C   UNL     1      -1.520  -6.713  -2.263  0.00  0.00    +0.211 A 
ATOM     32  O   UNL     1      -2.305  -6.903  -3.328  0.00  0.00    -0.340 OA
ATOM     33  N   UNL     1      -1.643  -7.285  -4.269  0.00  0.00    -0.056 NA
BRANCH  29  39
ATOM     34  C   UNL     1       2.030  -7.889  -4.282  0.00  0.00    +0.013 A 
ATOM     35  C   UNL     1       3.068  -8.304  -5.092  0.00  0.00    +0.021 A 
ATOM     36  C   UNL     1       2.824  -8.653  -6.409  0.00  0.00    +0.041 A 
ATOM     37  C   UNL     1       1.538  -8.591  -6.920  0.00  0.00    +0.021 A 
ATOM     38  C   UNL     1       0.493  -8.183  -6.117  0.00  0.00    +0.013 A 
ATOM     39  C   UNL     1       0.734  -7.831  -4.790  0.00  0.00    +0.023 A 
ATOM     40 CL   UNL     1       4.134  -9.168  -7.425  0.00  0.00    -0.084 Cl
ENDBRANCH  29  39
ENDBRANCH  28  31
ENDBRANCH   1  28
TORSDOF 6
