REMARK  Name = ZINC32061015
REMARK  8 active torsions:
REMARK  status: ('A' for Active; 'I' for Inactive)
REMARK    1  A    between atoms: C_1  and  C_2
REMARK    2  A    between atoms: C_6  and  N_8
REMARK    3  A    between atoms: N_8  and  S_9
REMARK    4  A    between atoms: S_9  and  C_12
REMARK    5  A    between atoms: C_14  and  N_19
REMARK    6  A    between atoms: C_17  and  C_18
REMARK    7  A    between atoms: C_20  and  C_22
REMARK    8  A    between atoms: C_22  and  C_23
REMARK                            x       y       z     vdW  Elec       q    Type
REMARK                         _______ _______ _______ _____ _____    ______ ____
ROOT
ATOM      1  C   UNL     1       2.460  -3.088   2.780  0.00  0.00    +0.113 A 
ATOM      2  C   UNL     1       3.317  -3.228   3.854  0.00  0.00    +0.052 A 
ATOM      3  C   UNL     1       4.667  -2.939   3.706  0.00  0.00    +0.035 A 
ATOM      4  C   UNL     1       5.151  -2.510   2.477  0.00  0.00    +0.023 A 
ATOM      5  C   UNL     1       4.289  -2.371   1.407  0.00  0.00    +0.007 A 
ATOM      6  C   UNL     1       2.946  -2.665   1.557  0.00  0.00    -0.024 A 
ATOM      7  C   UNL     1       2.009  -2.518   0.386  0.00  0.00    +0.046 C 
ENDROOT
BRANCH   3   8
ATOM      8  N   UNL     1       5.538  -3.081   4.792  0.00  0.00    -0.285 N 
ATOM      9  C   UNL     1       5.341  -4.066   5.690  0.00  0.00    +0.223 C 
ATOM     10  O   UNL     1       4.467  -4.887   5.508  0.00  0.00    -0.275 OA
ATOM     11  H   UNL     1       6.283  -2.469   4.898  0.00  0.00    +0.155 HD
BRANCH   9  12
ATOM     12  C   UNL     1       6.207  -4.149   6.920  0.00  0.00    +0.150 C 
BRANCH  12  13
ATOM     13  C   UNL     1       5.785  -5.331   7.754  0.00  0.00    +0.043 A 
ATOM     14  C   UNL     1       4.785  -5.338   8.662  0.00  0.00    +0.114 A 
ATOM     15  N   UNL     1       4.729  -6.598   9.192  0.00  0.00    -0.308 N 
ATOM     16  C   UNL     1       3.925  -7.168  10.136  0.00  0.00    +0.092 A 
ATOM     17  C   UNL     1       4.084  -8.462  10.484  0.00  0.00    +0.018 A 
ATOM     18  C   UNL     1       5.083  -9.241   9.877  0.00  0.00    +0.005 A 
ATOM     19  C   UNL     1       5.891  -8.686   8.935  0.00  0.00    +0.045 A 
ATOM     20  C   UNL     1       5.712  -7.333   8.582  0.00  0.00    +0.115 A 
ATOM     21  N   UNL     1       6.333  -6.548   7.713  0.00  0.00    -0.343 N 
ATOM     22  H   UNL     1       7.070  -6.814   7.141  0.00  0.00    +0.167 HD
ENDBRANCH  12  13
ENDBRANCH   9  12
ENDBRANCH   3   8
BRANCH   1  23
ATOM     23  S   UNL     1       0.747  -3.454   2.968  0.00  0.00    +0.073 S 
ATOM     24  O   UNL     1       0.034  -2.355   2.418  0.00  0.00    -0.150 OA
ATOM     25  O   UNL     1       0.568  -3.884   4.311  0.00  0.00    -0.150 OA
BRANCH  23  26
ATOM     26  N   UNL     1       0.417  -4.761   2.005  0.00  0.00    -0.216 N 
ATOM     27  H   UNL     1      -0.197  -4.671   1.259  0.00  0.00    +0.174 HD
BRANCH  26  33
ATOM     28  C   UNL     1       2.765  -8.754   0.364  0.00  0.00    +0.044 C 
ATOM     29  C   UNL     1       2.170  -7.949   1.490  0.00  0.00    -0.049 A 
ATOM     30  C   UNL     1       2.223  -8.430   2.786  0.00  0.00    +0.003 A 
ATOM     31  C   UNL     1       1.677  -7.696   3.822  0.00  0.00    +0.002 A 
ATOM     32  C   UNL     1       1.078  -6.478   3.567  0.00  0.00    +0.024 A 
ATOM     33  C   UNL     1       1.023  -5.992   2.267  0.00  0.00    +0.048 A 
ATOM     34  C   UNL     1       1.577  -6.730   1.229  0.00  0.00    +0.027 A 
ENDBRANCH  26  33
ENDBRANCH  23  26
ENDBRANCH   1  23
TORSDOF 6
