REMARK  Name = ZINC09689760
REMARK  8 active torsions:
REMARK  status: ('A' for Active; 'I' for Inactive)
REMARK    1  A    between atoms: C_1  and  O_2
REMARK    2  A    between atoms: O_2  and  C_3
REMARK    3  A    between atoms: C_8  and  C_9
REMARK    4  A    between atoms: C_12  and  S_15
REMARK    5  A    between atoms: S_15  and  C_16
REMARK    6  A    between atoms: C_16  and  C_17
REMARK    7  A    between atoms: N_19  and  C_20
REMARK    8  A    between atoms: C_23  and  N_27
REMARK                            x       y       z     vdW  Elec       q    Type
REMARK                         _______ _______ _______ _____ _____    ______ ____
ROOT
ATOM      1  S   UNL     1      -0.848   1.690   1.497  0.00  0.00    -0.077 S 
ENDROOT
BRANCH   1   5
ATOM      2  C   UNL     1       1.078   0.406   4.645  0.00  0.00    +0.186 A 
ATOM      3  N   UNL     1       0.037   1.111   4.087  0.00  0.00    -0.201 NA
ATOM      4  H   UNL     1       1.725  -0.069   1.587  0.00  0.00    +0.191 HD
ATOM      5  C   UNL     1       0.193   0.992   2.735  0.00  0.00    +0.185 A 
ATOM      6  N   UNL     1       1.265   0.260   2.531  0.00  0.00    -0.253 N 
ATOM      7  N   UNL     1       1.790  -0.078   3.654  0.00  0.00    -0.151 NA
BRANCH   2  13
ATOM      8  C   UNL     1       2.440  -0.534   6.511  0.00  0.00    +0.131 A 
ATOM      9  C   UNL     1       2.685  -0.694   7.865  0.00  0.00    +0.048 A 
ATOM     10  C   UNL     1       1.844  -0.111   8.795  0.00  0.00    +0.023 A 
ATOM     11  C   UNL     1       0.755   0.639   8.380  0.00  0.00    +0.042 A 
ATOM     12  C   UNL     1       0.502   0.811   7.034  0.00  0.00    +0.035 A 
ATOM     13  C   UNL     1       1.344   0.227   6.088  0.00  0.00    +0.064 A 
ATOM     14 CL   UNL     1      -0.293   1.366   9.558  0.00  0.00    -0.084 Cl
BRANCH   8  16
ATOM     15  C   UNL     1       4.362  -1.873   6.103  0.00  0.00    +0.277 C 
ATOM     16  O   UNL     1       3.264  -1.111   5.598  0.00  0.00    -0.494 OA
ENDBRANCH   8  16
ENDBRANCH   2  13
ENDBRANCH   1   5
BRANCH   1  17
ATOM     17  C   UNL     1      -0.004   1.101   0.008  0.00  0.00    +0.173 C 
BRANCH  17  18
ATOM     18  C   UNL     1      -0.739   1.590  -1.213  0.00  0.00    +0.228 C 
ATOM     19  O   UNL     1      -1.735   2.270  -1.089  0.00  0.00    -0.275 OA
ATOM     20  N   UNL     1      -0.288   1.272  -2.443  0.00  0.00    -0.284 N 
ATOM     21  H   UNL     1       0.655   0.719  -2.557  0.00  0.00    +0.155 HD
BRANCH  20  22
ATOM     22  C   UNL     1      -1.022   1.647  -3.575  0.00  0.00    +0.048 A 
ATOM     23  C   UNL     1      -1.723   2.845  -3.585  0.00  0.00    +0.026 A 
ATOM     24  C   UNL     1      -2.445   3.212  -4.704  0.00  0.00    +0.034 A 
ATOM     25  C   UNL     1      -2.471   2.387  -5.813  0.00  0.00    +0.127 A 
ATOM     26  C   UNL     1      -1.775   1.192  -5.807  0.00  0.00    +0.049 A 
ATOM     27  C   UNL     1      -1.045   0.822  -4.693  0.00  0.00    +0.041 A 
ATOM     28 BR   UNL     1      -0.086  -0.808  -4.688  0.00  0.00    -0.048 Br
BRANCH  25  29
ATOM     29  N   UNL     1      -3.246   2.783  -7.010  0.00  0.00    +0.056 N 
ATOM     30  O   UNL     1      -3.860   3.836  -7.017  0.00  0.00    -0.126 OA
ATOM     31  O   UNL     1      -3.270   2.058  -7.988  0.00  0.00    -0.126 OA
ENDBRANCH  25  29
ENDBRANCH  20  22
ENDBRANCH  17  18
ENDBRANCH   1  17
TORSDOF 7
