REMARK  Name = ZINC41116269
REMARK  5 active torsions:
REMARK  status: ('A' for Active; 'I' for Inactive)
REMARK    1  A    between atoms: C_3  and  C_9
REMARK    2  A    between atoms: C_4  and  O_8
REMARK    3  A    between atoms: C_5  and  O_7
REMARK    4  A    between atoms: C_9  and  N_10
REMARK    5  A    between atoms: N_10  and  C_11
REMARK                            x       y       z     vdW  Elec       q    Type
REMARK                         _______ _______ _______ _____ _____    ______ ____
ROOT
ATOM      1  C   UNL     1       3.670   2.198  -0.023  0.00  0.00    +0.140 C 
ENDROOT
BRANCH   1   4
ATOM      2  C   UNL     1      -0.017   1.378   0.010  0.00  0.00    +0.004 A 
ATOM      3  C   UNL     1       1.169   2.089   0.002  0.00  0.00    +0.009 A 
ATOM      4  C   UNL     1       2.379   1.420  -0.013  0.00  0.00    +0.015 A 
ATOM      5  C   UNL     1       2.405   0.035  -0.021  0.00  0.00    +0.163 A 
ATOM      6  C   UNL     1       1.211  -0.680  -0.013  0.00  0.00    +0.159 A 
ATOM      7  C   UNL     1       0.002  -0.004   0.002  0.00  0.00    +0.049 A 
BRANCH   6   8
ATOM      8  O   UNL     1       1.232  -2.040  -0.021  0.00  0.00    -0.503 OA
ATOM      9  H   UNL     1       1.246  -2.438   0.860  0.00  0.00    +0.292 HD
ENDBRANCH   6   8
BRANCH   5  10
ATOM     10  O   UNL     1       3.594  -0.625  -0.037  0.00  0.00    -0.503 OA
ATOM     11  H   UNL     1       3.947  -0.820   0.842  0.00  0.00    +0.292 HD
ENDBRANCH   5  10
ENDBRANCH   1   4
BRANCH   1  12
ATOM     12  N   UNL     1       4.198   2.251  -1.388  0.00  0.00    -0.338 N 
ATOM     13  H   UNL     1       3.717   1.820  -2.111  0.00  0.00    +0.146 HD
BRANCH  12  14
ATOM     14  C   UNL     1       5.396   2.924  -1.648  0.00  0.00    +0.047 A 
ATOM     15  C   UNL     1       6.088   3.537  -0.613  0.00  0.00    +0.045 A 
ATOM     16  C   UNL     1       7.272   4.202  -0.873  0.00  0.00    +0.061 A 
ATOM     17  C   UNL     1       7.767   4.257  -2.165  0.00  0.00    +0.061 A 
ATOM     18  C   UNL     1       7.079   3.647  -3.199  0.00  0.00    +0.043 A 
ATOM     19  C   UNL     1       5.898   2.976  -2.943  0.00  0.00    +0.063 A 
ATOM     20 CL   UNL     1       5.039   2.204  -4.240  0.00  0.00    -0.082 Cl
ATOM     21 CL   UNL     1       9.254   5.092  -2.489  0.00  0.00    -0.082 Cl
ATOM     22 CL   UNL     1       8.139   4.968   0.421  0.00  0.00    -0.082 Cl
ENDBRANCH  12  14
ENDBRANCH   1  12
TORSDOF 5
