REMARK  Name = ZINC42807343
REMARK  7 active torsions:
REMARK  status: ('A' for Active; 'I' for Inactive)
REMARK    1  A    between atoms: C_1  and  C_2
REMARK    2  A    between atoms: C_2  and  C_4
REMARK    3  A    between atoms: C_2  and  N_12
REMARK    4  A    between atoms: N_15  and  N_16
REMARK    5  A    between atoms: N_16  and  C_17
REMARK    6  A    between atoms: C_17  and  N_19
REMARK    7  A    between atoms: N_19  and  C_20
REMARK                            x       y       z     vdW  Elec       q    Type
REMARK                         _______ _______ _______ _____ _____    ______ ____
ROOT
ATOM      1  N   UNL     1      -1.372  -0.511   0.012  0.00  0.00    -0.292 N 
ATOM      2  C   UNL     1      -2.029  -0.655   1.181  0.00  0.00    +0.316 C 
ATOM      3  O   UNL     1      -1.480  -0.364   2.226  0.00  0.00    -0.251 OA
ATOM      4  N   UNL     1      -3.293  -1.122   1.190  0.00  0.00    -0.219 N 
ATOM      5  H   UNL     1      -1.810  -0.743  -0.822  0.00  0.00    +0.151 HD
ATOM      6  H   UNL     1      -3.765  -1.225   2.031  0.00  0.00    +0.174 HD
ENDROOT
BRANCH   1   8
ATOM      7  C   UNL     1      -0.019   1.526   0.010  0.00  0.00    +0.033 C 
ATOM      8  C   UNL     1       0.002  -0.004   0.002  0.00  0.00    +0.104 C 
BRANCH   8   9
ATOM      9  C   UNL     1       0.707  -0.490  -1.238  0.00  0.00    +0.008 A 
ATOM     10  C   UNL     1      -0.023  -0.817  -2.365  0.00  0.00    +0.011 A 
ATOM     11  C   UNL     1       0.623  -1.262  -3.503  0.00  0.00    +0.039 A 
ATOM     12  C   UNL     1       2.002  -1.382  -3.515  0.00  0.00    +0.126 A 
ATOM     13  C   UNL     1       2.735  -1.055  -2.387  0.00  0.00    +0.077 A 
ATOM     14  C   UNL     1       2.087  -0.603  -1.250  0.00  0.00    +0.131 A 
ATOM     15  F   UNL     1       2.801  -0.278  -0.150  0.00  0.00    -0.205 F 
ATOM     16  F   UNL     1       2.633  -1.818  -4.627  0.00  0.00    -0.205 F 
ENDBRANCH   8   9
ENDBRANCH   1   8
BRANCH   4  17
ATOM     17  N   UNL     1      -3.925  -1.457  -0.014  0.00  0.00    -0.245 N 
ATOM     18  H   UNL     1      -3.453  -1.353  -0.855  0.00  0.00    +0.172 HD
BRANCH  17  19
ATOM     19  C   UNL     1      -5.190  -1.923  -0.005  0.00  0.00    +0.147 C 
ATOM     20  S   UNL     1      -5.962  -2.333  -1.477  0.00  0.00    -0.017 S 
BRANCH  19  21
ATOM     21  N   UNL     1      -5.846  -2.067   1.164  0.00  0.00    -0.323 N 
ATOM     22  H   UNL     1      -5.408  -1.835   1.998  0.00  0.00    +0.148 HD
BRANCH  21  23
ATOM     23  C   UNL     1      -7.220  -2.575   1.174  0.00  0.00    +0.072 C 
ATOM     24  C   UNL     1      -8.216  -1.407   1.009  0.00  0.00    +0.022 C 
ATOM     25  C   UNL     1      -9.405  -1.790   1.924  0.00  0.00    +0.002 C 
ATOM     26  C   UNL     1      -8.704  -2.435   3.145  0.00  0.00    +0.002 C 
ATOM     27  C   UNL     1      -7.531  -3.228   2.532  0.00  0.00    +0.022 C 
ENDBRANCH  21  23
ENDBRANCH  19  21
ENDBRANCH  17  19
ENDBRANCH   4  17
TORSDOF 6
