REMARK  Name = ZINC21583771
REMARK  10 active torsions:
REMARK  status: ('A' for Active; 'I' for Inactive)
REMARK    1  A    between atoms: C_1  and  C_2
REMARK    2  A    between atoms: C_3  and  C_14
REMARK    3  A    between atoms: N_5  and  C_7
REMARK    4  A    between atoms: C_14  and  N_15
REMARK    5  A    between atoms: N_15  and  C_16
REMARK    6  A    between atoms: N_15  and  C_17
REMARK    7  A    between atoms: C_17  and  C_19
REMARK    8  A    between atoms: C_17  and  C_20
REMARK    9  A    between atoms: C_23  and  S_26
REMARK   10  A    between atoms: S_26  and  N_29
REMARK                            x       y       z     vdW  Elec       q    Type
REMARK                         _______ _______ _______ _____ _____    ______ ____
ROOT
ATOM      1  N   UNL     1       4.205   0.799  -1.432  0.00  0.00    +0.385 N 
ATOM      2  C   UNL     1       3.725   2.078  -1.974  0.00  0.00    -0.095 C 
ATOM      3  H   UNL     1       3.862  -0.002  -2.103  0.00  0.00    -0.081 HD
ENDROOT
BRANCH   1   4
ATOM      4  C   UNL     1       5.673   0.761  -1.396  0.00  0.00    -0.041 C 
ATOM      5  C   UNL     1       6.225   1.029  -2.798  0.00  0.00    -0.008 C 
BRANCH   4   6
ATOM      6  C   UNL     1       6.129  -0.597  -0.928  0.00  0.00    -0.061 A 
ATOM      7  C   UNL     1       5.559  -1.738  -1.459  0.00  0.00    +0.004 A 
ATOM      8  C   UNL     1       5.981  -2.984  -1.033  0.00  0.00    +0.029 A 
ATOM      9  C   UNL     1       6.965  -3.088  -0.068  0.00  0.00    +0.105 A 
ATOM     10  C   UNL     1       7.532  -1.946   0.467  0.00  0.00    +0.029 A 
ATOM     11  C   UNL     1       7.114  -0.700   0.037  0.00  0.00    +0.004 A 
BRANCH   9  12
ATOM     12  S   UNL     1       7.497  -4.675   0.480  0.00  0.00    +0.056 S 
ATOM     13  O   UNL     1       7.199  -5.588  -0.568  0.00  0.00    -0.153 OA
ATOM     14  O   UNL     1       8.812  -4.508   0.993  0.00  0.00    -0.153 OA
BRANCH  12  15
ATOM     15  N   UNL     1       6.539  -5.097   1.763  0.00  0.00    -0.204 NA
ATOM     16  H   UNL     1       6.840  -6.087   2.136  0.00  0.00    +0.144 HD
ATOM     17  H   UNL     1       5.488  -5.132   1.440  0.00  0.00    +0.144 HD
ENDBRANCH  12  15
ENDBRANCH   9  12
ENDBRANCH   4   6
ENDBRANCH   1   4
BRANCH   1  18
ATOM     18  C   UNL     1       3.639   0.546  -0.100  0.00  0.00    -0.038 C 
BRANCH  18  21
ATOM     19  C   UNL     1       2.159  -2.214  -0.570  0.00  0.00    +0.068 C 
ATOM     20  C   UNL     1       1.495  -0.869  -0.424  0.00  0.00    +0.063 A 
ATOM     21  C   UNL     1       2.150   0.349  -0.216  0.00  0.00    -0.004 A 
ATOM     22  C   UNL     1       1.209   1.321  -0.138  0.00  0.00    +0.134 A 
ATOM     23  N   UNL     1      -0.005   0.731  -0.291  0.00  0.00    -0.221 N 
ATOM     24  N   UNL     1       0.207  -0.643  -0.469  0.00  0.00    -0.170 NA
ATOM     25 CL   UNL     1       1.501   3.014   0.113  0.00  0.00    -0.062 Cl
BRANCH  23  26
ATOM     26  C   UNL     1      -1.246   1.381  -0.280  0.00  0.00    +0.067 A 
ATOM     27  C   UNL     1      -1.456   2.467   0.559  0.00  0.00    +0.028 A 
ATOM     28  C   UNL     1      -2.679   3.108   0.564  0.00  0.00    +0.002 A 
ATOM     29  C   UNL     1      -3.698   2.663  -0.258  0.00  0.00    +0.000 A 
ATOM     30  C   UNL     1      -3.494   1.578  -1.091  0.00  0.00    +0.002 A 
ATOM     31  C   UNL     1      -2.272   0.936  -1.104  0.00  0.00    +0.028 A 
ENDBRANCH  23  26
ENDBRANCH  18  21
ENDBRANCH   1  18
TORSDOF 7
