REMARK  Name = ZINC13585596
REMARK  11 active torsions:
REMARK  status: ('A' for Active; 'I' for Inactive)
REMARK    1  A    between atoms: C_1  and  C_2
REMARK    2  A    between atoms: C_5  and  S_8
REMARK    3  A    between atoms: S_8  and  N_11
REMARK    4  A    between atoms: N_11  and  C_12
REMARK    5  A    between atoms: N_11  and  C_20
REMARK    6  A    between atoms: C_12  and  C_13
REMARK    7  A    between atoms: C_23  and  O_26
REMARK    8  A    between atoms: O_26  and  C_27
REMARK    9  A    between atoms: C_27  and  C_28
REMARK   10  A    between atoms: N_30  and  C_31
REMARK   11  A    between atoms: C_31  and  C_32
REMARK                            x       y       z     vdW  Elec       q    Type
REMARK                         _______ _______ _______ _____ _____    ______ ____
ROOT
ATOM      1  N   UNL     1       1.274  -2.073   0.023  0.00  0.00    -0.199 N 
ENDROOT
BRANCH   1   2
ATOM      2  C   UNL     1       1.094  -0.695  -0.141  0.00  0.00    +0.052 A 
ATOM      3  C   UNL     1       1.147  -0.134  -1.411  0.00  0.00    +0.028 A 
ATOM      4  C   UNL     1       0.969   1.226  -1.572  0.00  0.00    +0.047 A 
ATOM      5  C   UNL     1       0.737   2.031  -0.467  0.00  0.00    +0.121 A 
ATOM      6  C   UNL     1       0.684   1.472   0.801  0.00  0.00    +0.047 A 
ATOM      7  C   UNL     1       0.862   0.112   0.964  0.00  0.00    +0.028 A 
BRANCH   5   8
ATOM      8  O   UNL     1       0.562   3.371  -0.627  0.00  0.00    -0.483 OA
BRANCH   8   9
ATOM      9  C   UNL     1       0.327   4.140   0.554  0.00  0.00    +0.324 C 
BRANCH   9  10
ATOM     10  C   UNL     1       0.159   5.591   0.183  0.00  0.00    +0.251 C 
ATOM     11  O   UNL     1       0.232   5.932  -0.979  0.00  0.00    -0.272 OA
ATOM     12  N   UNL     1      -0.074   6.509   1.142  0.00  0.00    -0.305 N 
ATOM     13  H   UNL     1      -0.133   6.236   2.071  0.00  0.00    +0.149 HD
BRANCH  12  14
ATOM     14  C   UNL     1      -0.238   7.919   0.781  0.00  0.00    +0.178 C 
BRANCH  14  15
ATOM     15  C   UNL     1      -0.486   8.731   2.027  0.00  0.00    +0.122 A 
ATOM     16  C   UNL     1       0.459   9.308   2.790  0.00  0.00    +0.046 A 
ATOM     17  C   UNL     1      -0.213   9.963   3.848  0.00  0.00    +0.041 A 
ATOM     18  C   UNL     1      -1.528   9.747   3.667  0.00  0.00    +0.195 A 
ATOM     19  O   UNL     1      -1.688   9.005   2.559  0.00  0.00    -0.466 OA
ENDBRANCH  14  15
ENDBRANCH  12  14
ENDBRANCH   9  10
ENDBRANCH   8   9
ENDBRANCH   5   8
ENDBRANCH   1   2
BRANCH   1  20
ATOM     20  S   UNL     1       2.692  -2.785  -0.449  0.00  0.00    +0.075 S 
ATOM     21  O   UNL     1       2.375  -4.122  -0.811  0.00  0.00    -0.150 OA
ATOM     22  O   UNL     1       3.321  -1.881  -1.347  0.00  0.00    -0.150 OA
BRANCH  20  27
ATOM     23  C   UNL     1       6.232  -3.115   4.427  0.00  0.00    +0.044 C 
ATOM     24  C   UNL     1       5.348  -3.033   3.209  0.00  0.00    -0.050 A 
ATOM     25  C   UNL     1       4.417  -4.024   2.962  0.00  0.00    +0.005 A 
ATOM     26  C   UNL     1       3.606  -3.949   1.845  0.00  0.00    +0.029 A 
ATOM     27  C   UNL     1       3.726  -2.881   0.975  0.00  0.00    +0.109 A 
ATOM     28  C   UNL     1       4.660  -1.892   1.219  0.00  0.00    +0.029 A 
ATOM     29  C   UNL     1       5.468  -1.965   2.339  0.00  0.00    +0.005 A 
ENDBRANCH  20  27
ENDBRANCH   1  20
BRANCH   1  30
ATOM     30  C   UNL     1       0.207  -2.885   0.613  0.00  0.00    +0.166 C 
BRANCH  30  31
ATOM     31  C   UNL     1      -0.808  -3.229  -0.447  0.00  0.00    -0.028 A 
ATOM     32  C   UNL     1      -1.828  -2.343  -0.739  0.00  0.00    +0.006 A 
ATOM     33  C   UNL     1      -2.756  -2.655  -1.715  0.00  0.00    +0.020 A 
ATOM     34  C   UNL     1      -2.670  -3.858  -2.392  0.00  0.00    +0.041 A 
ATOM     35  C   UNL     1      -1.651  -4.747  -2.095  0.00  0.00    +0.020 A 
ATOM     36  C   UNL     1      -0.721  -4.431  -1.123  0.00  0.00    +0.006 A 
ATOM     37 CL   UNL     1      -3.838  -4.253  -3.613  0.00  0.00    -0.084 Cl
ENDBRANCH  30  31
ENDBRANCH   1  30
TORSDOF 10
