REMARK  Name = ZINC08076151
REMARK  8 active torsions:
REMARK  status: ('A' for Active; 'I' for Inactive)
REMARK    1  A    between atoms: C_4  and  C_7
REMARK    2  A    between atoms: C_7  and  C_8
REMARK    3  A    between atoms: C_7  and  C_14
REMARK    4  A    between atoms: C_7  and  N_20
REMARK    5  A    between atoms: C_21  and  C_23
REMARK    6  A    between atoms: C_23  and  C_24
REMARK    7  A    between atoms: C_24  and  C_26
REMARK    8  A    between atoms: C_24  and  N_29
REMARK                            x       y       z     vdW  Elec       q    Type
REMARK                         _______ _______ _______ _____ _____    ______ ____
ROOT
ATOM      1  C   UNK     1       3.711  -0.707  -0.038  0.00  0.00    +0.110 C 
ENDROOT
BRANCH   1   5
ATOM      2  C   UNK     1      -0.188   0.787  -0.939  0.00  0.00    +0.000 A 
ATOM      3  C   UNK     1      -0.010  -0.089   0.116  0.00  0.00    +0.000 A 
ATOM      4  C   UNK     1       1.252  -0.573   0.407  0.00  0.00    +0.006 A 
ATOM      5  C   UNK     1       2.336  -0.181  -0.356  0.00  0.00    -0.015 A 
ATOM      6  C   UNK     1       2.157   0.694  -1.411  0.00  0.00    +0.006 A 
ATOM      7  C   UNK     1       0.896   1.179  -1.702  0.00  0.00    +0.000 A 
ENDBRANCH   1   5
BRANCH   1   8
ATOM      8  C   UNK     1       3.590  -1.972   0.772  0.00  0.00    -0.015 A 
ATOM      9  C   UNK     1       2.743  -2.982   0.355  0.00  0.00    +0.006 A 
ATOM     10  C   UNK     1       2.631  -4.142   1.098  0.00  0.00    +0.000 A 
ATOM     11  C   UNK     1       3.368  -4.293   2.258  0.00  0.00    +0.000 A 
ATOM     12  C   UNK     1       4.216  -3.284   2.675  0.00  0.00    +0.000 A 
ATOM     13  C   UNK     1       4.330  -2.126   1.930  0.00  0.00    +0.006 A 
ENDBRANCH   1   8
BRANCH   1  14
ATOM     14  C   UNK     1       4.446  -1.000  -1.320  0.00  0.00    -0.015 A 
ATOM     15  C   UNK     1       3.743  -1.375  -2.450  0.00  0.00    +0.006 A 
ATOM     16  C   UNK     1       4.417  -1.644  -3.626  0.00  0.00    +0.000 A 
ATOM     17  C   UNK     1       5.794  -1.538  -3.673  0.00  0.00    +0.000 A 
ATOM     18  C   UNK     1       6.498  -1.162  -2.544  0.00  0.00    +0.000 A 
ATOM     19  C   UNK     1       5.823  -0.889  -1.369  0.00  0.00    +0.006 A 
ENDBRANCH   1  14
BRANCH   1  20
ATOM     20  N   UNK     1       4.452   0.296   0.731  0.00  0.00    -0.298 N 
ATOM     21  C   UNK     1       3.980   0.716   1.922  0.00  0.00    +0.213 C 
ATOM     22  O   UNK     1       2.943   0.263   2.357  0.00  0.00    -0.276 OA
ATOM     23  H   UNK     1       5.282   0.658   0.384  0.00  0.00    +0.150 HD
BRANCH  21  24
ATOM     24  C   UNK     1       4.742   1.748   2.713  0.00  0.00    +0.091 C 
BRANCH  24  25
ATOM     25  C   UNK     1       3.996   2.045   4.015  0.00  0.00    +0.049 C 
BRANCH  25  26
ATOM     26  N   UNK     1       3.982   0.842   4.858  0.00  0.00    +0.387 N 
ATOM     27  H   UNK     1       4.930   0.568   5.069  0.00  0.00    -0.089 HD
ATOM     28  H   UNK     1       3.490   1.038   5.716  0.00  0.00    -0.089 HD
ATOM     29  H   UNK     1       3.517   0.093   4.367  0.00  0.00    -0.089 HD
ENDBRANCH  25  26
BRANCH  25  30
ATOM     30  C   UNK     1       4.691   3.164   4.748  0.00  0.00    +0.342 C 
ATOM     31  O   UNK     1       4.653   4.299   4.305  0.00  0.00    -0.248 OA
ATOM     32  O   UNK     1       5.292   2.933   5.784  0.00  0.00    -0.248 OA
ENDBRANCH  25  30
ENDBRANCH  24  25
ENDBRANCH  21  24
ENDBRANCH   1  20
TORSDOF 8
