REMARK  Name = ZINC39597840
REMARK  5 active torsions:
REMARK  status: ('A' for Active; 'I' for Inactive)
REMARK    1  A    between atoms: C_7  and  C_10
REMARK    2  A    between atoms: C_10  and  C_11
REMARK    3  A    between atoms: C_11  and  N_12
REMARK    4  A    between atoms: C_13  and  C_15
REMARK    5  A    between atoms: C_26  and  C_28
REMARK                            x       y       z     vdW  Elec       q    Type
REMARK                         _______ _______ _______ _____ _____    ______ ____
ROOT
ATOM      1  C   UNL     1      -5.660   7.126  -2.507  0.00  0.00    +0.100 C 
ATOM      2  C   UNL     1      -4.766   8.038  -1.638  0.00  0.00    +0.121 C 
ATOM      3  N   UNL     1      -3.832   8.671  -2.598  0.00  0.00    -0.297 N 
ATOM      4  C   UNL     1      -4.667   8.961  -3.788  0.00  0.00    +0.115 C 
ATOM      5  C   UNL     1      -5.596   7.737  -3.917  0.00  0.00    -0.004 C 
ATOM      6  C   UNL     1      -6.986   8.174  -4.368  0.00  0.00    -0.010 C 
ATOM      7  C   UNL     1      -6.906   8.724  -5.795  0.00  0.00    -0.082 C 
ATOM      8  N   UNL     1      -6.381   7.688  -6.692  0.00  0.00    +0.379 N 
ATOM      9  C   UNL     1      -5.008   7.340  -6.307  0.00  0.00    -0.082 C 
ATOM     10  C   UNL     1      -5.008   6.731  -4.902  0.00  0.00    -0.010 C 
ATOM     11  C   UNL     1      -2.520   8.928  -2.428  0.00  0.00    +0.260 C 
ATOM     12  O   UNL     1      -1.885   9.457  -3.315  0.00  0.00    -0.271 OA
ATOM     13  H   UNL     1      -6.964   6.866  -6.632  0.00  0.00    -0.086 HD
ATOM     14  H   UNL     1      -6.387   8.032  -7.641  0.00  0.00    -0.086 HD
ENDROOT
BRANCH  11  15
ATOM     15  C   UNL     1      -1.841   8.556  -1.134  0.00  0.00    +0.296 C 
ATOM     16  C   UNL     1      -2.420   9.396   0.013  0.00  0.00    +0.283 C 
ATOM     17  O   UNL     1      -1.745   9.029   1.222  0.00  0.00    -0.484 OA
ATOM     18  C   UNL     1      -0.389   8.937   1.161  0.00  0.00    +0.162 A 
ATOM     19  C   UNL     1       0.347   8.947   2.336  0.00  0.00    +0.049 A 
ATOM     20  C   UNL     1       1.725   8.851   2.291  0.00  0.00    +0.004 A 
ATOM     21  C   UNL     1       2.374   8.745   1.075  0.00  0.00    +0.004 A 
ATOM     22  C   UNL     1       1.646   8.735  -0.100  0.00  0.00    +0.049 A 
ATOM     23  C   UNL     1       0.263   8.832  -0.062  0.00  0.00    +0.163 A 
ATOM     24  O   UNL     1      -0.439   8.830  -1.228  0.00  0.00    -0.473 OA
ENDBRANCH  11  15
BRANCH   1  26
ATOM     25  N   UNL     1      -5.956   4.677  -2.696  0.00  0.00    -0.315 N 
ATOM     26  C   UNL     1      -5.120   5.719  -2.519  0.00  0.00    +0.218 C 
ATOM     27  O   UNL     1      -3.932   5.525  -2.370  0.00  0.00    -0.275 OA
ATOM     28  H   UNL     1      -6.906   4.833  -2.816  0.00  0.00    +0.149 HD
BRANCH  25  29
ATOM     29  C   UNL     1      -5.431   3.310  -2.709  0.00  0.00    +0.109 C 
BRANCH  29  30
ATOM     30  C   UNL     1      -6.580   2.324  -2.925  0.00  0.00    +0.056 C 
BRANCH  30  37
ATOM     31  C   UNL     1      -5.611  -0.770   0.461  0.00  0.00    +0.001 A 
ATOM     32  C   UNL     1      -5.118  -1.971  -0.029  0.00  0.00    +0.002 A 
ATOM     33  C   UNL     1      -4.957  -2.164  -1.383  0.00  0.00    +0.026 A 
ATOM     34  C   UNL     1      -5.290  -1.147  -2.271  0.00  0.00    +0.047 A 
ATOM     35  N   UNL     1      -5.246  -1.032  -3.642  0.00  0.00    -0.360 N 
ATOM     36  C   UNL     1      -5.696   0.203  -4.021  0.00  0.00    +0.087 A 
ATOM     37  C   UNL     1      -6.040   0.917  -2.937  0.00  0.00    -0.021 A 
ATOM     38  C   UNL     1      -5.790   0.069  -1.769  0.00  0.00    +0.003 A 
ATOM     39  C   UNL     1      -5.950   0.241  -0.393  0.00  0.00    +0.010 A 
ATOM     40  H   UNL     1      -4.940  -1.724  -4.250  0.00  0.00    +0.165 HD
ENDBRANCH  30  37
ENDBRANCH  29  30
ENDBRANCH  25  29
ENDBRANCH   1  26
TORSDOF 5
