REMARK  Name = ZINC37744426
REMARK  4 active torsions:
REMARK  status: ('A' for Active; 'I' for Inactive)
REMARK    1  A    between atoms: C_2  and  N_19
REMARK    2  A    between atoms: C_6  and  N_7
REMARK    3  A    between atoms: N_7  and  S_8
REMARK    4  A    between atoms: S_8  and  C_11
REMARK                            x       y       z     vdW  Elec       q    Type
REMARK                         _______ _______ _______ _____ _____    ______ ____
ROOT
ATOM      1  C   UNL     1      -0.017   1.383   0.010  0.00  0.00    +0.055 A 
ATOM      2  C   UNL     1       1.177   2.091   0.002  0.00  0.00    +0.062 A 
ATOM      3  C   UNL     1       2.388   1.409  -0.013  0.00  0.00    +0.147 A 
ATOM      4  C   UNL     1       2.405   0.026  -0.021  0.00  0.00    +0.080 A 
ATOM      5  C   UNL     1       1.216  -0.682  -0.014  0.00  0.00    +0.151 A 
ATOM      6  C   UNL     1       0.002  -0.004   0.002  0.00  0.00    +0.111 A 
ATOM      7  F   UNL     1       1.235  -2.033  -0.022  0.00  0.00    -0.203 F 
ATOM      8  F   UNL     1       3.550   2.098  -0.021  0.00  0.00    -0.203 F 
ENDROOT
BRANCH   2   9
ATOM      9  N   UNL     1       1.161   3.491   0.009  0.00  0.00    -0.356 N 
ATOM     10  H   UNL     1       0.315   3.966   0.020  0.00  0.00    +0.142 HD
ATOM     11  H   UNL     1       1.995   3.985   0.004  0.00  0.00    +0.142 HD
ENDBRANCH   2   9
BRANCH   6  12
ATOM     12  N   UNL     1      -1.200  -0.721   0.010  0.00  0.00    -0.095 NA
BRANCH  12  13
ATOM     13  S   UNL     1      -1.177  -2.377   0.001  0.00  0.00    +0.095 S 
ATOM     14  O   UNL     1      -0.633  -2.768  -1.252  0.00  0.00    -0.148 OA
ATOM     15  O   UNL     1      -0.608  -2.782   1.239  0.00  0.00    -0.148 OA
BRANCH  13  16
ATOM     16  C   UNL     1      -2.853  -2.921   0.015  0.00  0.00    +0.147 A 
ATOM     17  C   UNL     1      -3.601  -3.168   1.115  0.00  0.00    +0.133 A 
ATOM     18  N   UNL     1      -4.823  -3.564   0.702  0.00  0.00    -0.283 N 
ATOM     19  H   UNL     1      -5.567  -3.807   1.273  0.00  0.00    +0.188 HD
ATOM     20  N   UNL     1      -4.826  -3.560  -0.699  0.00  0.00    -0.180 NA
ATOM     21  C   UNL     1      -3.647  -3.169  -1.110  0.00  0.00    +0.163 A 
ENDBRANCH  13  16
ENDBRANCH  12  13
ENDBRANCH   6  12
TORSDOF 4
