REMARK  Name = ZINC47684403
REMARK  9 active torsions:
REMARK  status: ('A' for Active; 'I' for Inactive)
REMARK    1  A    between atoms: C_1  and  C_2
REMARK    2  A    between atoms: C_2  and  C_4
REMARK    3  A    between atoms: C_2  and  N_17
REMARK    4  A    between atoms: C_4  and  N_5
REMARK    5  A    between atoms: C_6  and  C_8
REMARK    6  A    between atoms: C_8  and  C_10
REMARK    7  A    between atoms: C_8  and  N_13
REMARK    8  A    between atoms: C_10  and  C_11
REMARK    9  A    between atoms: C_10  and  C_12
REMARK                            x       y       z     vdW  Elec       q    Type
REMARK                         _______ _______ _______ _____ _____    ______ ____
ROOT
ATOM      1  N   UNL     1       1.982   0.285  -0.930  0.00  0.00    -0.315 N 
ATOM      2  C   UNL     1       2.428   0.573  -2.169  0.00  0.00    +0.234 C 
ATOM      3  O   UNL     1       1.926   0.036  -3.134  0.00  0.00    -0.274 OA
ATOM      4  H   UNL     1       2.415   0.676  -0.156  0.00  0.00    +0.149 HD
ENDROOT
BRANCH   1   5
ATOM      5  C   UNL     1       0.843  -0.620  -0.754  0.00  0.00    +0.089 C 
BRANCH   5   7
ATOM      6  C   UNL     1       0.257   0.420   1.441  0.00  0.00    -0.012 C 
ATOM      7  C   UNL     1       0.630  -0.887   0.738  0.00  0.00    -0.054 C 
BRANCH   7   8
ATOM      8  N   UNL     1       1.868  -1.421   1.321  0.00  0.00    +0.385 N 
ATOM      9  C   UNL     1       2.156  -2.741   0.740  0.00  0.00    -0.073 C 
ATOM     10  C   UNL     1       3.583  -3.139   1.119  0.00  0.00    +0.017 C 
ATOM     11  C   UNL     1       3.778  -2.988   2.606  0.00  0.00    -0.048 A 
ATOM     12  C   UNL     1       4.863  -3.612   3.202  0.00  0.00    +0.004 A 
ATOM     13  C   UNL     1       5.075  -3.493   4.561  0.00  0.00    +0.000 A 
ATOM     14  C   UNL     1       4.200  -2.748   5.331  0.00  0.00    +0.000 A 
ATOM     15  C   UNL     1       3.119  -2.129   4.739  0.00  0.00    +0.002 A 
ATOM     16  C   UNL     1       2.903  -2.248   3.374  0.00  0.00    -0.061 A 
ATOM     17  C   UNL     1       1.706  -1.562   2.771  0.00  0.00    -0.042 C 
ATOM     18  H   UNL     1       2.632  -0.791   1.127  0.00  0.00    -0.081 HD
ENDBRANCH   7   8
ENDBRANCH   5   7
ENDBRANCH   1   5
BRANCH   2  19
ATOM     19  C   UNL     1       3.549   1.562  -2.356  0.00  0.00    +0.163 C 
BRANCH  19  20
ATOM     20  N   UNL     1       4.003   1.530  -3.748  0.00  0.00    -0.288 N 
ATOM     21  C   UNL     1       5.258   1.909  -4.057  0.00  0.00    +0.298 C 
ATOM     22  O   UNL     1       6.015   2.278  -3.180  0.00  0.00    -0.253 OA
ATOM     23  N   UNL     1       5.676   1.879  -5.338  0.00  0.00    -0.313 N 
ATOM     24  H   UNL     1       3.399   1.235  -4.448  0.00  0.00    +0.151 HD
ATOM     25  H   UNL     1       5.072   1.585  -6.038  0.00  0.00    +0.146 HD
ATOM     26  H   UNL     1       6.579   2.152  -5.561  0.00  0.00    +0.146 HD
ENDBRANCH  19  20
BRANCH  19  27
ATOM     27  C   UNL     1       3.052   2.968  -2.014  0.00  0.00    +0.012 C 
ATOM     28  C   UNL     1       2.533   2.989  -0.574  0.00  0.00    +0.009 C 
ATOM     29  C   UNL     1       4.204   3.965  -2.155  0.00  0.00    +0.009 C 
ENDBRANCH  19  27
ENDBRANCH   2  19
TORSDOF 6
