REMARK  Name = ZINC06494935
REMARK  6 active torsions:
REMARK  status: ('A' for Active; 'I' for Inactive)
REMARK    1  A    between atoms: N_6  and  C1*_9
REMARK    2  A    between atoms: C_7  and  O_8
REMARK    3  A    between atoms: C2*_11  and  O2*_21
REMARK    4  A    between atoms: C3*_13  and  O3*_20
REMARK    5  A    between atoms: C4*_15  and  C5*_18
REMARK    6  A    between atoms: C5*_18  and  O5*_19
REMARK                            x       y       z     vdW  Elec       q    Type
REMARK                         _______ _______ _______ _____ _____    ______ ____
ROOT
ATOM      1  C1* UNL     1      -1.300   2.100   0.020  0.00  0.00    +0.272 C 
ATOM      2  C2* UNL     1      -1.951   2.025  -1.376  0.00  0.00    +0.197 C 
ATOM      3  C3* UNL     1      -3.268   1.242  -1.135  0.00  0.00    +0.178 C 
ATOM      4  C4* UNL     1      -2.972   0.507   0.197  0.00  0.00    +0.177 C 
ATOM      5  O4* UNL     1      -2.199   1.469   0.947  0.00  0.00    -0.344 OA
ENDROOT
BRANCH   1  11
ATOM      6  C   UNL     1       2.340   1.456  -0.012  0.00  0.00    +0.120 A 
ATOM      7  C   UNL     1       2.360   0.052  -0.020  0.00  0.00    +0.222 A 
ATOM      8  O   UNL     1       3.423  -0.552  -0.034  0.00  0.00    -0.284 OA
ATOM      9  C   UNL     1       1.131  -0.657  -0.012  0.00  0.00    +0.196 A 
ATOM     10  N   UNL     1       0.002  -0.004   0.002  0.00  0.00    -0.150 NA
ATOM     11  N   UNL     1      -0.017   1.394   0.010  0.00  0.00    -0.200 N 
ATOM     12  C   UNL     1       1.139   2.106   0.003  0.00  0.00    +0.215 A 
ATOM     13 CL   UNL     1       1.130  -2.393  -0.021  0.00  0.00    -0.056 Cl
BRANCH  12  14
ATOM     14  O   UNL     1       1.101   3.457   0.010  0.00  0.00    -0.492 OA
ATOM     15  H   UNL     1       1.098   3.846   0.896  0.00  0.00    +0.294 HD
ENDBRANCH  12  14
ENDBRANCH   1  11
BRANCH   3  16
ATOM     16  O3* UNL     1      -4.373   2.136  -0.990  0.00  0.00    -0.386 OA
ATOM     17  H3* UNL     1      -5.202   1.701  -0.750  0.00  0.00    +0.210 HD
ENDBRANCH   3  16
BRANCH   2  18
ATOM     18  O2* UNL     1      -1.105   1.317  -2.284  0.00  0.00    -0.385 OA
ATOM     19  H2* UNL     1      -1.465   1.240  -3.178  0.00  0.00    +0.210 HD
ENDBRANCH   2  18
BRANCH   4  20
ATOM     20  C5* UNL     1      -4.271   0.171   0.931  0.00  0.00    +0.190 C 
BRANCH  20  21
ATOM     21  O5* UNL     1      -3.968  -0.517   2.147  0.00  0.00    -0.392 OA
ATOM     22  H5* UNL     1      -4.747  -0.762   2.665  0.00  0.00    +0.210 HD
ENDBRANCH  20  21
ENDBRANCH   4  20
TORSDOF 6
