REMARK  Name = ZINC57530887
REMARK  15 active torsions:
REMARK  status: ('A' for Active; 'I' for Inactive)
REMARK    1  A    between atoms: C_1  and  C_2
REMARK    2  A    between atoms: C_4  and  C_41
REMARK    3  A    between atoms: C_9  and  C_14
REMARK    4  A    between atoms: C_14  and  C_16
REMARK    5  A    between atoms: C_14  and  N_25
REMARK    6  A    between atoms: N_20  and  C_21
REMARK    7  A    between atoms: C_21  and  C_22
REMARK    8  A    between atoms: C_21  and  C_23
REMARK    9  A    between atoms: C_21  and  C_24
REMARK   10  A    between atoms: N_25  and  C_26
REMARK   11  A    between atoms: N_25  and  C_35
REMARK   12  A    between atoms: C_26  and  C_27
REMARK   13  A    between atoms: C_30  and  O_33
REMARK   14  A    between atoms: O_33  and  C_34
REMARK   15  A    between atoms: C_35  and  C_36
REMARK                            x       y       z     vdW  Elec       q    Type
REMARK                         _______ _______ _______ _____ _____    ______ ____
ROOT
ATOM      1  C   UNL     1      -0.587  -4.283   3.763  0.00  0.00    +0.163 C 
ENDROOT
BRANCH   1  10
ATOM      2  C   UNL     1      -2.285   1.840  -0.141  0.00  0.00    +0.044 C 
ATOM      3  C   UNL     1      -2.081   0.349  -0.057  0.00  0.00    -0.050 A 
ATOM      4  C   UNL     1      -2.256  -0.433  -1.190  0.00  0.00    +0.008 A 
ATOM      5  C   UNL     1      -2.075  -1.799  -1.137  0.00  0.00    -0.026 A 
ATOM      6  C   UNL     1      -1.711  -2.400   0.063  0.00  0.00    +0.052 A 
ATOM      7  C   UNL     1      -1.534  -1.603   1.210  0.00  0.00    -0.001 A 
ATOM      8  C   UNL     1      -1.719  -0.219   1.131  0.00  0.00    +0.013 A 
ATOM      9  C   UNL     1      -1.151  -2.245   2.469  0.00  0.00    +0.021 A 
ATOM     10  C   UNL     1      -0.981  -3.591   2.484  0.00  0.00    +0.042 A 
ATOM     11  C   UNL     1      -1.171  -4.345   1.306  0.00  0.00    +0.254 A 
ATOM     12  O   UNL     1      -1.014  -5.553   1.341  0.00  0.00    -0.268 OA
ATOM     13  N   UNL     1      -1.523  -3.763   0.145  0.00  0.00    -0.322 N 
ATOM     14  H   UNL     1      -1.646  -4.311  -0.646  0.00  0.00    +0.169 HD
ATOM     15  C   UNL     1      -2.270  -2.636  -2.374  0.00  0.00    +0.046 C 
ENDBRANCH   1  10
BRANCH   1  16
ATOM     16  C   UNL     1       0.783  -4.889   3.605  0.00  0.00    +0.174 A 
ATOM     17  N   UNL     1       1.083  -5.987   2.955  0.00  0.00    -0.111 NA
ATOM     18  N   UNL     1       2.355  -6.170   3.049  0.00  0.00    -0.023 NA
ATOM     19  N   UNL     1       2.874  -5.217   3.742  0.00  0.00    -0.043 NA
ATOM     20  N   UNL     1       1.938  -4.404   4.098  0.00  0.00    -0.222 N 
BRANCH  20  21
ATOM     21  C   UNL     1       2.101  -3.185   4.893  0.00  0.00    +0.059 C 
ATOM     22  C   UNL     1       1.331  -3.327   6.208  0.00  0.00    +0.036 C 
ATOM     23  C   UNL     1       3.585  -2.965   5.192  0.00  0.00    +0.036 C 
ATOM     24  C   UNL     1       1.556  -1.989   4.110  0.00  0.00    +0.036 C 
ENDBRANCH  20  21
ENDBRANCH   1  16
BRANCH   1  25
ATOM     25  N   UNL     1      -1.559  -5.343   4.065  0.00  0.00    -0.277 NA
BRANCH  25  26
ATOM     26  C   UNL     1      -1.409  -5.816   5.448  0.00  0.00    +0.121 C 
BRANCH  26  27
ATOM     27  C   UNL     1      -0.351  -6.888   5.499  0.00  0.00    -0.033 A 
ATOM     28  C   UNL     1      -0.669  -8.189   5.155  0.00  0.00    +0.008 A 
ATOM     29  C   UNL     1       0.299  -9.174   5.202  0.00  0.00    +0.046 A 
ATOM     30  C   UNL     1       1.591  -8.856   5.594  0.00  0.00    +0.120 A 
ATOM     31  C   UNL     1       1.908  -7.550   5.938  0.00  0.00    +0.046 A 
ATOM     32  C   UNL     1       0.938  -6.568   5.885  0.00  0.00    +0.008 A 
BRANCH  30  33
ATOM     33  O   UNL     1       2.545  -9.823   5.641  0.00  0.00    -0.495 OA
ATOM     34  C   UNL     1       3.854  -9.424   6.054  0.00  0.00    +0.277 C 
ENDBRANCH  30  33
ENDBRANCH  26  27
ENDBRANCH  25  26
BRANCH  25  35
ATOM     35  C   UNL     1      -2.932  -4.886   3.812  0.00  0.00    +0.160 C 
BRANCH  35  36
ATOM     36  C   UNL     1      -3.865  -6.069   3.821  0.00  0.00    +0.119 A 
ATOM     37  C   UNL     1      -4.591  -6.490   4.872  0.00  0.00    +0.046 A 
ATOM     38  C   UNL     1      -5.318  -7.623   4.440  0.00  0.00    +0.041 A 
ATOM     39  C   UNL     1      -4.993  -7.827   3.151  0.00  0.00    +0.195 A 
ATOM     40  O   UNL     1      -4.117  -6.879   2.779  0.00  0.00    -0.467 OA
ENDBRANCH  35  36
ENDBRANCH  25  35
ENDBRANCH   1  25
TORSDOF 9
