REMARK  Name = ZINC35760388
REMARK  9 active torsions:
REMARK  status: ('A' for Active; 'I' for Inactive)
REMARK    1  A    between atoms: C_1  and  C_2
REMARK    2  A    between atoms: C_3  and  C_26
REMARK    3  A    between atoms: C_4  and  C_13
REMARK    4  A    between atoms: C_16  and  N_19
REMARK    5  A    between atoms: C_20  and  C_22
REMARK    6  A    between atoms: C_22  and  C_24
REMARK    7  A    between atoms: N_28  and  C_29
REMARK    8  A    between atoms: C_32  and  O_35
REMARK    9  A    between atoms: O_35  and  C_36
REMARK                            x       y       z     vdW  Elec       q    Type
REMARK                         _______ _______ _______ _____ _____    ______ ____
ROOT
ATOM      1  C   UNL     1       0.275   0.760   0.982  0.00  0.00    +0.064 C 
ATOM      2  C   UNL     1       0.094  -0.735   0.920  0.00  0.00    +0.025 C 
ATOM      3  C   UNL     1      -1.154  -1.254   0.756  0.00  0.00    +0.058 C 
ATOM      4  C   UNL     1      -1.340  -2.752   0.758  0.00  0.00    +0.142 C 
ATOM      5  N   UNL     1      -0.080  -3.384   0.325  0.00  0.00    -0.300 N 
ATOM      6  C   UNL     1      -0.154  -4.531  -0.561  0.00  0.00    +0.109 C 
ATOM      7  C   UNL     1       0.925  -5.574  -0.398  0.00  0.00    +0.030 C 
ATOM      8  C   UNL     1       2.325  -4.973  -0.537  0.00  0.00    +0.078 C 
ATOM      9  S   UNL     1       2.555  -3.807   0.843  0.00  0.00    -0.092 S 
ATOM     10  C   UNL     1       1.095  -2.818   0.734  0.00  0.00    +0.135 C 
ATOM     11  N   UNL     1       1.157  -1.530   1.022  0.00  0.00    -0.341 N 
ATOM     12  H   UNL     1       2.001  -1.154   1.319  0.00  0.00    +0.167 HD
ENDROOT
BRANCH   4  13
ATOM     13  C   UNL     1      -1.692  -3.216   2.147  0.00  0.00    -0.022 A 
ATOM     14  C   UNL     1      -0.698  -3.369   3.096  0.00  0.00    +0.007 A 
ATOM     15  C   UNL     1      -1.017  -3.794   4.371  0.00  0.00    +0.023 A 
ATOM     16  C   UNL     1      -2.338  -4.067   4.699  0.00  0.00    +0.033 A 
ATOM     17  C   UNL     1      -3.335  -3.912   3.745  0.00  0.00    +0.023 A 
ATOM     18  C   UNL     1      -3.010  -3.482   2.473  0.00  0.00    +0.007 A 
BRANCH  16  19
ATOM     19  N   UNL     1      -2.665  -4.499   5.990  0.00  0.00    -0.284 N 
ATOM     20  C   UNL     1      -1.817  -5.297   6.668  0.00  0.00    +0.235 C 
ATOM     21  O   UNL     1      -0.735  -5.574   6.195  0.00  0.00    -0.274 OA
ATOM     22  H   UNL     1      -3.502  -4.223   6.396  0.00  0.00    +0.155 HD
BRANCH  20  23
ATOM     23  C   UNL     1      -2.214  -5.846   8.014  0.00  0.00    +0.163 C 
ATOM     24  C   UNL     1      -1.859  -7.333   8.083  0.00  0.00    +0.034 C 
ATOM     25 CL   UNL     1      -1.330  -4.957   9.310  0.00  0.00    -0.112 Cl
ENDBRANCH  20  23
ENDBRANCH  16  19
ENDBRANCH   4  13
BRANCH   3  26
ATOM     26  C   UNL     1      -2.260  -0.402   0.586  0.00  0.00    +0.248 C 
ATOM     27  O   UNL     1      -2.103   0.807   0.586  0.00  0.00    -0.270 OA
ATOM     28  N   UNL     1      -3.493  -0.921   0.423  0.00  0.00    -0.282 N 
ATOM     29  H   UNL     1      -3.628  -1.880   0.490  0.00  0.00    +0.155 HD
BRANCH  28  30
ATOM     30  C   UNL     1      -4.579  -0.078   0.159  0.00  0.00    +0.034 A 
ATOM     31  C   UNL     1      -5.603  -0.506  -0.676  0.00  0.00    +0.027 A 
ATOM     32  C   UNL     1      -6.674   0.326  -0.937  0.00  0.00    +0.047 A 
ATOM     33  C   UNL     1      -6.726   1.589  -0.365  0.00  0.00    +0.120 A 
ATOM     34  C   UNL     1      -5.704   2.017   0.469  0.00  0.00    +0.047 A 
ATOM     35  C   UNL     1      -4.636   1.184   0.735  0.00  0.00    +0.027 A 
BRANCH  33  36
ATOM     36  O   UNL     1      -7.781   2.408  -0.623  0.00  0.00    -0.495 OA
ATOM     37  C   UNL     1      -7.770   3.695  -0.001  0.00  0.00    +0.277 C 
ENDBRANCH  33  36
ENDBRANCH  28  30
ENDBRANCH   3  26
TORSDOF 6
