REMARK  Name = ZINC01372654
REMARK  8 active torsions:
REMARK  status: ('A' for Active; 'I' for Inactive)
REMARK    1  A    between atoms: C_5  and  C_7
REMARK    2  A    between atoms: C_7  and  C_9
REMARK    3  A    between atoms: C_7  and  N_17
REMARK    4  A    between atoms: N_11  and  C_12
REMARK    5  A    between atoms: N_17  and  C_18
REMARK    6  A    between atoms: C_18  and  C_19
REMARK    7  A    between atoms: C_28  and  C_30
REMARK    8  A    between atoms: C_30  and  N_31
REMARK                            x       y       z     vdW  Elec       q    Type
REMARK                         _______ _______ _______ _____ _____    ______ ____
ROOT
ATOM      1  N   UNL     1       0.045  -2.579  -0.534  0.00  0.00    -0.280 N 
ATOM      2  C   UNL     1       0.592  -3.373  -1.476  0.00  0.00    +0.238 C 
ATOM      3  O   UNL     1       1.795  -3.526  -1.516  0.00  0.00    -0.274 OA
ENDROOT
BRANCH   1   4
ATOM      4  C   UNL     1       0.888  -1.996   0.512  0.00  0.00    +0.195 C 
BRANCH   4   9
ATOM      5  C   UNL     1       1.897  -5.404   1.783  0.00  0.00    +0.001 A 
ATOM      6  C   UNL     1       2.362  -5.102   3.050  0.00  0.00    +0.003 A 
ATOM      7  C   UNL     1       2.350  -3.794   3.497  0.00  0.00    +0.039 A 
ATOM      8  C   UNL     1       1.873  -2.787   2.675  0.00  0.00    +0.129 A 
ATOM      9  C   UNL     1       1.408  -3.091   1.407  0.00  0.00    +0.017 A 
ATOM     10  C   UNL     1       1.421  -4.399   0.963  0.00  0.00    +0.009 A 
ATOM     11  F   UNL     1       1.861  -1.508   3.111  0.00  0.00    -0.205 F 
ENDBRANCH   4   9
BRANCH   4  12
ATOM     12  C   UNL     1       2.048  -1.272  -0.122  0.00  0.00    +0.238 C 
ATOM     13  O   UNL     1       2.159  -1.246  -1.329  0.00  0.00    -0.273 OA
ATOM     14  N   UNL     1       2.961  -0.653   0.652  0.00  0.00    -0.311 N 
ATOM     15  H   UNL     1       2.872  -0.674   1.618  0.00  0.00    +0.149 HD
BRANCH  14  16
ATOM     16  C   UNL     1       4.089   0.050   0.035  0.00  0.00    +0.073 C 
ATOM     17  C   UNL     1       5.261  -0.927  -0.190  0.00  0.00    +0.022 C 
ATOM     18  C   UNL     1       6.524  -0.079   0.103  0.00  0.00    +0.002 C 
ATOM     19  C   UNL     1       6.076   0.799   1.298  0.00  0.00    +0.002 C 
ATOM     20  C   UNL     1       4.606   1.147   0.982  0.00  0.00    +0.022 C 
ENDBRANCH  14  16
ENDBRANCH   4  12
ENDBRANCH   1   4
BRANCH   1  21
ATOM     21  C   UNL     1      -1.393  -2.299  -0.557  0.00  0.00    +0.144 C 
BRANCH  21  22
ATOM     22  C   UNL     1      -2.103  -3.241   0.381  0.00  0.00    -0.026 A 
ATOM     23  C   UNL     1      -2.676  -4.400  -0.109  0.00  0.00    +0.009 A 
ATOM     24  C   UNL     1      -3.328  -5.268   0.748  0.00  0.00    +0.050 A 
ATOM     25  C   UNL     1      -3.409  -4.977   2.100  0.00  0.00    +0.166 A 
ATOM     26  C   UNL     1      -2.832  -3.809   2.593  0.00  0.00    +0.167 A 
ATOM     27  C   UNL     1      -2.175  -2.947   1.730  0.00  0.00    +0.054 A 
ATOM     28  O   UNL     1      -3.045  -3.752   3.940  0.00  0.00    -0.453 OA
ATOM     29  C   UNL     1      -4.108  -4.687   4.201  0.00  0.00    +0.466 C 
ATOM     30  O   UNL     1      -3.984  -5.651   3.138  0.00  0.00    -0.453 OA
ENDBRANCH  21  22
ENDBRANCH   1  21
BRANCH   2  31
ATOM     31  C   UNL     1      -0.290  -4.071  -2.479  0.00  0.00    +0.241 C 
BRANCH  31  32
ATOM     32  N   UNL     1       0.538  -4.876  -3.381  0.00  0.00    -0.235 N 
ATOM     33  C   UNL     1       1.101  -4.466  -4.565  0.00  0.00    +0.090 A 
ATOM     34  C   UNL     1       1.099  -3.269  -5.274  0.00  0.00    +0.029 A 
ATOM     35  C   UNL     1       1.776  -3.179  -6.458  0.00  0.00    +0.002 A 
ATOM     36  C   UNL     1       2.467  -4.274  -6.962  0.00  0.00    +0.002 A 
ATOM     37  C   UNL     1       2.485  -5.458  -6.286  0.00  0.00    +0.032 A 
ATOM     38  C   UNL     1       1.800  -5.577  -5.069  0.00  0.00    +0.113 A 
ATOM     39  N   UNL     1       1.639  -6.592  -4.197  0.00  0.00    -0.129 NA
ATOM     40  N   UNL     1       0.916  -6.215  -3.202  0.00  0.00    -0.064 NA
ENDBRANCH  31  32
ENDBRANCH   2  31
TORSDOF 8
