REMARK  Name = ZINC19353742
REMARK  11 active torsions:
REMARK  status: ('A' for Active; 'I' for Inactive)
REMARK    1  A    between atoms: C_1  and  C_2
REMARK    2  A    between atoms: C_2  and  C_3
REMARK    3  A    between atoms: C_3  and  C_4
REMARK    4  A    between atoms: C_7  and  C_10
REMARK    5  A    between atoms: C_10  and  C_33
REMARK    6  A    between atoms: N_13  and  C_17
REMARK    7  A    between atoms: C_17  and  C_18
REMARK    8  A    between atoms: N_20  and  C_21
REMARK    9  A    between atoms: N_20  and  C_23
REMARK   10  A    between atoms: C_21  and  C_22
REMARK   11  A    between atoms: C_23  and  C_24
REMARK                            x       y       z     vdW  Elec       q    Type
REMARK                         _______ _______ _______ _____ _____    ______ ____
ROOT
ATOM      1  C   UNL     1       0.719   6.955  -2.674  0.00  0.00    +0.135 C 
ATOM      2  C   UNL     1       0.231   5.965  -1.635  0.00  0.00    +0.251 C 
ATOM      3  O   UNL     1      -0.582   6.165  -0.757  0.00  0.00    -0.272 OA
ATOM      4  N   UNL     1       0.887   4.816  -1.889  0.00  0.00    -0.215 N 
ATOM      5  C   UNL     1       1.717   4.942  -2.931  0.00  0.00    +0.310 C 
ATOM      6  O   UNL     1       2.420   4.042  -3.347  0.00  0.00    -0.252 OA
ATOM      7  N   UNL     1       1.685   6.175  -3.468  0.00  0.00    -0.281 N 
ATOM      8  C   UNL     1       1.410   8.143  -2.002  0.00  0.00    +0.047 C 
ATOM      9  H   UNL     1       2.207   6.644  -4.314  0.00  0.00    +0.152 HD
ENDROOT
BRANCH   1  13
ATOM     10  C   UNL     1      -2.518   8.280  -5.125  0.00  0.00    -0.047 A 
ATOM     11  C   UNL     1      -1.239   8.218  -5.644  0.00  0.00    +0.004 A 
ATOM     12  C   UNL     1      -0.191   7.789  -4.851  0.00  0.00    +0.006 A 
ATOM     13  C   UNL     1      -0.423   7.423  -3.538  0.00  0.00    -0.015 A 
ATOM     14  C   UNL     1      -1.703   7.480  -3.021  0.00  0.00    +0.006 A 
ATOM     15  C   UNL     1      -2.750   7.913  -3.812  0.00  0.00    +0.004 A 
BRANCH  10  16
ATOM     16  C   UNL     1      -3.660   8.748  -5.990  0.00  0.00    +0.035 C 
BRANCH  16  18
ATOM     17  C   UNL     1      -5.444   8.023  -7.582  0.00  0.00    +0.004 C 
ATOM     18  C   UNL     1      -4.284   7.548  -6.704  0.00  0.00    +0.001 C 
ENDBRANCH  16  18
ENDBRANCH  10  16
ENDBRANCH   1  13
BRANCH   4  19
ATOM     19  C   UNL     1       0.717   3.583  -1.117  0.00  0.00    +0.213 C 
BRANCH  19  20
ATOM     20  C   UNL     1      -0.386   2.756  -1.726  0.00  0.00    +0.234 C 
ATOM     21  O   UNL     1      -0.973   3.158  -2.708  0.00  0.00    -0.274 OA
ATOM     22  N   UNL     1      -0.721   1.571  -1.179  0.00  0.00    -0.296 N 
BRANCH  22  23
ATOM     23  C   UNL     1      -0.013   1.086   0.008  0.00  0.00    +0.105 C 
ATOM     24  C   UNL     1      -0.729   1.579   1.267  0.00  0.00    +0.024 C 
ENDBRANCH  22  23
BRANCH  22  25
ATOM     25  C   UNL     1      -1.794   0.768  -1.771  0.00  0.00    +0.143 C 
BRANCH  25  26
ATOM     26  C   UNL     1      -3.110   1.145  -1.141  0.00  0.00    -0.026 A 
ATOM     27  C   UNL     1      -3.553   0.476  -0.015  0.00  0.00    +0.009 A 
ATOM     28  C   UNL     1      -4.757   0.822   0.569  0.00  0.00    +0.050 A 
ATOM     29  C   UNL     1      -5.529   1.833   0.021  0.00  0.00    +0.166 A 
ATOM     30  C   UNL     1      -5.085   2.503  -1.117  0.00  0.00    +0.167 A 
ATOM     31  C   UNL     1      -3.875   2.155  -1.694  0.00  0.00    +0.054 A 
ATOM     32  O   UNL     1      -6.014   3.444  -1.458  0.00  0.00    -0.453 OA
ATOM     33  C   UNL     1      -6.831   3.620  -0.286  0.00  0.00    +0.466 C 
ATOM     34  O   UNL     1      -6.734   2.354   0.392  0.00  0.00    -0.453 OA
ENDBRANCH  25  26
ENDBRANCH  22  25
ENDBRANCH  19  20
ENDBRANCH   4  19
TORSDOF 8
