REMARK  Name = ZINC36527655
REMARK  12 active torsions:
REMARK  status: ('A' for Active; 'I' for Inactive)
REMARK    1  A    between atoms: C_1  and  C_2
REMARK    2  A    between atoms: C_2  and  C_3
REMARK    3  A    between atoms: C_3  and  C_5
REMARK    4  A    between atoms: C_3  and  C_11
REMARK    5  A    between atoms: N_13  and  C_14
REMARK    6  A    between atoms: N_13  and  C_15
REMARK    7  A    between atoms: C_15  and  C_17
REMARK    8  A    between atoms: C_15  and  C_24
REMARK    9  A    between atoms: N_26  and  C_27
REMARK   10  A    between atoms: C_27  and  S_28
REMARK   11  A    between atoms: S_28  and  C_31
REMARK   12  A    between atoms: C_34  and  C_37
REMARK                            x       y       z     vdW  Elec       q    Type
REMARK                         _______ _______ _______ _____ _____    ______ ____
ROOT
ATOM      1  C   UNL     1      -2.905   1.520  -2.656  0.00  0.00    +0.192 C 
ENDROOT
BRANCH   1   2
ATOM      2  C   UNL     1      -1.984   2.075  -3.712  0.00  0.00    -0.018 A 
ATOM      3  C   UNL     1      -1.223   3.198  -3.444  0.00  0.00    +0.007 A 
ATOM      4  C   UNL     1      -0.378   3.708  -4.412  0.00  0.00    +0.020 A 
ATOM      5  C   UNL     1      -0.294   3.095  -5.649  0.00  0.00    +0.041 A 
ATOM      6  C   UNL     1      -1.055   1.971  -5.917  0.00  0.00    +0.020 A 
ATOM      7  C   UNL     1      -1.896   1.459  -4.946  0.00  0.00    +0.007 A 
ATOM      8 CL   UNL     1       0.767   3.735  -6.865  0.00  0.00    -0.084 Cl
ENDBRANCH   1   2
BRANCH   1  11
ATOM      9  C   UNL     1      -2.054   0.006  -0.947  0.00  0.00    +0.224 C 
ATOM     10  O   UNL     1      -2.671  -0.894  -1.476  0.00  0.00    -0.275 OA
ATOM     11  N   UNL     1      -2.143   1.260  -1.432  0.00  0.00    -0.288 N 
ATOM     12  C   UNL     1      -1.479   2.364  -0.734  0.00  0.00    +0.133 C 
BRANCH   9  13
ATOM     13  C   UNL     1      -1.188  -0.278   0.254  0.00  0.00    +0.105 C 
BRANCH  13  14
ATOM     14  C   UNL     1      -2.031  -0.237   1.502  0.00  0.00    -0.036 A 
ATOM     15  C   UNL     1      -3.093  -1.111   1.648  0.00  0.00    +0.004 A 
ATOM     16  C   UNL     1      -3.866  -1.073   2.793  0.00  0.00    +0.000 A 
ATOM     17  C   UNL     1      -3.577  -0.163   3.793  0.00  0.00    +0.000 A 
ATOM     18  C   UNL     1      -2.515   0.710   3.647  0.00  0.00    +0.000 A 
ATOM     19  C   UNL     1      -1.739   0.669   2.504  0.00  0.00    +0.004 A 
ENDBRANCH  13  14
BRANCH  13  21
ATOM     20  C   UNL     1       0.405  -1.665  -1.081  0.00  0.00    +0.005 C 
ATOM     21  C   UNL     1      -0.556  -1.664   0.110  0.00  0.00    +0.014 C 
ENDBRANCH  13  21
ENDBRANCH   9  13
ENDBRANCH   1  11
BRANCH   1  22
ATOM     22  C   UNL     1      -3.997   2.517  -2.367  0.00  0.00    +0.239 C 
ATOM     23  O   UNL     1      -4.127   2.967  -1.248  0.00  0.00    -0.273 OA
ATOM     24  N   UNL     1      -4.829   2.909  -3.352  0.00  0.00    -0.294 N 
ATOM     25  H   UNL     1      -4.725   2.549  -4.247  0.00  0.00    +0.150 HD
BRANCH  24  26
ATOM     26  C   UNL     1      -5.891   3.878  -3.071  0.00  0.00    +0.278 C 
BRANCH  26  27
ATOM     27  S   UNL     1      -5.312   5.546  -3.487  0.00  0.00    +0.013 S 
ATOM     28  O   UNL     1      -6.353   6.492  -3.279  0.00  0.00    -0.168 OA
ATOM     29  O   UNL     1      -4.017   5.764  -2.944  0.00  0.00    -0.168 OA
BRANCH  27  30
ATOM     30  C   UNL     1      -5.070   5.520  -5.232  0.00  0.00    +0.090 A 
ATOM     31  C   UNL     1      -3.845   5.152  -5.754  0.00  0.00    +0.027 A 
ATOM     32  C   UNL     1      -3.655   5.131  -7.123  0.00  0.00    +0.005 A 
ATOM     33  C   UNL     1      -4.691   5.478  -7.970  0.00  0.00    -0.050 A 
ATOM     34  C   UNL     1      -5.917   5.846  -7.448  0.00  0.00    +0.005 A 
ATOM     35  C   UNL     1      -6.108   5.862  -6.079  0.00  0.00    +0.027 A 
ATOM     36  C   UNL     1      -4.484   5.457  -9.463  0.00  0.00    +0.044 C 
ENDBRANCH  27  30
ENDBRANCH  26  27
ENDBRANCH  24  26
ENDBRANCH   1  22
TORSDOF 9
