REMARK  Name = ZINC21685541
REMARK  11 active torsions:
REMARK  status: ('A' for Active; 'I' for Inactive)
REMARK    1  A    between atoms: C_1  and  C_2
REMARK    2  A    between atoms: C_2  and  C_3
REMARK    3  A    between atoms: C_3  and  N_4
REMARK    4  A    between atoms: N_4  and  C_5
REMARK    5  A    between atoms: N_4  and  S_8
REMARK    6  A    between atoms: C_5  and  C_6
REMARK    7  A    between atoms: C_6  and  C_7
REMARK    8  A    between atoms: S_8  and  C_11
REMARK    9  A    between atoms: C_14  and  C_17
REMARK   10  A    between atoms: N_19  and  C_20
REMARK   11  A    between atoms: C_22  and  C_35
REMARK                            x       y       z     vdW  Elec       q    Type
REMARK                         _______ _______ _______ _____ _____    ______ ____
ROOT
ATOM      1  C   UNL     1       0.332   2.600   5.215  0.00  0.00    +0.249 C 
ATOM      2  O   UNL     1       1.284   2.246   4.546  0.00  0.00    -0.270 OA
ATOM      3  N   UNL     1      -0.900   2.632   4.668  0.00  0.00    -0.266 N 
ATOM      4  H   UNL     1      -1.762   2.951   5.273  0.00  0.00    +0.157 HD
ENDROOT
BRANCH   3   5
ATOM      5  C   UNL     1      -1.082   2.260   3.339  0.00  0.00    +0.131 A 
ATOM      6  C   UNL     1      -0.112   1.845   2.478  0.00  0.00    +0.068 A 
ATOM      7  C   UNL     1      -0.718   1.572   1.248  0.00  0.00    +0.062 A 
ATOM      8  N   UNL     1      -2.000   1.814   1.353  0.00  0.00    -0.168 NA
ATOM      9  N   UNL     1      -2.264   2.244   2.660  0.00  0.00    -0.194 N 
ATOM     10  C   UNL     1      -3.507   2.596   3.171  0.00  0.00    +0.197 A 
ATOM     11  N   UNL     1      -4.673   2.601   2.569  0.00  0.00    -0.218 NA
ATOM     12  C   UNL     1      -5.811   2.971   3.194  0.00  0.00    +0.116 A 
ATOM     13  C   UNL     1      -7.124   3.020   2.664  0.00  0.00    +0.150 A 
ATOM     14  C   UNL     1      -8.179   3.422   3.444  0.00  0.00    +0.040 A 
ATOM     15  C   UNL     1      -8.001   3.792   4.769  0.00  0.00    +0.004 A 
ATOM     16  C   UNL     1      -6.734   3.756   5.319  0.00  0.00    +0.017 A 
ATOM     17  C   UNL     1      -5.670   3.355   4.547  0.00  0.00    +0.044 A 
ATOM     18  S   UNL     1      -3.926   3.151   4.818  0.00  0.00    -0.048 S 
ATOM     19  F   UNL     1      -7.339   2.668   1.378  0.00  0.00    -0.203 F 
ATOM     20  C   UNL     1      -0.013   1.086   0.008  0.00  0.00    +0.067 C 
ENDBRANCH   3   5
BRANCH   1  24
ATOM     21  C   UNL     1       0.887   3.736   9.269  0.00  0.00    +0.106 A 
ATOM     22  C   UNL     1       1.973   3.333   8.512  0.00  0.00    +0.029 A 
ATOM     23  C   UNL     1       1.799   2.963   7.194  0.00  0.00    +0.015 A 
ATOM     24  C   UNL     1       0.525   2.995   6.626  0.00  0.00    +0.037 A 
ATOM     25  C   UNL     1      -0.565   3.407   7.394  0.00  0.00    +0.015 A 
ATOM     26  C   UNL     1      -0.379   3.769   8.712  0.00  0.00    +0.029 A 
BRANCH  21  27
ATOM     27  S   UNL     1       1.117   4.207  10.951  0.00  0.00    +0.061 S 
ATOM     28  O   UNL     1      -0.133   4.021  11.600  0.00  0.00    -0.153 OA
ATOM     29  O   UNL     1       2.307   3.568  11.393  0.00  0.00    -0.153 OA
BRANCH  27  30
ATOM     30  N   UNL     1       1.420   5.835  10.967  0.00  0.00    -0.177 NA
BRANCH  30  31
ATOM     31  C   UNL     1       0.311   6.785  11.079  0.00  0.00    +0.109 C 
BRANCH  31  33
ATOM     32  C   UNL     1      -1.036   8.170  12.663  0.00  0.00    +0.005 C 
ATOM     33  C   UNL     1       0.122   7.177  12.546  0.00  0.00    +0.014 C 
ENDBRANCH  31  33
ENDBRANCH  30  31
BRANCH  30  34
ATOM     34  C   UNL     1       2.798   6.324  10.868  0.00  0.00    +0.109 C 
BRANCH  34  35
ATOM     35  C   UNL     1       3.120   6.648   9.408  0.00  0.00    +0.014 C 
ATOM     36  C   UNL     1       4.559   7.159   9.304  0.00  0.00    +0.005 C 
ENDBRANCH  34  35
ENDBRANCH  30  34
ENDBRANCH  27  30
ENDBRANCH  21  27
ENDBRANCH   1  24
TORSDOF 8
