REMARK  Name = ZINC63362157
REMARK  9 active torsions:
REMARK  status: ('A' for Active; 'I' for Inactive)
REMARK    1  A    between atoms: C_1  and  C_2
REMARK    2  A    between atoms: C_2  and  C_3
REMARK    3  A    between atoms: C_3  and  C_4
REMARK    4  A    between atoms: C_4  and  C_5
REMARK    5  A    between atoms: C_8  and  N_11
REMARK    6  A    between atoms: C_12  and  C_14
REMARK    7  A    between atoms: C_14  and  C_16
REMARK    8  A    between atoms: C_14  and  N_17
REMARK    9  A    between atoms: C_20  and  C_36
REMARK                            x       y       z     vdW  Elec       q    Type
REMARK                         _______ _______ _______ _____ _____    ______ ____
ROOT
ATOM      1  N   UNL     1       2.661  -4.556   9.365  0.00  0.00    -0.212 N 
ATOM      2  C   UNL     1       2.743  -3.809  10.485  0.00  0.00    +0.249 C 
ATOM      3  O   UNL     1       3.593  -2.990  10.759  0.00  0.00    -0.273 OA
ATOM      4  C   UNL     1       1.553  -4.209  11.329  0.00  0.00    +0.136 C 
ATOM      5  C   UNL     1       2.009  -4.753  12.682  0.00  0.00    +0.139 C 
ATOM      6  C   UNL     1       1.703  -6.243  12.699  0.00  0.00    -0.034 C 
ATOM      7  C   UNL     1       2.854  -6.856  12.963  0.00  0.00    -0.001 A 
ATOM      8  C   UNL     1       3.179  -8.277  13.169  0.00  0.00    +0.010 A 
ATOM      9  C   UNL     1       4.485  -8.562  13.416  0.00  0.00    +0.001 A 
ATOM     10  C   UNL     1       5.487  -7.588  13.478  0.00  0.00    +0.002 A 
ATOM     11  C   UNL     1       5.277  -6.259  13.306  0.00  0.00    +0.026 A 
ATOM     12  C   UNL     1       3.941  -5.835  13.044  0.00  0.00    +0.043 A 
ATOM     13  N   UNL     1       3.457  -4.626  12.862  0.00  0.00    -0.375 N 
ATOM     14  C   UNL     1       0.344  -6.822  12.389  0.00  0.00    +0.052 C 
ATOM     15  C   UNL     1      -0.113  -6.205  11.052  0.00  0.00    +0.115 C 
ATOM     16  N   UNL     1       0.958  -5.328  10.570  0.00  0.00    -0.269 N 
ATOM     17  C   UNL     1       1.615  -5.392   9.403  0.00  0.00    +0.313 C 
ATOM     18  O   UNL     1       1.300  -6.127   8.488  0.00  0.00    -0.252 OA
ATOM     19  C   UNL     1       0.565  -3.050  11.483  0.00  0.00    +0.044 C 
ATOM     20  H   UNL     1       3.960  -3.798  12.844  0.00  0.00    +0.160 HD
ENDROOT
BRANCH   1  21
ATOM     21  C   UNL     1       3.597  -4.460   8.241  0.00  0.00    +0.168 C 
ATOM     22  C   UNL     1       4.274  -5.814   8.025  0.00  0.00    +0.038 C 
BRANCH  21  24
ATOM     23  N   UNL     1       3.507  -3.920   5.829  0.00  0.00    -0.284 N 
ATOM     24  C   UNL     1       2.846  -4.069   6.995  0.00  0.00    +0.238 C 
ATOM     25  O   UNL     1       1.648  -3.888   7.040  0.00  0.00    -0.273 OA
ATOM     26  H   UNL     1       4.450  -4.138   5.775  0.00  0.00    +0.155 HD
BRANCH  23  30
ATOM     27  C   UNL     1       1.497  -2.522   2.459  0.00  0.00    -0.047 A 
ATOM     28  C   UNL     1       1.135  -2.070   3.714  0.00  0.00    +0.005 A 
ATOM     29  C   UNL     1       1.800  -2.531   4.834  0.00  0.00    +0.023 A 
ATOM     30  C   UNL     1       2.831  -3.451   4.697  0.00  0.00    +0.033 A 
ATOM     31  C   UNL     1       3.192  -3.903   3.435  0.00  0.00    +0.023 A 
ATOM     32  C   UNL     1       2.520  -3.441   2.320  0.00  0.00    +0.005 A 
BRANCH  27  33
ATOM     33  C   UNL     1       0.770  -2.016   1.239  0.00  0.00    +0.035 C 
BRANCH  33  34
ATOM     34  C   UNL     1      -0.428  -2.922   0.947  0.00  0.00    +0.004 C 
BRANCH  34  36
ATOM     35  C   UNL     1      -2.364  -3.314  -0.583  0.00  0.00    +0.004 C 
ATOM     36  C   UNL     1      -1.166  -2.408  -0.290  0.00  0.00    -0.003 C 
ENDBRANCH  34  36
ENDBRANCH  33  34
ENDBRANCH  27  33
ENDBRANCH  23  30
ENDBRANCH  21  24
ENDBRANCH   1  21
TORSDOF 6
