REMARK  Name = ZINC12500912
REMARK  7 active torsions:
REMARK  status: ('A' for Active; 'I' for Inactive)
REMARK    1  A    between atoms: C_4  and  N_7
REMARK    2  A    between atoms: N_7  and  C_8
REMARK    3  A    between atoms: C_8  and  N_10
REMARK    4  A    between atoms: N_10  and  N_11
REMARK    5  A    between atoms: N_11  and  C_12
REMARK    6  A    between atoms: C_12  and  N_14
REMARK    7  A    between atoms: C_15  and  C_17
REMARK                            x       y       z     vdW  Elec       q    Type
REMARK                         _______ _______ _______ _____ _____    ______ ____
ROOT
ATOM      1  N   UNL     1       0.100  -2.718   0.190  0.00  0.00    -0.246 N 
ATOM      2  H   UNL     1       0.930  -2.222   0.111  0.00  0.00    +0.172 HD
ENDROOT
BRANCH   1   3
ATOM      3  N   UNL     1      -1.125  -2.038   0.205  0.00  0.00    -0.246 N 
ATOM      4  H   UNL     1      -1.954  -2.535   0.284  0.00  0.00    +0.172 HD
BRANCH   3   5
ATOM      5  C   UNL     1      -1.150  -0.694   0.111  0.00  0.00    +0.151 C 
ATOM      6  S   UNL     1      -2.647   0.137   0.130  0.00  0.00    -0.017 S 
BRANCH   5   7
ATOM      7  N   UNL     1       0.002  -0.004   0.002  0.00  0.00    -0.296 N 
ATOM      8  H   UNL     1       0.844  -0.477  -0.090  0.00  0.00    +0.154 HD
BRANCH   7  12
ATOM      9  C   UNL     1      -0.050   4.161   0.060  0.00  0.00    +0.000 A 
ATOM     10  C   UNL     1      -0.848   3.449   0.937  0.00  0.00    +0.002 A 
ATOM     11  C   UNL     1      -0.833   2.068   0.920  0.00  0.00    +0.023 A 
ATOM     12  C   UNL     1      -0.016   1.395   0.021  0.00  0.00    +0.033 A 
ATOM     13  C   UNL     1       0.788   2.113  -0.855  0.00  0.00    +0.023 A 
ATOM     14  C   UNL     1       0.764   3.494  -0.836  0.00  0.00    +0.002 A 
ENDBRANCH   7  12
ENDBRANCH   5   7
ENDBRANCH   3   5
ENDBRANCH   1   3
BRANCH   1  15
ATOM     15  C   UNL     1       0.126  -4.063   0.284  0.00  0.00    +0.153 C 
ATOM     16  S   UNL     1       1.623  -4.893   0.265  0.00  0.00    -0.017 S 
BRANCH  15  17
ATOM     17  N   UNL     1      -1.026  -4.753   0.393  0.00  0.00    -0.263 N 
ATOM     18  C   UNL     1      -1.000  -6.097   0.487  0.00  0.00    +0.251 C 
ATOM     19  O   UNL     1       0.062  -6.687   0.473  0.00  0.00    -0.270 OA
ATOM     20  H   UNL     1      -1.874  -4.282   0.403  0.00  0.00    +0.157 HD
BRANCH  18  21
ATOM     21  C   UNL     1      -2.264  -6.853   0.606  0.00  0.00    +0.051 A 
ATOM     22  C   UNL     1      -3.486  -6.179   0.628  0.00  0.00    +0.014 A 
ATOM     23  C   UNL     1      -4.662  -6.891   0.735  0.00  0.00    +0.001 A 
ATOM     24  C   UNL     1      -4.632  -8.272   0.831  0.00  0.00    +0.001 A 
ATOM     25  C   UNL     1      -3.426  -8.947   0.816  0.00  0.00    +0.016 A 
ATOM     26  C   UNL     1      -2.241  -8.247   0.704  0.00  0.00    +0.030 A 
ATOM     27 BR   UNL     1      -0.591  -9.172   0.684  0.00  0.00    -0.050 Br
ENDBRANCH  18  21
ENDBRANCH  15  17
ENDBRANCH   1  15
TORSDOF 7
