REMARK  Name = ZINC59387645
REMARK  8 active torsions:
REMARK  status: ('A' for Active; 'I' for Inactive)
REMARK    1  A    between atoms: C_3  and  C_6
REMARK    2  A    between atoms: N_15  and  C_16
REMARK    3  A    between atoms: C_16  and  C_17
REMARK    4  A    between atoms: N_19  and  C_20
REMARK    5  A    between atoms: C_20  and  C_21
REMARK    6  A    between atoms: C_24  and  O_27
REMARK    7  A    between atoms: O_27  and  C_28
REMARK    8  A    between atoms: C_28  and  C_29
REMARK                            x       y       z     vdW  Elec       q    Type
REMARK                         _______ _______ _______ _____ _____    ______ ____
ROOT
ATOM      1  C   UNL     1       4.833   0.219  -3.201  0.00  0.00    +0.197 C 
ATOM      2  O   UNL     1       5.694  -0.503  -2.745  0.00  0.00    -0.278 OA
ATOM      3  N   UNL     1       4.547   0.178  -4.518  0.00  0.00    -0.313 N 
ATOM      4  H   UNL     1       3.858   0.756  -4.883  0.00  0.00    +0.149 HD
ENDROOT
BRANCH   1   5
ATOM      5  C   UNL     1       4.082   1.161  -2.296  0.00  0.00    +0.020 C 
BRANCH   5  14
ATOM      6  C   UNL     1       3.761   1.845  -0.024  0.00  0.00    +0.002 C 
ATOM      7  C   UNL     1       4.343   1.770   1.384  0.00  0.00    -0.046 A 
ATOM      8  C   UNL     1       3.636   2.097   2.538  0.00  0.00    +0.010 A 
ATOM      9  C   UNL     1       4.233   1.997   3.749  0.00  0.00    +0.045 A 
ATOM     10  S   UNL     1       5.867   1.421   3.308  0.00  0.00    -0.101 S 
ATOM     11  C   UNL     1       5.631   1.359   1.555  0.00  0.00    -0.010 A 
ATOM     12  C   UNL     1       6.586   0.961   0.477  0.00  0.00    +0.024 C 
ATOM     13  C   UNL     1       5.987   1.418  -0.864  0.00  0.00    -0.072 C 
ATOM     14  N   UNL     1       4.575   1.015  -0.920  0.00  0.00    +0.393 N 
ATOM     15  H   UNL     1       4.496   0.049  -0.640  0.00  0.00    -0.080 HD
BRANCH   6  18
ATOM     16  C   UNL     1      -0.016   1.351   0.009  0.00  0.00    +0.008 A 
ATOM     17  C   UNL     1       1.183   2.038   0.002  0.00  0.00    +0.010 A 
ATOM     18  C   UNL     1       2.343   1.336  -0.013  0.00  0.00    -0.019 A 
ATOM     19  S   UNL     1       1.754  -0.349  -0.017  0.00  0.00    -0.103 S 
ATOM     20  C   UNL     1       0.002  -0.004   0.002  0.00  0.00    +0.045 A 
ENDBRANCH   6  18
ENDBRANCH   5  14
ENDBRANCH   1   5
BRANCH   3  21
ATOM     21  C   UNL     1       5.277  -0.737  -5.398  0.00  0.00    +0.139 C 
BRANCH  21  22
ATOM     22  C   UNL     1       4.771  -0.588  -6.809  0.00  0.00    -0.030 A 
ATOM     23  C   UNL     1       3.716  -1.365  -7.250  0.00  0.00    +0.009 A 
ATOM     24  C   UNL     1       3.250  -1.230  -8.544  0.00  0.00    +0.046 A 
ATOM     25  C   UNL     1       3.842  -0.314  -9.401  0.00  0.00    +0.121 A 
ATOM     26  C   UNL     1       4.900   0.466  -8.956  0.00  0.00    +0.046 A 
ATOM     27  C   UNL     1       5.359   0.331  -7.660  0.00  0.00    +0.009 A 
BRANCH  25  28
ATOM     28  O   UNL     1       3.386  -0.179 -10.674  0.00  0.00    -0.483 OA
BRANCH  28  29
ATOM     29  C   UNL     1       4.043   0.784 -11.500  0.00  0.00    +0.324 C 
BRANCH  29  30
ATOM     30  C   UNL     1       3.406   0.792 -12.866  0.00  0.00    +0.248 C 
ATOM     31  O   UNL     1       2.481   0.046 -13.108  0.00  0.00    -0.272 OA
ATOM     32  N   UNL     1       3.865   1.628 -13.819  0.00  0.00    -0.327 N 
ATOM     33  H   UNL     1       4.605   2.224 -13.625  0.00  0.00    +0.145 HD
ATOM     34  H   UNL     1       3.455   1.633 -14.698  0.00  0.00    +0.145 HD
ENDBRANCH  29  30
ENDBRANCH  28  29
ENDBRANCH  25  28
ENDBRANCH  21  22
ENDBRANCH   3  21
TORSDOF 8
