REMARK  Name = ZINC59776362
REMARK  9 active torsions:
REMARK  status: ('A' for Active; 'I' for Inactive)
REMARK    1  A    between atoms: C_2  and  C_3
REMARK    2  A    between atoms: C_3  and  N_4
REMARK    3  A    between atoms: C_5  and  C_30
REMARK    4  A    between atoms: C_8  and  S_9
REMARK    5  A    between atoms: S_9  and  C_10
REMARK    6  A    between atoms: C_10  and  C_11
REMARK    7  A    between atoms: N_13  and  C_14
REMARK    8  A    between atoms: C_17  and  S_20
REMARK    9  A    between atoms: S_20  and  N_23
REMARK                            x       y       z     vdW  Elec       q    Type
REMARK                         _______ _______ _______ _____ _____    ______ ____
ROOT
ATOM      1  C   UNL     1       1.024  -8.720  -1.068  0.00  0.00    +0.227 C 
ATOM      2  O   UNL     1       0.982  -9.914  -1.282  0.00  0.00    -0.275 OA
ATOM      3  N   UNL     1       1.745  -8.247  -0.032  0.00  0.00    -0.285 N 
ATOM      4  H   UNL     1       1.724  -7.301   0.182  0.00  0.00    +0.155 HD
ENDROOT
BRANCH   3   5
ATOM      5  C   UNL     1       2.524  -9.120   0.735  0.00  0.00    +0.034 A 
ATOM      6  C   UNL     1       2.684  -8.896   2.096  0.00  0.00    +0.025 A 
ATOM      7  C   UNL     1       3.454  -9.760   2.851  0.00  0.00    +0.030 A 
ATOM      8  C   UNL     1       4.064 -10.847   2.252  0.00  0.00    +0.106 A 
ATOM      9  C   UNL     1       3.907 -11.073   0.897  0.00  0.00    +0.030 A 
ATOM     10  C   UNL     1       3.133 -10.216   0.138  0.00  0.00    +0.025 A 
BRANCH   8  11
ATOM     11  S   UNL     1       5.045 -11.947   3.218  0.00  0.00    +0.061 S 
ATOM     12  O   UNL     1       5.952 -12.575   2.323  0.00  0.00    -0.153 OA
ATOM     13  O   UNL     1       5.482 -11.211   4.353  0.00  0.00    -0.153 OA
BRANCH  11  14
ATOM     14  N   UNL     1       4.038 -13.134   3.783  0.00  0.00    -0.177 NA
ATOM     15  C   UNL     1       3.373 -12.933   5.050  0.00  0.00    +0.109 C 
ATOM     16  C   UNL     1       4.265 -13.470   6.196  0.00  0.00    +0.017 C 
ATOM     17  C   UNL     1       4.303 -14.941   6.168  0.00  0.00    +0.001 C 
ATOM     18  C   UNL     1       4.919 -15.529   4.902  0.00  0.00    +0.001 C 
ATOM     19  C   UNL     1       3.861 -15.630   3.832  0.00  0.00    +0.017 C 
ATOM     20  C   UNL     1       3.853 -14.351   2.968  0.00  0.00    +0.109 C 
ENDBRANCH  11  14
ENDBRANCH   8  11
ENDBRANCH   3   5
BRANCH   1  21
ATOM     21  C   UNL     1       0.270  -7.767  -1.959  0.00  0.00    +0.173 C 
BRANCH  21  22
ATOM     22  S   UNL     1      -0.595  -8.703  -3.250  0.00  0.00    -0.077 S 
BRANCH  22  27
ATOM     23  N   UNL     1      -2.208  -7.672  -5.290  0.00  0.00    -0.298 N 
ATOM     24  C   UNL     1      -2.630  -6.423  -5.685  0.00  0.00    +0.165 A 
ATOM     25  N   UNL     1      -2.098  -5.556  -4.856  0.00  0.00    -0.128 NA
ATOM     26  N   UNL     1      -1.382  -6.168  -3.981  0.00  0.00    -0.122 NA
ATOM     27  C   UNL     1      -1.418  -7.464  -4.195  0.00  0.00    +0.193 A 
BRANCH  24  28
ATOM     28  C   UNL     1      -3.516  -6.117  -6.828  0.00  0.00    +0.019 A 
ATOM     29  C   UNL     1      -3.522  -4.837  -7.387  0.00  0.00    +0.011 A 
ATOM     30  C   UNL     1      -4.351  -4.558  -8.453  0.00  0.00    +0.001 A 
ATOM     31  C   UNL     1      -5.176  -5.542  -8.969  0.00  0.00    +0.000 A 
ATOM     32  C   UNL     1      -5.175  -6.811  -8.420  0.00  0.00    +0.001 A 
ATOM     33  C   UNL     1      -4.346  -7.106  -7.357  0.00  0.00    +0.011 A 
ENDBRANCH  24  28
BRANCH  23  34
ATOM     34  C   UNL     1      -2.542  -8.957  -5.909  0.00  0.00    +0.152 C 
BRANCH  34  36
ATOM     35  C   UNL     1      -4.752  -9.992  -5.834  0.00  0.00    +0.005 C 
ATOM     36  C   UNL     1      -3.697  -9.584  -5.173  0.00  0.00    -0.013 C 
ENDBRANCH  34  36
ENDBRANCH  23  34
ENDBRANCH  22  27
ENDBRANCH  21  22
ENDBRANCH   1  21
TORSDOF 9
