REMARK  Name = ZINC17142918
REMARK  4 active torsions:
REMARK  status: ('A' for Active; 'I' for Inactive)
REMARK    1  A    between atoms: N_7  and  C_8
REMARK    2  A    between atoms: C_12  and  O_19
REMARK    3  A    between atoms: C_14  and  C_17
REMARK    4  A    between atoms: C_17  and  O_18
REMARK                            x       y       z     vdW  Elec       q    Type
REMARK                         _______ _______ _______ _____ _____    ______ ____
ROOT
ATOM      1  C   UNL     1      -2.625   0.475   1.972  0.00  0.00    +0.111 A 
ATOM      2  C   UNL     1      -3.085  -0.570   2.701  0.00  0.00    +0.069 A 
ATOM      3  C   UNL     1      -2.176  -1.304   3.492  0.00  0.00    +0.136 A 
ATOM      4  N   UNL     1      -0.895  -0.960   3.508  0.00  0.00    -0.177 NA
ATOM      5  C   UNL     1      -0.457   0.067   2.781  0.00  0.00    +0.352 A 
ATOM      6  O   UNL     1       0.727   0.360   2.809  0.00  0.00    -0.244 OA
ATOM      7  N   UNL     1      -1.300   0.790   2.021  0.00  0.00    -0.269 N 
ATOM      8  N   UNL     1      -2.616  -2.369   4.242  0.00  0.00    -0.342 N 
ATOM      9  I   UNL     1      -5.114  -1.088   2.655  0.00  0.00    -0.039 I 
ATOM     10  H   UNL     1      -1.905  -2.939   4.858  0.00  0.00    +0.144 HD
ATOM     11  H   UNL     1      -3.679  -2.651   4.227  0.00  0.00    +0.144 HD
ENDROOT
BRANCH   7  12
ATOM     12  C   UNL     1      -0.789   1.917   1.237  0.00  0.00    +0.260 C 
ATOM     13  C   UNL     1      -0.091   1.397  -0.035  0.00  0.00    +0.246 C 
ATOM     14  C   UNL     1      -0.926   1.986  -1.198  0.00  0.00    +0.184 C 
ATOM     15  C   UNL     1      -2.277   2.300  -0.496  0.00  0.00    +0.178 C 
ATOM     16  O   UNL     1      -1.878   2.755   0.814  0.00  0.00    -0.345 OA
ATOM     17  F   UNL     1      -0.118  -0.001  -0.071  0.00  0.00    -0.238 F 
BRANCH  14  18
ATOM     18  O   UNL     1      -0.325   3.179  -1.705  0.00  0.00    -0.386 OA
ATOM     19  H   UNL     1      -0.797   3.721  -2.537  0.00  0.00    +0.210 HD
ENDBRANCH  14  18
BRANCH  15  20
ATOM     20  C   UNL     1      -3.031   3.401  -1.243  0.00  0.00    +0.190 C 
BRANCH  20  21
ATOM     21  O   UNL     1      -4.273   3.659  -0.584  0.00  0.00    -0.392 OA
ATOM     22  H   UNL     1      -4.957   4.424  -0.979  0.00  0.00    +0.210 HD
ENDBRANCH  20  21
ENDBRANCH  15  20
ENDBRANCH   7  12
TORSDOF 4
