REMARK  Name = ZINC43736977
REMARK  8 active torsions:
REMARK  status: ('A' for Active; 'I' for Inactive)
REMARK    1  A    between atoms: C_1  and  C_2
REMARK    2  A    between atoms: C_2  and  C_8
REMARK    3  A    between atoms: N_3  and  N_4
REMARK    4  A    between atoms: N_4  and  C_5
REMARK    5  A    between atoms: C_5  and  N_7
REMARK    6  A    between atoms: C_13  and  C_32
REMARK    7  A    between atoms: C_24  and  C_31
REMARK    8  A    between atoms: C_27  and  O_30
REMARK                            x       y       z     vdW  Elec       q    Type
REMARK                         _______ _______ _______ _____ _____    ______ ____
ROOT
ATOM      1  C   UNL     1      -0.000  -0.731  -1.272  0.00  0.00    -0.023 C 
ATOM      2  C   UNL     1      -0.013  -0.166  -2.483  0.00  0.00    -0.021 C 
ATOM      3  C   UNL     1      -0.009  -1.240  -3.556  0.00  0.00    +0.032 C 
ATOM      4  C   UNL     1       0.607  -2.473  -2.821  0.00  0.00    +0.006 C 
ATOM      5  C   UNL     1       0.019  -2.230  -1.420  0.00  0.00    -0.002 C 
ATOM      6  C   UNL     1       0.771  -2.933  -0.318  0.00  0.00    +0.012 C 
ATOM      7  C   UNL     1       2.268  -2.627  -0.374  0.00  0.00    +0.005 C 
ATOM      8  C   UNL     1       2.800  -3.083  -1.738  0.00  0.00    -0.001 C 
ATOM      9  C   UNL     1       2.122  -2.267  -2.836  0.00  0.00    -0.003 C 
ATOM     10  C   UNL     1       2.443  -0.787  -2.615  0.00  0.00    +0.004 C 
ATOM     11  C   UNL     1       3.957  -0.580  -2.681  0.00  0.00    +0.004 C 
ATOM     12  C   UNL     1       4.636  -1.419  -1.596  0.00  0.00    -0.002 C 
ATOM     13  C   UNL     1       4.315  -2.877  -1.783  0.00  0.00    -0.026 C 
ATOM     14  C   UNL     1       4.977  -3.726  -0.695  0.00  0.00    +0.010 C 
ATOM     15  C   UNL     1       6.493  -3.521  -0.741  0.00  0.00    +0.032 C 
ATOM     16  C   UNL     1       6.815  -2.045  -0.503  0.00  0.00    +0.115 C 
ATOM     17  C   UNL     1       6.150  -1.213  -1.664  0.00  0.00    +0.035 C 
ATOM     18  C   UNL     1       4.847  -3.299  -3.154  0.00  0.00    +0.012 C 
ATOM     19  C   UNL     1      -1.425  -2.737  -1.410  0.00  0.00    +0.016 C 
ENDROOT
BRANCH   1  21
ATOM     20  C   UNL     1      -0.018   1.503   0.010  0.00  0.00    +0.067 C 
ATOM     21  C   UNL     1       0.002  -0.004   0.002  0.00  0.00    +0.060 C 
ATOM     22  N   UNL     1       0.022  -0.660   1.124  0.00  0.00    -0.186 NA
BRANCH  22  23
ATOM     23  N   UNL     1       0.024   0.034   2.341  0.00  0.00    -0.218 N 
ATOM     24  H   UNL     1       0.011   1.004   2.346  0.00  0.00    +0.176 HD
BRANCH  23  25
ATOM     25  C   UNL     1       0.044  -0.646   3.505  0.00  0.00    +0.147 C 
ATOM     26  S   UNL     1       0.046   0.202   4.992  0.00  0.00    -0.017 S 
BRANCH  25  27
ATOM     27  N   UNL     1       0.062  -1.994   3.497  0.00  0.00    -0.339 N 
ATOM     28  H   UNL     1       0.061  -2.474   2.654  0.00  0.00    +0.144 HD
ATOM     29  H   UNL     1       0.077  -2.483   4.334  0.00  0.00    +0.144 HD
ENDBRANCH  25  27
ENDBRANCH  23  25
ENDBRANCH  22  23
ENDBRANCH   1  21
BRANCH  16  30
ATOM     30  O   UNL     1       6.321  -1.650   0.779  0.00  0.00    -0.392 OA
ATOM     31  H   UNL     1       6.699  -2.147   1.517  0.00  0.00    +0.210 HD
ENDBRANCH  16  30
TORSDOF 5
