REMARK  Name = ZINC34979430
REMARK  15 active torsions:
REMARK  status: ('A' for Active; 'I' for Inactive)
REMARK    1  A    between atoms: C_1  and  C_2
REMARK    2  A    between atoms: C_2  and  C_3
REMARK    3  A    between atoms: C_3  and  C_4
REMARK    4  A    between atoms: C_4  and  C_5
REMARK    5  A    between atoms: C_5  and  C_7
REMARK    6  A    between atoms: C_5  and  C_9
REMARK    7  A    between atoms: C_7  and  C_8
REMARK    8  A    between atoms: C_16  and  C_18
REMARK    9  A    between atoms: C_19  and  C_21
REMARK   10  A    between atoms: C_21  and  C_23
REMARK   11  A    between atoms: C_21  and  N_28
REMARK   12  A    between atoms: C_23  and  C_25
REMARK   13  A    between atoms: C_23  and  C_26
REMARK   14  A    between atoms: C_26  and  C_27
REMARK   15  A    between atoms: C_29  and  C_31
REMARK                            x       y       z     vdW  Elec       q    Type
REMARK                         _______ _______ _______ _____ _____    ______ ____
ROOT
ATOM      1  C   UNL     1       1.367  -4.192   2.514  0.00  0.00    +0.219 C 
ATOM      2  O   UNL     1       0.601  -4.838   1.830  0.00  0.00    -0.275 OA
ATOM      3  N   UNL     1       2.148  -4.813   3.420  0.00  0.00    -0.295 N 
ATOM      4  C   UNL     1       3.002  -4.035   4.329  0.00  0.00    +0.127 C 
ATOM      5  C   UNL     1       4.448  -4.524   4.180  0.00  0.00    +0.127 C 
ATOM      6  N   UNL     1       4.460  -5.990   4.278  0.00  0.00    -0.297 N 
ATOM      7  C   UNL     1       3.606  -6.768   3.370  0.00  0.00    +0.130 C 
ATOM      8  C   UNL     1       2.156  -6.279   3.522  0.00  0.00    +0.090 C 
ATOM      9  C   UNL     1       1.291  -6.876   2.410  0.00  0.00    +0.029 C 
ATOM     10  C   UNL     1       5.241  -6.611   5.185  0.00  0.00    +0.236 C 
ATOM     11  O   UNL     1       5.313  -7.821   5.197  0.00  0.00    -0.274 OA
ENDROOT
BRANCH   1  12
ATOM     12  C   UNL     1       1.444  -2.696   2.350  0.00  0.00    +0.075 C 
BRANCH  12  13
ATOM     13  C   UNL     1       2.828  -2.312   1.821  0.00  0.00    +0.009 C 
ATOM     14  C   UNL     1       3.025  -2.911   0.427  0.00  0.00    +0.004 C 
ENDBRANCH  12  13
BRANCH  12  15
ATOM     15  C   UNL     1       0.373  -2.235   1.360  0.00  0.00    +0.013 C 
BRANCH  15  16
ATOM     16  C   UNL     1       0.369  -0.707   1.289  0.00  0.00    +0.000 C 
BRANCH  16  18
ATOM     17  C   UNL     1      -0.630   1.279   0.149  0.00  0.00    +0.004 C 
ATOM     18  C   UNL     1      -0.625  -0.249   0.220  0.00  0.00    -0.003 C 
ENDBRANCH  16  18
ENDBRANCH  15  16
ENDBRANCH  12  15
ENDBRANCH   1  12
BRANCH  10  19
ATOM     19  C   UNL     1       6.026  -5.800   6.184  0.00  0.00    +0.162 C 
BRANCH  19  20
ATOM     20  N   UNL     1       7.168  -6.585   6.661  0.00  0.00    -0.300 N 
ATOM     21  C   UNL     1       8.263  -5.960   7.137  0.00  0.00    +0.245 C 
ATOM     22  O   UNL     1       8.304  -4.746   7.170  0.00  0.00    -0.270 OA
ATOM     23  H   UNL     1       7.135  -7.554   6.634  0.00  0.00    +0.150 HD
BRANCH  21  24
ATOM     24  C   UNL     1       9.413  -6.751   7.617  0.00  0.00    +0.040 A 
ATOM     25  C   UNL     1       9.370  -8.147   7.574  0.00  0.00    +0.017 A 
ATOM     26  C   UNL     1      10.445  -8.883   8.021  0.00  0.00    +0.050 A 
ATOM     27  C   UNL     1      11.573  -8.243   8.518  0.00  0.00    +0.166 A 
ATOM     28  C   UNL     1      11.622  -6.849   8.564  0.00  0.00    +0.167 A 
ATOM     29  C   UNL     1      10.550  -6.106   8.111  0.00  0.00    +0.062 A 
ATOM     30  O   UNL     1      12.825  -6.473   9.088  0.00  0.00    -0.453 OA
ATOM     31  C   UNL     1      13.345  -7.648   9.738  0.00  0.00    +0.466 C 
ATOM     32  O   UNL     1      12.745  -8.736   9.011  0.00  0.00    -0.453 OA
ENDBRANCH  21  24
ENDBRANCH  19  20
BRANCH  19  33
ATOM     33  C   UNL     1       5.126  -5.439   7.367  0.00  0.00    +0.015 C 
ATOM     34  C   UNL     1       4.760  -6.709   8.136  0.00  0.00    +0.010 C 
BRANCH  33  35
ATOM     35  C   UNL     1       5.867  -4.476   8.296  0.00  0.00    +0.002 C 
ATOM     36  C   UNL     1       6.103  -3.148   7.573  0.00  0.00    +0.004 C 
ENDBRANCH  33  35
ENDBRANCH  19  33
ENDBRANCH  10  19
TORSDOF 10
