REMARK  Name = ZINC26771068
REMARK  7 active torsions:
REMARK  status: ('A' for Active; 'I' for Inactive)
REMARK    1  A    between atoms: C_3  and  S_28
REMARK    2  A    between atoms: C_6  and  C_7
REMARK    3  A    between atoms: C_7  and  C_8
REMARK    4  A    between atoms: C_8  and  N_9
REMARK    5  A    between atoms: N_12  and  C_13
REMARK    6  A    between atoms: C_13  and  C_24
REMARK    7  A    between atoms: S_28  and  N_31
REMARK                            x       y       z     vdW  Elec       q    Type
REMARK                         _______ _______ _______ _____ _____    ______ ____
ROOT
ATOM      1  N   UNL     1      -0.067   1.120  -2.437  0.00  0.00    -0.299 N 
ATOM      2  C   UNL     1      -0.543   1.446  -3.655  0.00  0.00    +0.305 C 
ATOM      3  O   UNL     1      -1.542   2.132  -3.753  0.00  0.00    -0.253 OA
ATOM      4  N   UNL     1       0.087   1.011  -4.764  0.00  0.00    -0.220 N 
ATOM      5  H   UNL     1       0.837   0.499  -2.348  0.00  0.00    +0.150 HD
ATOM      6  H   UNL     1       0.991   0.391  -4.675  0.00  0.00    +0.158 HD
ENDROOT
BRANCH   4   7
ATOM      7  C   UNL     1      -0.431   1.366  -6.087  0.00  0.00    +0.436 C 
ATOM      8  O   UNL     1      -0.511   2.796  -6.233  0.00  0.00    -0.426 OA
ATOM      9  C   UNL     1      -1.774   3.130  -5.825  0.00  0.00    +0.170 A 
ATOM     10  C   UNL     1      -2.325   4.344  -5.449  0.00  0.00    +0.071 A 
ATOM     11  C   UNL     1      -3.655   4.414  -5.073  0.00  0.00    +0.063 A 
ATOM     12  C   UNL     1      -4.437   3.272  -5.073  0.00  0.00    +0.063 A 
ATOM     13  C   UNL     1      -3.892   2.057  -5.448  0.00  0.00    +0.071 A 
ATOM     14  C   UNL     1      -2.561   1.981  -5.825  0.00  0.00    +0.170 A 
ATOM     15  O   UNL     1      -1.794   0.927  -6.231  0.00  0.00    -0.426 OA
ATOM     16 CL   UNL     1      -6.106   3.364  -4.601  0.00  0.00    -0.082 Cl
ATOM     17 CL   UNL     1      -4.343   5.936  -4.603  0.00  0.00    -0.082 Cl
BRANCH   7  18
ATOM     18  C   UNL     1       0.447   0.762  -7.186  0.00  0.00    +0.490 C 
ATOM     19  F   UNL     1       0.458  -0.632  -7.060  0.00  0.00    -0.162 F 
ATOM     20  F   UNL     1      -0.067   1.113  -8.439  0.00  0.00    -0.162 F 
ATOM     21  F   UNL     1       1.752   1.251  -7.062  0.00  0.00    -0.162 F 
ENDBRANCH   7  18
ENDBRANCH   4   7
BRANCH   1  22
ATOM     22  C   UNL     1      -0.753   1.593  -1.232  0.00  0.00    +0.110 C 
BRANCH  22  23
ATOM     23  C   UNL     1      -0.013   1.086   0.008  0.00  0.00    +0.054 C 
BRANCH  23  29
ATOM     24  C   UNL     1      -0.360   2.779   1.819  0.00  0.00    +0.005 A 
ATOM     25  C   UNL     1      -1.010   3.227   2.953  0.00  0.00    +0.029 A 
ATOM     26  C   UNL     1      -2.012   2.463   3.523  0.00  0.00    +0.105 A 
ATOM     27  C   UNL     1      -2.366   1.254   2.955  0.00  0.00    +0.029 A 
ATOM     28  C   UNL     1      -1.719   0.808   1.818  0.00  0.00    +0.005 A 
ATOM     29  C   UNL     1      -0.718   1.572   1.248  0.00  0.00    -0.046 A 
BRANCH  26  30
ATOM     30  S   UNL     1      -2.837   3.032   4.972  0.00  0.00    +0.056 S 
ATOM     31  O   UNL     1      -2.695   4.446   4.992  0.00  0.00    -0.153 OA
ATOM     32  O   UNL     1      -4.107   2.394   4.993  0.00  0.00    -0.153 OA
BRANCH  30  33
ATOM     33  N   UNL     1      -1.995   2.453   6.274  0.00  0.00    -0.204 NA
ATOM     34  H   UNL     1      -2.480   2.788   7.203  0.00  0.00    +0.144 HD
ATOM     35  H   UNL     1      -0.963   2.834   6.242  0.00  0.00    +0.144 HD
ENDBRANCH  30  33
ENDBRANCH  26  30
ENDBRANCH  23  29
ENDBRANCH  22  23
ENDBRANCH   1  22
TORSDOF 7
