REMARK  Name = ZINC36498141
REMARK  14 active torsions:
REMARK  status: ('A' for Active; 'I' for Inactive)
REMARK    1  A    between atoms: C_1  and  C_2
REMARK    2  A    between atoms: C_2  and  C_3
REMARK    3  A    between atoms: C_3  and  C_4
REMARK    4  A    between atoms: C_4  and  N_5
REMARK    5  A    between atoms: C_6  and  C_8
REMARK    6  A    between atoms: C_8  and  C_10
REMARK    7  A    between atoms: C_8  and  N_22
REMARK    8  A    between atoms: C_19  and  O_20
REMARK    9  A    between atoms: O_20  and  C_21
REMARK   10  A    between atoms: N_22  and  C_23
REMARK   11  A    between atoms: C_23  and  C_24
REMARK   12  A    between atoms: C_29  and  C_31
REMARK   13  A    between atoms: C_34  and  O_37
REMARK   14  A    between atoms: O_37  and  C_38
REMARK                            x       y       z     vdW  Elec       q    Type
REMARK                         _______ _______ _______ _____ _____    ______ ____
ROOT
ATOM      1  C   UNL     1      -4.733  -4.485  -0.024  0.00  0.00    +0.197 C 
ENDROOT
BRANCH   1   2
ATOM      2  C   UNL     1      -5.285  -4.031  -1.351  0.00  0.00    +0.031 A 
ATOM      3  C   UNL     1      -6.440  -3.233  -1.399  0.00  0.00    -0.009 A 
ATOM      4  C   UNL     1      -7.105  -2.842  -0.225  0.00  0.00    +0.009 A 
ATOM      5  C   UNL     1      -8.222  -2.068  -0.309  0.00  0.00    +0.001 A 
ATOM      6  C   UNL     1      -8.718  -1.657  -1.545  0.00  0.00    +0.001 A 
ATOM      7  C   UNL     1      -8.101  -2.017  -2.703  0.00  0.00    +0.008 A 
ATOM      8  C   UNL     1      -6.945  -2.815  -2.656  0.00  0.00    -0.017 A 
ATOM      9  C   UNL     1      -6.280  -3.205  -3.832  0.00  0.00    +0.012 A 
ATOM     10  C   UNL     1      -5.164  -3.978  -3.751  0.00  0.00    +0.046 A 
ATOM     11  C   UNL     1      -4.662  -4.388  -2.512  0.00  0.00    +0.126 A 
BRANCH  11  12
ATOM     12  O   UNL     1      -3.541  -5.155  -2.463  0.00  0.00    -0.495 OA
ATOM     13  C   UNL     1      -2.989  -5.577  -3.712  0.00  0.00    +0.277 C 
ENDBRANCH  11  12
ENDBRANCH   1   2
BRANCH   1  15
ATOM     14  N   UNL     1      -3.600  -2.465   0.843  0.00  0.00    -0.313 N 
ATOM     15  C   UNL     1      -3.492  -3.695   0.301  0.00  0.00    +0.238 C 
ATOM     16  O   UNL     1      -2.397  -4.164   0.076  0.00  0.00    -0.273 OA
ATOM     17  H   UNL     1      -4.475  -2.089   1.023  0.00  0.00    +0.149 HD
BRANCH  14  18
ATOM     18  C   UNL     1      -2.393  -1.696   1.159  0.00  0.00    +0.104 C 
BRANCH  18  19
ATOM     19  C   UNL     1      -2.792  -0.346   1.759  0.00  0.00    +0.018 C 
BRANCH  19  21
ATOM     20  C   UNL     1      -1.930   1.807   2.689  0.00  0.00    +0.004 C 
ATOM     21  C   UNL     1      -1.532   0.457   2.089  0.00  0.00    -0.002 C 
ENDBRANCH  19  21
ENDBRANCH  18  19
ENDBRANCH  14  18
ENDBRANCH   1  15
BRANCH   1  22
ATOM     22  N   UNL     1      -4.399  -5.910  -0.096  0.00  0.00    -0.274 N 
ATOM     23  C   UNL     1      -3.505  -6.437   0.764  0.00  0.00    +0.248 C 
ATOM     24  O   UNL     1      -3.126  -7.583   0.620  0.00  0.00    -0.270 OA
BRANCH  23  25
ATOM     25  C   UNL     1      -2.986  -5.622   1.880  0.00  0.00    +0.037 A 
ATOM     26  C   UNL     1      -3.662  -4.465   2.277  0.00  0.00    +0.016 A 
ATOM     27  C   UNL     1      -3.175  -3.709   3.319  0.00  0.00    +0.046 A 
ATOM     28  C   UNL     1      -2.012  -4.094   3.976  0.00  0.00    +0.120 A 
ATOM     29  C   UNL     1      -1.337  -5.244   3.585  0.00  0.00    +0.046 A 
ATOM     30  C   UNL     1      -1.821  -6.010   2.547  0.00  0.00    +0.016 A 
BRANCH  28  31
ATOM     31  O   UNL     1      -1.535  -3.345   5.002  0.00  0.00    -0.495 OA
ATOM     32  C   UNL     1      -0.336  -3.798   5.633  0.00  0.00    +0.277 C 
ENDBRANCH  28  31
ENDBRANCH  23  25
BRANCH  22  33
ATOM     33  C   UNL     1      -5.038  -6.762  -1.102  0.00  0.00    +0.183 C 
BRANCH  33  34
ATOM     34  C   UNL     1      -6.423  -7.133  -0.641  0.00  0.00    +0.122 A 
ATOM     35  C   UNL     1      -7.558  -6.485  -0.957  0.00  0.00    +0.046 A 
ATOM     36  C   UNL     1      -8.614  -7.169  -0.313  0.00  0.00    +0.041 A 
ATOM     37  C   UNL     1      -8.062  -8.195   0.359  0.00  0.00    +0.195 A 
ATOM     38  O   UNL     1      -6.735  -8.172   0.152  0.00  0.00    -0.466 OA
ENDBRANCH  33  34
ENDBRANCH  22  33
ENDBRANCH   1  22
TORSDOF 11
