REMARK  Name = ZINC21162451
REMARK  5 active torsions:
REMARK  status: ('A' for Active; 'I' for Inactive)
REMARK    1  A    between atoms: C_5  and  C_7
REMARK    2  A    between atoms: C_7  and  N_8
REMARK    3  A    between atoms: C_20  and  C_23
REMARK    4  A    between atoms: N_25  and  C_26
REMARK    5  A    between atoms: C_26  and  C_27
REMARK                            x       y       z     vdW  Elec       q    Type
REMARK                         _______ _______ _______ _____ _____    ______ ____
ROOT
ATOM      1  N   UNL     1       1.603   4.410  -0.981  0.00  0.00    -0.309 N 
ATOM      2  C   UNL     1       0.989   3.268  -0.496  0.00  0.00    +0.068 A 
ATOM      3  C   UNL     1       0.892   1.961  -0.950  0.00  0.00    +0.028 A 
ATOM      4  C   UNL     1       0.188   1.029  -0.216  0.00  0.00    +0.002 A 
ATOM      5  C   UNL     1      -0.429   1.391   0.973  0.00  0.00    +0.002 A 
ATOM      6  C   UNL     1      -0.338   2.683   1.442  0.00  0.00    +0.028 A 
ATOM      7  C   UNL     1       0.371   3.638   0.710  0.00  0.00    +0.065 A 
ATOM      8  N   UNL     1       0.629   4.959   0.902  0.00  0.00    -0.327 N 
ATOM      9  C   UNL     1       1.353   5.414  -0.090  0.00  0.00    +0.177 A 
ATOM     10  N   UNL     1       1.797   6.714  -0.215  0.00  0.00    -0.302 N 
ATOM     11  C   UNL     1       2.775   7.039   0.831  0.00  0.00    +0.108 C 
ATOM     12  C   UNL     1       3.352   8.433   0.575  0.00  0.00    +0.032 C 
ATOM     13  C   UNL     1       2.216   9.459   0.577  0.00  0.00    +0.078 C 
ATOM     14  C   UNL     1       1.186   9.070  -0.488  0.00  0.00    +0.032 C 
ATOM     15  C   UNL     1       0.672   7.658  -0.202  0.00  0.00    +0.108 C 
ATOM     16  H   UNL     1       0.240   5.471   1.794  0.00  0.00    +0.169 HD
ENDROOT
BRANCH  13  17
ATOM     17  C   UNL     1       2.770  10.826   0.267  0.00  0.00    +0.216 C 
ATOM     18  O   UNL     1       2.381  11.430  -0.710  0.00  0.00    -0.276 OA
ATOM     19  N   UNL     1       3.698  11.376   1.075  0.00  0.00    -0.311 N 
ATOM     20  H   UNL     1       4.051  10.827   1.960  0.00  0.00    +0.149 HD
BRANCH  19  21
ATOM     21  C   UNL     1       4.237  12.704   0.773  0.00  0.00    +0.139 C 
BRANCH  21  22
ATOM     22  C   UNL     1       5.249  13.086   1.822  0.00  0.00    -0.030 A 
ATOM     23  C   UNL     1       4.847  13.766   2.956  0.00  0.00    +0.006 A 
ATOM     24  C   UNL     1       5.774  14.111   3.921  0.00  0.00    +0.020 A 
ATOM     25  C   UNL     1       7.108  13.785   3.746  0.00  0.00    +0.041 A 
ATOM     26  C   UNL     1       7.511  13.109   2.608  0.00  0.00    +0.020 A 
ATOM     27  C   UNL     1       6.581  12.760   1.647  0.00  0.00    +0.006 A 
ATOM     28 CL   UNL     1       8.274  14.224   4.954  0.00  0.00    -0.084 Cl
ENDBRANCH  21  22
ENDBRANCH  19  21
ENDBRANCH  13  17
BRANCH   1  29
ATOM     29  C   UNL     1       2.377   4.521  -2.220  0.00  0.00    +0.163 C 
BRANCH  29  34
ATOM     30  C   UNL     1       0.711   6.831  -4.698  0.00  0.00    +0.000 A 
ATOM     31  C   UNL     1      -0.145   5.965  -5.353  0.00  0.00    +0.003 A 
ATOM     32  C   UNL     1      -0.185   4.631  -4.995  0.00  0.00    +0.039 A 
ATOM     33  C   UNL     1       0.635   4.161  -3.982  0.00  0.00    +0.128 A 
ATOM     34  C   UNL     1       1.488   5.030  -3.324  0.00  0.00    +0.007 A 
ATOM     35  C   UNL     1       1.527   6.364  -3.685  0.00  0.00    +0.008 A 
ATOM     36  F   UNL     1       0.600   2.856  -3.635  0.00  0.00    -0.205 F 
ENDBRANCH  29  34
ENDBRANCH   1  29
TORSDOF 5
