REMARK  Name = ZINC35174924
REMARK  10 active torsions:
REMARK  status: ('A' for Active; 'I' for Inactive)
REMARK    1  A    between atoms: C_1  and  C_2
REMARK    2  A    between atoms: C_9  and  C_11
REMARK    3  A    between atoms: C_16  and  C_18
REMARK    4  A    between atoms: C_18  and  C_19
REMARK    5  A    between atoms: C_19  and  C_20
REMARK    6  A    between atoms: C_20  and  C_21
REMARK    7  A    between atoms: C_21  and  S_22
REMARK    8  A    between atoms: S_22  and  C_23
REMARK    9  A    between atoms: C_26  and  C_34
REMARK   10  A    between atoms: N_27  and  C_28
REMARK                            x       y       z     vdW  Elec       q    Type
REMARK                         _______ _______ _______ _____ _____    ______ ____
ROOT
ATOM      1  C   UNL     1       0.205  -6.521  -2.988  0.00  0.00    +0.012 C 
ENDROOT
BRANCH   1   2
ATOM      2  C   UNL     1      -0.074  -5.022  -3.116  0.00  0.00    +0.010 C 
BRANCH   2   3
ATOM      3  C   UNL     1       0.621  -4.275  -1.976  0.00  0.00    +0.096 C 
BRANCH   3  13
ATOM      4  C   UNL     1      -0.038   1.524   0.023  0.00  0.00    +0.029 C 
ATOM      5  C   UNL     1      -0.008  -0.005   0.009  0.00  0.00    +0.090 C 
ATOM      6  C   UNL     1       0.601  -0.496  -1.311  0.00  0.00    +0.130 C 
ATOM      7  N   UNL     1       0.860  -1.938  -1.201  0.00  0.00    -0.298 N 
ATOM      8  C   UNL     1       1.691  -2.425  -0.091  0.00  0.00    +0.127 C 
ATOM      9  C   UNL     1       1.083  -1.935   1.229  0.00  0.00    +0.127 C 
ATOM     10  N   UNL     1       0.820  -0.492   1.121  0.00  0.00    -0.295 N 
ATOM     11  C   UNL     1       1.333   0.368   2.023  0.00  0.00    +0.219 C 
ATOM     12  O   UNL     1       1.046   1.545   1.968  0.00  0.00    -0.275 OA
ATOM     13  C   UNL     1       0.346  -2.799  -2.102  0.00  0.00    +0.216 C 
ATOM     14  O   UNL     1      -0.338  -2.385  -3.013  0.00  0.00    -0.276 OA
BRANCH  11  15
ATOM     15  C   UNL     1       2.261  -0.133   3.099  0.00  0.00    +0.075 C 
ATOM     16  C   UNL     1       1.522  -1.133   4.012  0.00  0.00    +0.013 C 
ATOM     17  C   UNL     1       2.078  -0.838   5.427  0.00  0.00    +0.001 C 
ATOM     18  C   UNL     1       2.222   0.705   5.423  0.00  0.00    +0.001 C 
ATOM     19  C   UNL     1       2.707   1.036   3.996  0.00  0.00    +0.013 C 
ENDBRANCH  11  15
ENDBRANCH   3  13
ENDBRANCH   2   3
ENDBRANCH   1   2
BRANCH   1  20
ATOM     20  C   UNL     1      -0.489  -7.269  -4.128  0.00  0.00    +0.077 C 
BRANCH  20  21
ATOM     21  S   UNL     1      -0.158  -9.046  -3.976  0.00  0.00    -0.086 S 
BRANCH  21  22
ATOM     22  C   UNL     1      -1.014  -9.757  -5.343  0.00  0.00    +0.196 A 
ATOM     23  N   UNL     1      -1.715  -9.109  -6.246  0.00  0.00    -0.122 NA
ATOM     24  N   UNL     1      -2.205  -9.934  -7.101  0.00  0.00    -0.128 NA
ATOM     25  C   UNL     1      -1.848 -11.161  -6.798  0.00  0.00    +0.169 A 
ATOM     26  N   UNL     1      -1.068 -11.085  -5.664  0.00  0.00    -0.270 N 
BRANCH  26  27
ATOM     27  C   UNL     1      -0.460 -12.148  -4.982  0.00  0.00    +0.051 A 
ATOM     28  C   UNL     1       0.544 -12.885  -5.595  0.00  0.00    +0.026 A 
ATOM     29  C   UNL     1       1.141 -13.932  -4.920  0.00  0.00    +0.002 A 
ATOM     30  C   UNL     1       0.740 -14.246  -3.634  0.00  0.00    +0.000 A 
ATOM     31  C   UNL     1      -0.261 -13.514  -3.021  0.00  0.00    +0.002 A 
ATOM     32  C   UNL     1      -0.857 -12.462  -3.689  0.00  0.00    +0.026 A 
ENDBRANCH  26  27
BRANCH  25  33
ATOM     33  C   UNL     1      -2.209 -12.389  -7.536  0.00  0.00    +0.020 A 
ATOM     34  C   UNL     1      -2.037 -13.640  -6.942  0.00  0.00    +0.011 A 
ATOM     35  C   UNL     1      -2.376 -14.783  -7.636  0.00  0.00    +0.001 A 
ATOM     36  C   UNL     1      -2.886 -14.691  -8.919  0.00  0.00    +0.000 A 
ATOM     37  C   UNL     1      -3.059 -13.454  -9.514  0.00  0.00    +0.001 A 
ATOM     38  C   UNL     1      -2.729 -12.303  -8.829  0.00  0.00    +0.011 A 
ENDBRANCH  25  33
ENDBRANCH  21  22
ENDBRANCH  20  21
ENDBRANCH   1  20
TORSDOF 9
