REMARK  Name = ZINC36257402
REMARK  2 active torsions:
REMARK  status: ('A' for Active; 'I' for Inactive)
REMARK    1  A    between atoms: C_2  and  C_10
REMARK    2  A    between atoms: N_12  and  C_13
REMARK                            x       y       z     vdW  Elec       q    Type
REMARK                         _______ _______ _______ _____ _____    ______ ____
ROOT
ATOM      1  C   UNL     1       1.207   3.571   0.009  0.00  0.00    +0.263 C 
ATOM      2  O   UNL     1       0.163   4.193   0.022  0.00  0.00    -0.269 OA
ATOM      3  N   UNL     1       2.383   4.229   0.002  0.00  0.00    -0.307 N 
ATOM      4  H   UNL     1       3.216   3.733  -0.009  0.00  0.00    +0.149 HD
ENDROOT
BRANCH   3   5
ATOM      5  C   UNL     1       2.403   5.694   0.009  0.00  0.00    +0.070 C 
ATOM      6  C   UNL     1       2.302   6.201   1.450  0.00  0.00    +0.003 C 
ATOM      7  C   UNL     1       2.362   7.729   1.459  0.00  0.00    -0.080 C 
ATOM      8  N   UNL     1       3.649   8.176   0.909  0.00  0.00    +0.383 N 
ATOM      9  C   UNL     1       3.782   7.713  -0.474  0.00  0.00    -0.067 C 
ATOM     10  C   UNL     1       3.715   6.192  -0.607  0.00  0.00    +0.010 C 
ATOM     11  C   UNL     1       2.864   8.450  -1.458  0.00  0.00    -0.012 C 
ATOM     12  C   UNL     1       4.006   9.464  -1.638  0.00  0.00    -0.003 C 
ATOM     13  C   UNL     1       4.968   8.339  -1.219  0.00  0.00    -0.012 C 
ATOM     14  H   UNL     1       3.691   9.184   0.931  0.00  0.00    -0.085 HD
ATOM     15  H   UNL     1       4.401   7.797   1.465  0.00  0.00    -0.085 HD
ENDBRANCH   3   5
BRANCH   1  17
ATOM     16  C   UNL     1      -0.017   1.408   0.010  0.00  0.00    +0.103 A 
ATOM     17  C   UNL     1       1.187   2.085   0.002  0.00  0.00    +0.136 A 
ATOM     18  N   UNL     1       2.336   1.397  -0.013  0.00  0.00    -0.188 NA
ATOM     19  C   UNL     1       2.347   0.084  -0.020  0.00  0.00    +0.349 A 
ATOM     20  O   UNL     1       3.529  -0.566  -0.035  0.00  0.00    -0.245 OA
ATOM     21  N   UNL     1       1.195  -0.636  -0.012  0.00  0.00    -0.274 N 
ATOM     22  H   UNL     1       1.229  -1.605  -0.018  0.00  0.00    +0.173 HD
ATOM     23  C   UNL     1       0.002  -0.004   0.002  0.00  0.00    +0.255 A 
ATOM     24  O   UNL     1      -1.038  -0.640   0.009  0.00  0.00    -0.268 OA
ENDBRANCH   1  17
TORSDOF 2
