REMARK  Name = ZINC39394257
REMARK  4 active torsions:
REMARK  status: ('A' for Active; 'I' for Inactive)
REMARK    1  A    between atoms: C_1  and  N_2
REMARK    2  A    between atoms: N_2  and  C_3
REMARK    3  A    between atoms: C_4  and  C_6
REMARK    4  A    between atoms: C_10  and  C_13
REMARK                            x       y       z     vdW  Elec       q    Type
REMARK                         _______ _______ _______ _____ _____    ______ ____
ROOT
ATOM      1  C   UNL     1       0.021  -2.178  -1.177  0.00  0.00    +0.205 C 
ATOM      2  C   UNL     1      -1.295  -2.737  -0.591  0.00  0.00    +0.044 C 
ATOM      3  C   UNL     1      -1.588  -3.987  -1.452  0.00  0.00    +0.039 C 
ATOM      4  C   UNL     1      -0.415  -4.035  -2.456  0.00  0.00    +0.149 C 
ATOM      5  O   UNL     1       0.063  -2.673  -2.533  0.00  0.00    -0.360 OA
ENDROOT
BRANCH   4   6
ATOM      6  C   UNL     1      -0.898  -4.502  -3.804  0.00  0.00    -0.019 C 
ATOM      7  C   UNL     1      -0.457  -5.693  -4.313  0.00  0.00    +0.012 C 
ATOM      8  C   UNL     1      -1.017  -6.058  -5.550  0.00  0.00    -0.018 C 
ATOM      9  C   UNL     1      -0.552  -6.768  -6.591  0.00  0.00    +0.025 C 
ATOM     10  C   UNL     1      -1.407  -6.584  -7.702  0.00  0.00    +0.106 C 
ATOM     11  N   UNL     1      -2.467  -5.891  -7.395  0.00  0.00    -0.279 NA
ATOM     12  C   UNL     1      -2.407  -5.605  -5.970  0.00  0.00    +0.158 C 
ATOM     13  C   UNL     1      -2.540  -4.158  -5.602  0.00  0.00    +0.004 C 
ATOM     14  C   UNL     1      -1.841  -3.687  -4.565  0.00  0.00    +0.004 C 
ENDBRANCH   4   6
BRANCH   1  18
ATOM     15  C   UNL     1      -0.018   1.461   0.010  0.00  0.00    +0.131 C 
ATOM     16  N   UNL     1       0.002  -0.004   0.002  0.00  0.00    -0.305 N 
ATOM     17  C   UNL     1       0.024  -0.743   1.267  0.00  0.00    +0.131 C 
ATOM     18  C   UNL     1       0.000  -0.672  -1.169  0.00  0.00    +0.244 C 
ATOM     19  O   UNL     1      -0.018  -0.060  -2.216  0.00  0.00    -0.273 OA
ENDBRANCH   1  18
TORSDOF 2
