REMARK  Name = ZINC49787636
REMARK  7 active torsions:
REMARK  status: ('A' for Active; 'I' for Inactive)
REMARK    1  A    between atoms: C_1  and  C_2
REMARK    2  A    between atoms: C_2  and  C_4
REMARK    3  A    between atoms: C_2  and  N_14
REMARK    4  A    between atoms: N_17  and  N_18
REMARK    5  A    between atoms: N_18  and  C_19
REMARK    6  A    between atoms: C_19  and  N_21
REMARK    7  A    between atoms: N_21  and  C_22
REMARK                            x       y       z     vdW  Elec       q    Type
REMARK                         _______ _______ _______ _____ _____    ______ ____
ROOT
ATOM      1  N   UNL     1       0.711  -0.489   1.189  0.00  0.00    -0.292 N 
ATOM      2  C   UNL     1       2.054  -0.600   1.174  0.00  0.00    +0.316 C 
ATOM      3  O   UNL     1       2.677  -0.297   0.175  0.00  0.00    -0.251 OA
ATOM      4  N   UNL     1       2.706  -1.046   2.266  0.00  0.00    -0.219 N 
ATOM      5  H   UNL     1       0.213  -0.731   1.986  0.00  0.00    +0.151 HD
ATOM      6  H   UNL     1       3.672  -1.126   2.255  0.00  0.00    +0.174 HD
ENDROOT
BRANCH   1   8
ATOM      7  C   UNL     1      -0.019   1.526   0.010  0.00  0.00    +0.033 C 
ATOM      8  C   UNL     1       0.002  -0.004   0.002  0.00  0.00    +0.102 C 
BRANCH   8   9
ATOM      9  C   UNL     1      -1.412  -0.526   0.013  0.00  0.00    -0.027 A 
ATOM     10  C   UNL     1      -2.119  -0.567   1.213  0.00  0.00    +0.006 A 
ATOM     11  C   UNL     1      -3.397  -1.032   1.257  0.00  0.00    +0.009 A 
ATOM     12  C   UNL     1      -4.016  -1.479   0.077  0.00  0.00    -0.018 A 
ATOM     13  C   UNL     1      -5.334  -1.966   0.084  0.00  0.00    +0.008 A 
ATOM     14  C   UNL     1      -5.901  -2.389  -1.079  0.00  0.00    +0.001 A 
ATOM     15  C   UNL     1      -5.194  -2.348  -2.279  0.00  0.00    +0.001 A 
ATOM     16  C   UNL     1      -3.916  -1.883  -2.324  0.00  0.00    +0.008 A 
ATOM     17  C   UNL     1      -3.297  -1.437  -1.143  0.00  0.00    -0.018 A 
ATOM     18  C   UNL     1      -1.980  -0.944  -1.151  0.00  0.00    +0.014 A 
ENDBRANCH   8   9
ENDBRANCH   1   8
BRANCH   4  19
ATOM     19  N   UNL     1       1.987  -1.396   3.416  0.00  0.00    -0.245 N 
ATOM     20  H   UNL     1       1.020  -1.316   3.427  0.00  0.00    +0.172 HD
BRANCH  19  21
ATOM     21  C   UNL     1       2.639  -1.842   4.508  0.00  0.00    +0.147 C 
ATOM     22  S   UNL     1       1.761  -2.269   5.915  0.00  0.00    -0.017 S 
BRANCH  21  23
ATOM     23  N   UNL     1       3.982  -1.952   4.493  0.00  0.00    -0.323 N 
ATOM     24  H   UNL     1       4.480  -1.711   3.696  0.00  0.00    +0.148 HD
BRANCH  23  25
ATOM     25  C   UNL     1       4.691  -2.438   5.680  0.00  0.00    +0.072 C 
ATOM     26  C   UNL     1       5.016  -1.259   6.620  0.00  0.00    +0.022 C 
ATOM     27  C   UNL     1       6.412  -1.605   7.195  0.00  0.00    +0.002 C 
ATOM     28  C   UNL     1       7.135  -2.236   5.979  0.00  0.00    +0.002 C 
ATOM     29  C   UNL     1       6.038  -3.059   5.272  0.00  0.00    +0.022 C 
ENDBRANCH  23  25
ENDBRANCH  21  23
ENDBRANCH  19  21
ENDBRANCH   4  19
TORSDOF 6
