REMARK  Name = ZINC33812714
REMARK  11 active torsions:
REMARK  status: ('A' for Active; 'I' for Inactive)
REMARK    1  A    between atoms: C_1  and  C_2
REMARK    2  A    between atoms: C_2  and  C_3
REMARK    3  A    between atoms: C_3  and  C_4
REMARK    4  A    between atoms: C_4  and  N_5
REMARK    5  A    between atoms: C_6  and  N_30
REMARK    6  A    between atoms: C_7  and  C_15
REMARK    7  A    between atoms: C_8  and  C_14
REMARK    8  A    between atoms: C_9  and  C_12
REMARK    9  A    between atoms: N_19  and  C_23
REMARK   10  A    between atoms: C_23  and  C_24
REMARK   11  A    between atoms: N_33  and  C_36
REMARK                            x       y       z     vdW  Elec       q    Type
REMARK                         _______ _______ _______ _____ _____    ______ ____
ROOT
ATOM      1  N   UNL     1       1.972  -2.555  -2.581  0.00  0.00    -0.295 N 
ATOM      2  C   UNL     1       1.107  -2.730  -3.612  0.00  0.00    +0.112 A 
ATOM      3  C   UNL     1       1.477  -3.493  -4.732  0.00  0.00    +0.019 A 
ATOM      4  C   UNL     1       2.754  -4.077  -4.779  0.00  0.00    -0.017 A 
ATOM      5  C   UNL     1       3.622  -3.883  -3.709  0.00  0.00    +0.120 A 
ATOM      6  C   UNL     1       3.202  -3.099  -2.604  0.00  0.00    +0.270 A 
ATOM      7  O   UNL     1       3.960  -2.921  -1.666  0.00  0.00    -0.266 OA
ATOM      8  C   UNL     1       3.176  -4.901  -5.968  0.00  0.00    +0.046 C 
ENDROOT
BRANCH   3   9
ATOM      9  C   UNL     1       0.539  -3.679  -5.841  0.00  0.00    +0.032 C 
ATOM     10  C   UNL     1       0.815  -3.146  -7.062  0.00  0.00    +0.077 C 
ATOM     11  C   UNL     1       1.889  -2.292  -7.459  0.00  0.00    +0.259 C 
ATOM     12  O   UNL     1       2.733  -1.933  -6.658  0.00  0.00    -0.269 OA
ATOM     13  N   UNL     1       1.939  -1.904  -8.721  0.00  0.00    -0.251 N 
ATOM     14  C   UNL     1       1.002  -2.303  -9.610  0.00  0.00    +0.121 C 
ATOM     15  S   UNL     1       0.872  -1.926 -11.274  0.00  0.00    -0.027 S 
ATOM     16  S   UNL     1      -0.064  -3.329  -8.608  0.00  0.00    -0.061 S 
BRANCH  13  17
ATOM     17  C   UNL     1       3.026  -1.028  -9.165  0.00  0.00    +0.150 C 
BRANCH  17  18
ATOM     18  C   UNL     1       4.187  -1.867  -9.635  0.00  0.00    -0.030 A 
ATOM     19  C   UNL     1       5.167  -2.255  -8.741  0.00  0.00    +0.005 A 
ATOM     20  C   UNL     1       6.231  -3.024  -9.173  0.00  0.00    +0.000 A 
ATOM     21  C   UNL     1       6.315  -3.406 -10.499  0.00  0.00    +0.000 A 
ATOM     22  C   UNL     1       5.335  -3.018 -11.393  0.00  0.00    +0.000 A 
ATOM     23  C   UNL     1       4.268  -2.253 -10.960  0.00  0.00    +0.005 A 
ENDBRANCH  17  18
ENDBRANCH  13  17
ENDBRANCH   3   9
BRANCH   2  24
ATOM     24  N   UNL     1      -0.132  -2.160  -3.561  0.00  0.00    -0.320 N 
ATOM     25  C   UNL     1      -0.390  -0.853  -4.185  0.00  0.00    +0.088 C 
ATOM     26  C   UNL     1      -1.633  -0.976  -5.072  0.00  0.00    -0.060 C 
ATOM     27  N   UNL     1      -2.751  -1.499  -4.278  0.00  0.00    +0.380 N 
ATOM     28  C   UNL     1      -2.450  -2.865  -3.829  0.00  0.00    -0.060 C 
ATOM     29  C   UNL     1      -1.248  -2.838  -2.885  0.00  0.00    +0.088 C 
ATOM     30  C   UNL     1      -3.969  -1.513  -5.099  0.00  0.00    -0.096 C 
ATOM     31  H   UNL     1      -2.897  -0.907  -3.474  0.00  0.00    -0.082 HD
ENDBRANCH   2  24
BRANCH   5  32
ATOM     32  C   UNL     1       4.931  -4.465  -3.725  0.00  0.00    +0.105 C 
ATOM     33  N   UNL     1       5.968  -4.926  -3.739  0.00  0.00    -0.191 NA
ENDBRANCH   5  32
BRANCH   1  34
ATOM     34  C   UNL     1       1.561  -1.755  -1.424  0.00  0.00    +0.126 C 
BRANCH  34  35
ATOM     35  C   UNL     1       2.043  -0.314  -1.605  0.00  0.00    +0.021 C 
BRANCH  35  37
ATOM     36  C   UNL     1       2.095   1.963  -0.577  0.00  0.00    +0.004 C 
ATOM     37  C   UNL     1       1.613   0.522  -0.397  0.00  0.00    -0.002 C 
ENDBRANCH  35  37
ENDBRANCH  34  35
ENDBRANCH   1  34
TORSDOF 8
