REMARK  Name = ZINC10048845
REMARK  11 active torsions:
REMARK  status: ('A' for Active; 'I' for Inactive)
REMARK    1  A    between atoms: C_1  and  C_2
REMARK    2  A    between atoms: C_2  and  C_3
REMARK    3  A    between atoms: C_8  and  N_9
REMARK    4  A    between atoms: C_10  and  C_35
REMARK    5  A    between atoms: C_11  and  C_34
REMARK    6  A    between atoms: N_19  and  C_24
REMARK    7  A    between atoms: N_22  and  C_23
REMARK    8  A    between atoms: C_24  and  C_25
REMARK    9  A    between atoms: C_25  and  C_26
REMARK   10  A    between atoms: C_26  and  N_27
REMARK   11  A    between atoms: N_27  and  C_28
REMARK                            x       y       z     vdW  Elec       q    Type
REMARK                         _______ _______ _______ _____ _____    ______ ____
ROOT
ATOM      1  N   UNL     1       2.410   6.708   0.015  0.00  0.00    -0.282 N 
ATOM      2  C   UNL     1       3.650   6.094   0.001  0.00  0.00    +0.043 A 
ATOM      3  C   UNL     1       3.461   4.778  -0.005  0.00  0.00    +0.044 A 
ATOM      4  N   UNL     1       2.099   4.532   0.006  0.00  0.00    -0.274 N 
ATOM      5  C   UNL     1       1.455   5.723   0.018  0.00  0.00    +0.223 A 
ATOM      6  N   UNL     1       0.147   5.512   0.029  0.00  0.00    -0.193 NA
ATOM      7  C   UNL     1      -0.102   4.205   0.025  0.00  0.00    +0.170 A 
ATOM      8  C   UNL     1       1.125   3.545   0.010  0.00  0.00    +0.157 A 
ATOM      9  C   UNL     1       1.147   2.140   0.003  0.00  0.00    +0.283 A 
ATOM     10  O   UNL     1       2.209   1.542  -0.010  0.00  0.00    -0.265 OA
ATOM     11  N   UNL     1      -0.018   1.461   0.010  0.00  0.00    -0.259 N 
ATOM     12  C   UNL     1      -1.197   2.106   0.019  0.00  0.00    +0.333 A 
ATOM     13  O   UNL     1      -2.227   1.459   0.021  0.00  0.00    -0.246 OA
ATOM     14  N   UNL     1      -1.266   3.451   0.031  0.00  0.00    -0.279 N 
ATOM     15  C   UNL     1      -2.571   4.117   0.046  0.00  0.00    +0.155 C 
ATOM     16  C   UNL     1       4.545   3.732  -0.020  0.00  0.00    +0.066 C 
ATOM     17  C   UNL     1       4.983   6.796  -0.007  0.00  0.00    +0.066 C 
ENDROOT
BRANCH   1  23
ATOM     18  C   UNL     1       2.049   8.780  -1.173  0.00  0.00    -0.024 A 
ATOM     19  C   UNL     1       1.810  10.140  -1.161  0.00  0.00    +0.005 A 
ATOM     20  C   UNL     1       1.703  10.814   0.042  0.00  0.00    +0.000 A 
ATOM     21  C   UNL     1       1.831  10.128   1.236  0.00  0.00    +0.002 A 
ATOM     22  C   UNL     1       2.065   8.767   1.231  0.00  0.00    +0.026 A 
ATOM     23  C   UNL     1       2.172   8.088   0.024  0.00  0.00    +0.053 A 
BRANCH  18  25
ATOM     24  C   UNL     1       0.815   7.448  -2.861  0.00  0.00    +0.009 C 
ATOM     25  C   UNL     1       2.171   8.047  -2.484  0.00  0.00    +0.034 C 
ENDBRANCH  18  25
ENDBRANCH   1  23
BRANCH  11  26
ATOM     26  C   UNL     1       0.002  -0.004   0.002  0.00  0.00    +0.131 C 
BRANCH  26  27
ATOM     27  C   UNL     1       0.023  -0.522   1.442  0.00  0.00    +0.040 C 
BRANCH  27  28
ATOM     28  C   UNL     1       0.043  -2.052   1.433  0.00  0.00    +0.103 C 
BRANCH  28  29
ATOM     29  N   UNL     1       0.063  -2.547   2.812  0.00  0.00    -0.344 N 
ATOM     30  H   UNL     1       0.062  -1.921   3.552  0.00  0.00    +0.146 HD
BRANCH  29  31
ATOM     31  C   UNL     1       0.084  -3.922   3.059  0.00  0.00    +0.027 A 
ATOM     32  C   UNL     1       0.081  -4.820   2.000  0.00  0.00    +0.023 A 
ATOM     33  C   UNL     1       0.106  -6.178   2.248  0.00  0.00    +0.002 A 
ATOM     34  C   UNL     1       0.125  -6.645   3.550  0.00  0.00    +0.000 A 
ATOM     35  C   UNL     1       0.123  -5.753   4.607  0.00  0.00    +0.002 A 
ATOM     36  C   UNL     1       0.103  -4.394   4.366  0.00  0.00    +0.023 A 
ENDBRANCH  29  31
ENDBRANCH  28  29
ENDBRANCH  27  28
ENDBRANCH  26  27
ENDBRANCH  11  26
TORSDOF 7
