REMARK  Name = ZINC00191234
REMARK  7 active torsions:
REMARK  status: ('A' for Active; 'I' for Inactive)
REMARK    1  A    between atoms: C_1  and  C_2
REMARK    2  A    between atoms: C_4  and  C_24
REMARK    3  A    between atoms: C_12  and  C_14
REMARK    4  A    between atoms: C_16  and  O_22
REMARK    5  A    between atoms: C_18  and  O_20
REMARK    6  A    between atoms: O_20  and  C_21
REMARK    7  A    between atoms: O_22  and  C_23
REMARK                            x       y       z     vdW  Elec       q    Type
REMARK                         _______ _______ _______ _____ _____    ______ ____
ROOT
ATOM      1  C   UNL     1      -0.013   1.086   0.008  0.00  0.00    +0.044 C 
ATOM      2  C   UNL     1      -0.718   1.572   1.248  0.00  0.00    -0.049 A 
ATOM      3  C   UNL     1      -2.088   1.792   1.234  0.00  0.00    +0.009 A 
ATOM      4  C   UNL     1      -2.754   2.228   2.349  0.00  0.00    -0.024 A 
ATOM      5  C   UNL     1      -2.059   2.480   3.554  0.00  0.00    +0.083 A 
ATOM      6  C   UNL     1      -0.664   2.250   3.530  0.00  0.00    +0.041 A 
ATOM      7  C   UNL     1      -0.006   1.808   2.409  0.00  0.00    +0.020 A 
ATOM      8  S   UNL     1      -0.182   2.672   5.187  0.00  0.00    -0.052 S 
ATOM      9  C   UNL     1      -1.806   3.112   5.788  0.00  0.00    +0.166 A 
ATOM     10  N   UNL     1      -2.559   2.914   4.731  0.00  0.00    -0.224 NA
ATOM     11  N   UNL     1      -2.177   3.550   7.048  0.00  0.00    -0.261 N 
ATOM     12  C   UNL     1      -1.246   3.692   8.013  0.00  0.00    +0.250 C 
ATOM     13  O   UNL     1      -0.082   3.435   7.777  0.00  0.00    -0.270 OA
ATOM     14  C   UNL     1      -4.244   2.448   2.289  0.00  0.00    +0.046 C 
ATOM     15  H   UNL     1      -3.106   3.756   7.237  0.00  0.00    +0.157 HD
ENDROOT
BRANCH  12  16
ATOM     16  C   UNL     1      -1.641   4.160   9.358  0.00  0.00    +0.044 A 
ATOM     17  C   UNL     1      -2.977   4.461   9.630  0.00  0.00    +0.059 A 
ATOM     18  C   UNL     1      -3.343   4.894  10.893  0.00  0.00    +0.124 A 
ATOM     19  C   UNL     1      -2.384   5.039  11.885  0.00  0.00    +0.091 A 
ATOM     20  C   UNL     1      -1.054   4.746  11.617  0.00  0.00    +0.124 A 
ATOM     21  C   UNL     1      -0.680   4.307  10.358  0.00  0.00    +0.059 A 
BRANCH  20  22
ATOM     22  O   UNL     1      -0.118   4.889  12.592  0.00  0.00    -0.495 OA
ATOM     23  C   UNL     1      -0.575   5.346  13.867  0.00  0.00    +0.277 C 
ENDBRANCH  20  22
BRANCH  18  24
ATOM     24  O   UNL     1      -4.644   5.183  11.161  0.00  0.00    -0.495 OA
ATOM     25  C   UNL     1      -4.951   5.630  12.483  0.00  0.00    +0.277 C 
ENDBRANCH  18  24
ENDBRANCH  12  16
TORSDOF 3
