REMARK  Name = ZINC45670682
REMARK  9 active torsions:
REMARK  status: ('A' for Active; 'I' for Inactive)
REMARK    1  A    between atoms: C_1  and  C_2
REMARK    2  A    between atoms: C_4  and  N_26
REMARK    3  A    between atoms: C_6  and  C_7
REMARK    4  A    between atoms: C_7  and  O_9
REMARK    5  A    between atoms: O_9  and  C_10
REMARK    6  A    between atoms: C_10  and  C_12
REMARK    7  A    between atoms: C_10  and  C_13
REMARK    8  A    between atoms: N_15  and  C_16
REMARK    9  A    between atoms: C_27  and  C_29
REMARK                            x       y       z     vdW  Elec       q    Type
REMARK                         _______ _______ _______ _____ _____    ______ ____
ROOT
ATOM      1  C   UNL     1       0.007  -0.300   2.520  0.00  0.00    +0.347 C 
ATOM      2  O   UNL     1      -0.016   0.893   2.758  0.00  0.00    -0.244 OA
ENDROOT
BRANCH   1   8
ATOM      3  C   UNL     1      -0.064   1.495   0.013  0.00  0.00    +0.045 C 
ATOM      4  C   UNL     1      -0.032  -0.011   0.005  0.00  0.00    -0.028 A 
ATOM      5  C   UNL     1      -0.026  -0.731  -1.160  0.00  0.00    +0.035 A 
ATOM      6  C   UNL     1       0.004  -2.106  -1.086  0.00  0.00    +0.073 A 
ATOM      7  S   UNL     1       0.024  -2.426   0.563  0.00  0.00    -0.067 S 
ATOM      8  C   UNL     1      -0.001  -0.754   1.179  0.00  0.00    +0.101 A 
BRANCH   6   9
ATOM      9  N   UNL     1       0.015  -3.016  -2.133  0.00  0.00    -0.273 N 
ATOM     10  C   UNL     1       0.045  -4.339  -1.875  0.00  0.00    +0.284 C 
ATOM     11  O   UNL     1       0.063  -4.734  -0.725  0.00  0.00    -0.266 OA
ATOM     12  H   UNL     1       0.000  -2.701  -3.050  0.00  0.00    +0.156 HD
BRANCH  10  13
ATOM     13  C   UNL     1       0.056  -5.301  -2.981  0.00  0.00    +0.189 A 
ATOM     14  C   UNL     1       0.081  -6.661  -2.861  0.00  0.00    +0.054 A 
ATOM     15  C   UNL     1       0.083  -7.181  -4.165  0.00  0.00    +0.042 A 
ATOM     16  C   UNL     1       0.059  -6.129  -5.013  0.00  0.00    +0.196 A 
ATOM     17  O   UNL     1       0.038  -4.998  -4.296  0.00  0.00    -0.458 OA
ENDBRANCH  10  13
ENDBRANCH   6   9
ENDBRANCH   1   8
BRANCH   1  18
ATOM     18  O   UNL     1       0.038  -1.190   3.534  0.00  0.00    -0.448 OA
BRANCH  18  19
ATOM     19  C   UNL     1       0.044  -0.661   4.862  0.00  0.00    +0.259 C 
ATOM     20  C   UNL     1      -1.396  -0.503   5.354  0.00  0.00    +0.062 C 
BRANCH  19  21
ATOM     21  C   UNL     1       0.787  -1.603   5.774  0.00  0.00    +0.258 C 
ATOM     22  O   UNL     1       1.264  -2.626   5.332  0.00  0.00    -0.271 OA
ATOM     23  N   UNL     1       0.920  -1.308   7.083  0.00  0.00    -0.282 N 
ATOM     24  H   UNL     1       0.610  -0.454   7.421  0.00  0.00    +0.155 HD
BRANCH  23  25
ATOM     25  C   UNL     1       1.506  -2.232   7.950  0.00  0.00    +0.041 A 
ATOM     26  C   UNL     1       1.485  -3.577   7.650  0.00  0.00    +0.024 A 
ATOM     27  C   UNL     1       2.066  -4.506   8.508  0.00  0.00    +0.002 A 
ATOM     28  C   UNL     1       2.670  -4.115   9.664  0.00  0.00    +0.008 A 
ATOM     29  C   UNL     1       2.713  -2.753  10.007  0.00  0.00    -0.016 A 
ATOM     30  C   UNL     1       2.129  -1.797   9.139  0.00  0.00    +0.003 A 
ATOM     31  C   UNL     1       2.177  -0.436   9.480  0.00  0.00    +0.010 A 
ATOM     32  C   UNL     1       2.787  -0.052  10.635  0.00  0.00    +0.001 A 
ATOM     33  C   UNL     1       3.366  -0.991  11.487  0.00  0.00    +0.001 A 
ATOM     34  C   UNL     1       3.329  -2.319  11.194  0.00  0.00    +0.008 A 
ENDBRANCH  23  25
ENDBRANCH  19  21
ENDBRANCH  18  19
ENDBRANCH   1  18
TORSDOF 7
