REMARK  Name = ZINC33746979
REMARK  10 active torsions:
REMARK  status: ('A' for Active; 'I' for Inactive)
REMARK    1  A    between atoms: C_1  and  C_2
REMARK    2  A    between atoms: C_7  and  N_8
REMARK    3  A    between atoms: N_11  and  C_12
REMARK    4  A    between atoms: N_11  and  C_19
REMARK    5  A    between atoms: C_12  and  C_13
REMARK    6  A    between atoms: C_19  and  C_20
REMARK    7  A    between atoms: N_22  and  C_23
REMARK    8  A    between atoms: N_22  and  C_33
REMARK    9  A    between atoms: C_23  and  C_24
REMARK   10  A    between atoms: C_33  and  C_34
REMARK                            x       y       z     vdW  Elec       q    Type
REMARK                         _______ _______ _______ _____ _____    ______ ____
ROOT
ATOM      1  C   UNL     1      -1.822   2.475   3.951  0.00  0.00    +0.205 C 
ENDROOT
BRANCH   1   5
ATOM      2  N   UNL     1      -4.702   0.492   2.815  0.00  0.00    -0.269 N 
ATOM      3  C   UNL     1      -3.739   1.012   3.601  0.00  0.00    +0.307 C 
ATOM      4  O   UNL     1      -3.653   0.671   4.765  0.00  0.00    -0.252 OA
ATOM      5  N   UNL     1      -2.869   1.910   3.097  0.00  0.00    -0.274 N 
ATOM      6  H   UNL     1      -4.838   0.868   1.790  0.00  0.00    +0.156 HD
BRANCH   2  13
ATOM      7  C   UNL     1      -7.282   0.186   1.655  0.00  0.00    +0.045 C 
ATOM      8  C   UNL     1      -6.796  -0.710   2.765  0.00  0.00    -0.029 A 
ATOM      9  C   UNL     1      -7.609  -1.719   3.245  0.00  0.00    +0.005 A 
ATOM     10  C   UNL     1      -7.166  -2.538   4.268  0.00  0.00    +0.000 A 
ATOM     11  C   UNL     1      -5.907  -2.353   4.809  0.00  0.00    +0.002 A 
ATOM     12  C   UNL     1      -5.088  -1.350   4.330  0.00  0.00    +0.023 A 
ATOM     13  C   UNL     1      -5.530  -0.526   3.303  0.00  0.00    +0.038 A 
ENDBRANCH   2  13
BRANCH   5  14
ATOM     14  C   UNL     1      -2.972   2.322   1.694  0.00  0.00    +0.141 C 
BRANCH  14  15
ATOM     15  C   UNL     1      -2.120   1.393   0.827  0.00  0.00    +0.136 C 
ATOM     16  C   UNL     1      -2.214   1.809  -0.658  0.00  0.00    +0.035 C 
ATOM     17  C   UNL     1      -0.789   1.568  -1.206  0.00  0.00    +0.031 C 
ATOM     18  C   UNL     1      -0.004   1.035   0.013  0.00  0.00    +0.160 C 
ATOM     19  O   UNL     1      -0.720   1.534   1.163  0.00  0.00    -0.375 OA
ENDBRANCH  14  15
ENDBRANCH   5  14
ENDBRANCH   1   5
BRANCH   1  20
ATOM     20  C   UNL     1      -2.337   3.725   4.617  0.00  0.00    +0.234 C 
ATOM     21  O   UNL     1      -3.468   4.106   4.401  0.00  0.00    -0.274 OA
ATOM     22  N   UNL     1      -1.542   4.419   5.455  0.00  0.00    -0.291 N 
BRANCH  22  23
ATOM     23  C   UNL     1      -2.042   5.634   6.103  0.00  0.00    +0.143 C 
BRANCH  23  24
ATOM     24  C   UNL     1      -2.686   5.273   7.417  0.00  0.00    -0.026 A 
ATOM     25  C   UNL     1      -4.035   4.975   7.466  0.00  0.00    +0.009 A 
ATOM     26  C   UNL     1      -4.628   4.639   8.669  0.00  0.00    +0.050 A 
ATOM     27  C   UNL     1      -3.874   4.610   9.830  0.00  0.00    +0.166 A 
ATOM     28  C   UNL     1      -2.516   4.916   9.782  0.00  0.00    +0.167 A 
ATOM     29  C   UNL     1      -1.927   5.247   8.572  0.00  0.00    +0.054 A 
ATOM     30  O   UNL     1      -2.002   4.819  11.043  0.00  0.00    -0.453 OA
ATOM     31  C   UNL     1      -2.965   4.056  11.793  0.00  0.00    +0.466 C 
ATOM     32  O   UNL     1      -4.210   4.322  11.121  0.00  0.00    -0.453 OA
ENDBRANCH  23  24
ENDBRANCH  22  23
BRANCH  22  33
ATOM     33  C   UNL     1      -0.176   3.959   5.717  0.00  0.00    +0.150 C 
BRANCH  33  34
ATOM     34  C   UNL     1       0.764   4.578   4.715  0.00  0.00    +0.007 A 
ATOM     35  C   UNL     1       1.448   5.746   4.794  0.00  0.00    +0.013 A 
ATOM     36  C   UNL     1       2.262   6.119   3.741  0.00  0.00    +0.008 A 
ATOM     37  C   UNL     1       2.354   5.305   2.661  0.00  0.00    +0.045 A 
ATOM     38  S   UNL     1       1.272   3.960   3.119  0.00  0.00    -0.100 S 
ENDBRANCH  33  34
ENDBRANCH  22  33
ENDBRANCH   1  20
TORSDOF 9
