REMARK  Name = ZINC25455824
REMARK  7 active torsions:
REMARK  status: ('A' for Active; 'I' for Inactive)
REMARK    1  A    between atoms: C_1  and  C_2
REMARK    2  A    between atoms: C_5  and  N_9
REMARK    3  A    between atoms: C_6  and  C_8
REMARK    4  A    between atoms: C_13  and  C_15
REMARK    5  A    between atoms: C_15  and  C_17
REMARK    6  A    between atoms: C_15  and  S_18
REMARK    7  A    between atoms: S_18  and  C_19
REMARK                            x       y       z     vdW  Elec       q    Type
REMARK                         _______ _______ _______ _____ _____    ______ ____
ROOT
ATOM      1  N   UNL     1      -2.399   5.256  -2.346  0.00  0.00    -0.269 N 
ATOM      2  C   UNL     1      -1.898   4.005  -2.324  0.00  0.00    +0.310 C 
ATOM      3  O   UNL     1      -2.043   3.275  -3.286  0.00  0.00    -0.252 OA
ATOM      4  N   UNL     1      -1.235   3.563  -1.237  0.00  0.00    -0.239 N 
ATOM      5  C   UNL     1      -0.734   2.312  -1.216  0.00  0.00    +0.234 C 
ATOM      6  O   UNL     1      -0.879   1.584  -2.175  0.00  0.00    -0.274 OA
ATOM      7  H   UNL     1      -2.349   5.884  -1.444  0.00  0.00    +0.156 HD
ATOM      8  H   UNL     1      -1.103   4.223  -0.367  0.00  0.00    +0.159 HD
ENDROOT
BRANCH   1  13
ATOM      9  C   UNL     1      -4.768   7.281  -7.086  0.00  0.00    +0.044 C 
ATOM     10  C   UNL     1      -4.138   6.744  -5.827  0.00  0.00    -0.050 A 
ATOM     11  C   UNL     1      -3.198   5.732  -5.903  0.00  0.00    +0.005 A 
ATOM     12  C   UNL     1      -2.619   5.237  -4.751  0.00  0.00    +0.024 A 
ATOM     13  C   UNL     1      -2.983   5.756  -3.515  0.00  0.00    +0.038 A 
ATOM     14  C   UNL     1      -3.932   6.767  -3.442  0.00  0.00    -0.029 A 
ATOM     15  C   UNL     1      -4.502   7.262  -4.598  0.00  0.00    +0.008 A 
ATOM     16  C   UNL     1      -4.333   7.328  -2.102  0.00  0.00    +0.045 C 
ENDBRANCH   1  13
BRANCH   5  17
ATOM     17  C   UNL     1       0.007   1.818  -0.000  0.00  0.00    +0.137 C 
ATOM     18  C   UNL     1       1.441   2.351  -0.025  0.00  0.00    +0.029 C 
BRANCH  17  19
ATOM     19  S   UNL     1       0.036   0.008  -0.005  0.00  0.00    -0.073 S 
BRANCH  19  20
ATOM     20  C   UNL     1       0.803  -0.290   1.552  0.00  0.00    +0.192 A 
ATOM     21  N   UNL     1       1.012  -1.541   1.947  0.00  0.00    -0.207 NA
ATOM     22  C   UNL     1       1.587  -1.826   3.103  0.00  0.00    +0.129 A 
ATOM     23  C   UNL     1       1.989  -0.765   3.962  0.00  0.00    +0.047 A 
ATOM     24  C   UNL     1       2.627  -0.819   5.266  0.00  0.00    +0.021 A 
ATOM     25  C   UNL     1       2.918   0.326   5.901  0.00  0.00    +0.048 A 
ATOM     26  S   UNL     1       2.345   1.583   4.774  0.00  0.00    -0.077 S 
ATOM     27  C   UNL     1       1.732   0.537   3.481  0.00  0.00    +0.114 A 
ATOM     28  N   UNL     1       1.157   0.739   2.311  0.00  0.00    -0.215 NA
ATOM     29  N   UNL     1       1.792  -3.142   3.475  0.00  0.00    -0.343 N 
ATOM     30  H   UNL     1       2.271  -3.373   4.438  0.00  0.00    +0.144 HD
ATOM     31  H   UNL     1       1.476  -3.958   2.809  0.00  0.00    +0.144 HD
ENDBRANCH  19  20
ENDBRANCH  17  19
ENDBRANCH   5  17
TORSDOF 4
