REMARK  Name = ZINC50252609
REMARK  7 active torsions:
REMARK  status: ('A' for Active; 'I' for Inactive)
REMARK    1  A    between atoms: C_1  and  C_2
REMARK    2  A    between atoms: C_3  and  S_9
REMARK    3  A    between atoms: C_4  and  C_8
REMARK    4  A    between atoms: N_5  and  C_7
REMARK    5  A    between atoms: S_9  and  N_12
REMARK    6  A    between atoms: N_12  and  C_13
REMARK    7  A    between atoms: C_17  and  N_19
REMARK                            x       y       z     vdW  Elec       q    Type
REMARK                         _______ _______ _______ _____ _____    ______ ____
ROOT
ATOM      1  S   UNL     1      -0.009  -0.263  -2.808  0.00  0.00    +0.095 S 
ATOM      2  O   UNL     1      -0.549  -1.324  -3.583  0.00  0.00    -0.148 OA
ATOM      3  O   UNL     1      -0.578   1.039  -2.797  0.00  0.00    -0.148 OA
ENDROOT
BRANCH   1   6
ATOM      4  C   UNL     1      -0.018   1.503   0.010  0.00  0.00    +0.069 C 
ATOM      5  C   UNL     1       0.002  -0.004   0.002  0.00  0.00    +0.087 A 
ATOM      6  C   UNL     1       0.008  -0.818  -1.135  0.00  0.00    +0.153 A 
ATOM      7  C   UNL     1       0.028  -2.107  -0.725  0.00  0.00    +0.063 A 
ATOM      8  N   UNL     1       0.034  -2.109   0.625  0.00  0.00    -0.269 N 
ATOM      9  N   UNL     1       0.023  -0.777   1.058  0.00  0.00    -0.174 NA
ATOM     10  C   UNL     1       0.055  -3.295   1.485  0.00  0.00    +0.172 C 
ATOM     11  C   UNL     1       0.040  -3.323  -1.615  0.00  0.00    +0.067 C 
ENDBRANCH   1   6
BRANCH   1  12
ATOM     12  N   UNL     1       1.569  -0.086  -3.280  0.00  0.00    -0.098 NA
BRANCH  12  13
ATOM     13  C   UNL     1       1.865   0.348  -4.575  0.00  0.00    +0.076 A 
ATOM     14  C   UNL     1       0.838   0.637  -5.465  0.00  0.00    +0.028 A 
ATOM     15  C   UNL     1       1.130   1.066  -6.745  0.00  0.00    +0.024 A 
ATOM     16  C   UNL     1       2.445   1.209  -7.146  0.00  0.00    +0.062 A 
ATOM     17  C   UNL     1       3.478   0.921  -6.260  0.00  0.00    +0.045 A 
ATOM     18  C   UNL     1       3.187   0.496  -4.972  0.00  0.00    +0.050 A 
ATOM     19 CL   UNL     1       2.808   1.748  -8.756  0.00  0.00    -0.082 Cl
BRANCH  17  20
ATOM     20  N   UNL     1       4.807   1.066  -6.666  0.00  0.00    -0.357 N 
ATOM     21  H   UNL     1       5.010   1.367  -7.565  0.00  0.00    +0.142 HD
ATOM     22  H   UNL     1       5.527   0.865  -6.048  0.00  0.00    +0.142 HD
ENDBRANCH  17  20
ENDBRANCH  12  13
ENDBRANCH   1  12
TORSDOF 4
