REMARK  Name = ZINC36605294
REMARK  13 active torsions:
REMARK  status: ('A' for Active; 'I' for Inactive)
REMARK    1  A    between atoms: C_1  and  C_2
REMARK    2  A    between atoms: C_2  and  C_3
REMARK    3  A    between atoms: C_2  and  C_4
REMARK    4  A    between atoms: C_2  and  N_5
REMARK    5  A    between atoms: C_6  and  C_8
REMARK    6  A    between atoms: C_8  and  C_10
REMARK    7  A    between atoms: C_8  and  N_20
REMARK    8  A    between atoms: C_12  and  N_17
REMARK    9  A    between atoms: N_20  and  C_21
REMARK   10  A    between atoms: C_27  and  C_29
REMARK   11  A    between atoms: C_29  and  C_31
REMARK   12  A    between atoms: C_29  and  O_37
REMARK   13  A    between atoms: O_37  and  C_38
REMARK                            x       y       z     vdW  Elec       q    Type
REMARK                         _______ _______ _______ _____ _____    ______ ____
ROOT
ATOM      1  C   UNL     1       2.941  -0.609  -1.804  0.00  0.00    +0.199 C 
ENDROOT
BRANCH   1   2
ATOM      2  C   UNL     1       1.972   0.363  -2.424  0.00  0.00    +0.003 A 
ATOM      3  C   UNL     1       1.527   1.453  -1.699  0.00  0.00    +0.040 A 
ATOM      4  C   UNL     1       0.637   2.345  -2.267  0.00  0.00    +0.127 A 
ATOM      5  C   UNL     1       0.191   2.148  -3.561  0.00  0.00    +0.034 A 
ATOM      6  C   UNL     1       0.635   1.059  -4.287  0.00  0.00    +0.022 A 
ATOM      7  C   UNL     1       1.530   0.169  -3.721  0.00  0.00    +0.047 A 
ATOM      8 CL   UNL     1       2.094  -1.195  -4.635  0.00  0.00    -0.083 Cl
BRANCH   4   9
ATOM      9  N   UNL     1       0.161   3.511  -1.490  0.00  0.00    +0.056 N 
ATOM     10  O   UNL     1       0.550   3.683  -0.359  0.00  0.00    -0.126 OA
ATOM     11  O   UNL     1      -0.618   4.292  -1.987  0.00  0.00    -0.126 OA
ENDBRANCH   4   9
ENDBRANCH   1   2
BRANCH   1  13
ATOM     12  N   UNL     1       1.884  -0.846   0.419  0.00  0.00    -0.309 N 
ATOM     13  C   UNL     1       2.941  -0.434  -0.308  0.00  0.00    +0.239 C 
ATOM     14  O   UNL     1       3.893   0.079   0.243  0.00  0.00    -0.273 OA
ATOM     15  H   UNL     1       1.097  -1.198  -0.026  0.00  0.00    +0.149 HD
BRANCH  12  17
ATOM     16  C   UNL     1       2.116   0.696   2.303  0.00  0.00    +0.031 C 
ATOM     17  C   UNL     1       1.923  -0.762   1.881  0.00  0.00    +0.026 C 
ATOM     18  C   UNL     1       3.086  -1.604   2.410  0.00  0.00    +0.031 C 
ATOM     19  C   UNL     1       0.607  -1.290   2.457  0.00  0.00    +0.031 C 
ENDBRANCH  12  17
ENDBRANCH   1  13
BRANCH   1  20
ATOM     20  N   UNL     1       4.287  -0.357  -2.326  0.00  0.00    -0.253 N 
ATOM     21  C   UNL     1       4.995  -1.361  -2.878  0.00  0.00    +0.254 C 
ATOM     22  O   UNL     1       4.487  -2.453  -3.026  0.00  0.00    -0.272 OA
BRANCH  20  23
ATOM     23  C   UNL     1       4.836   0.928  -2.251  0.00  0.00    +0.038 A 
ATOM     24  C   UNL     1       4.309   1.956  -3.021  0.00  0.00    +0.023 A 
ATOM     25  C   UNL     1       4.854   3.223  -2.944  0.00  0.00    +0.002 A 
ATOM     26  C   UNL     1       5.923   3.468  -2.101  0.00  0.00    +0.000 A 
ATOM     27  C   UNL     1       6.449   2.446  -1.333  0.00  0.00    +0.002 A 
ATOM     28  C   UNL     1       5.906   1.179  -1.402  0.00  0.00    +0.023 A 
ENDBRANCH  20  23
BRANCH  21  29
ATOM     29  C   UNL     1       6.420  -1.129  -3.312  0.00  0.00    +0.234 C 
BRANCH  29  30
ATOM     30  C   UNL     1       6.434  -0.262  -4.544  0.00  0.00    -0.010 A 
ATOM     31  C   UNL     1       6.134  -0.808  -5.778  0.00  0.00    +0.006 A 
ATOM     32  C   UNL     1       6.147  -0.012  -6.908  0.00  0.00    +0.000 A 
ATOM     33  C   UNL     1       6.461   1.330  -6.804  0.00  0.00    +0.000 A 
ATOM     34  C   UNL     1       6.761   1.877  -5.571  0.00  0.00    +0.000 A 
ATOM     35  C   UNL     1       6.743   1.082  -4.440  0.00  0.00    +0.006 A 
ENDBRANCH  29  30
BRANCH  29  36
ATOM     36  O   UNL     1       7.039  -2.384  -3.605  0.00  0.00    -0.366 OA
ATOM     37  C   UNL     1       7.684  -2.989  -2.483  0.00  0.00    +0.195 C 
ENDBRANCH  29  36
ENDBRANCH  21  29
ENDBRANCH   1  20
TORSDOF 9
