REMARK  Name = ZINC08869007
REMARK  11 active torsions:
REMARK  status: ('A' for Active; 'I' for Inactive)
REMARK    1  A    between atoms: C_1  and  N_64
REMARK    2  A    between atoms: C_2  and  N_64
REMARK    3  A    between atoms: C_3  and  C_4
REMARK    4  A    between atoms: C_3  and  N_64
REMARK    5  A    between atoms: C_4  and  C_5
REMARK    6  A    between atoms: C_5  and  N_6
REMARK    7  A    between atoms: C_16  and  C_18
REMARK    8  A    between atoms: N_23  and  S_24
REMARK    9  A    between atoms: S_24  and  C_27
REMARK   10  A    between atoms: C_30  and  O_33
REMARK   11  A    between atoms: O_33  and  C_34
REMARK                            x       y       z     vdW  Elec       q    Type
REMARK                         _______ _______ _______ _____ _____    ______ ____
ROOT
ATOM      1  N   UNL     1      -1.065  -0.888   0.007  0.00  0.00    -0.249 N 
ATOM      2  C   UNL     1       0.002  -0.004   0.002  0.00  0.00    +0.168 A 
ATOM      3  N   UNL     1      -0.016   1.308   0.009  0.00  0.00    -0.224 NA
ATOM      4  C   UNL     1       1.113   2.050   0.002  0.00  0.00    +0.080 A 
ATOM      5  C   UNL     1       1.232   3.459   0.009  0.00  0.00    +0.029 A 
ATOM      6  C   UNL     1       2.465   4.057   0.000  0.00  0.00    +0.002 A 
ATOM      7  C   UNL     1       3.634   3.310  -0.015  0.00  0.00    +0.001 A 
ATOM      8  C   UNL     1       3.555   1.929  -0.021  0.00  0.00    +0.017 A 
ATOM      9  C   UNL     1       2.324   1.321  -0.013  0.00  0.00    +0.041 A 
ATOM     10  S   UNL     1       1.753  -0.361  -0.017  0.00  0.00    -0.052 S 
ATOM     11  C   UNL     1      -2.328  -0.418   0.022  0.00  0.00    +0.240 C 
ATOM     12  O   UNL     1      -3.262  -1.192   0.027  0.00  0.00    -0.273 OA
ENDROOT
BRANCH  11  13
ATOM     13  C   UNL     1      -2.580   1.067   0.032  0.00  0.00    +0.166 C 
ATOM     14  C   UNL     1      -2.013   1.705  -1.253  0.00  0.00    +0.031 C 
ATOM     15  C   UNL     1      -3.259   1.801  -2.173  0.00  0.00    +0.019 C 
ATOM     16  C   UNL     1      -4.377   2.117  -1.148  0.00  0.00    +0.110 C 
ATOM     17  N   UNL     1      -4.027   1.329   0.048  0.00  0.00    -0.165 NA
BRANCH  17  18
ATOM     18  S   UNL     1      -5.087   0.823   1.214  0.00  0.00    +0.062 S 
ATOM     19  O   UNL     1      -6.370   0.779   0.606  0.00  0.00    -0.153 OA
ATOM     20  O   UNL     1      -4.498  -0.313   1.833  0.00  0.00    -0.153 OA
BRANCH  18  21
ATOM     21  C   UNL     1      -5.154   2.086   2.441  0.00  0.00    +0.106 A 
ATOM     22  C   UNL     1      -4.284   2.052   3.515  0.00  0.00    +0.032 A 
ATOM     23  C   UNL     1      -4.330   3.044   4.475  0.00  0.00    +0.047 A 
ATOM     24  C   UNL     1      -5.260   4.068   4.367  0.00  0.00    +0.120 A 
ATOM     25  C   UNL     1      -6.136   4.097   3.292  0.00  0.00    +0.047 A 
ATOM     26  C   UNL     1      -6.081   3.106   2.332  0.00  0.00    +0.032 A 
BRANCH  24  27
ATOM     27  O   UNL     1      -5.311   5.043   5.313  0.00  0.00    -0.495 OA
ATOM     28  C   UNL     1      -4.379   4.949   6.392  0.00  0.00    +0.277 C 
ENDBRANCH  24  27
ENDBRANCH  18  21
ENDBRANCH  17  18
ENDBRANCH  11  13
BRANCH   1  29
ATOM     29  C   UNL     1      -0.820  -2.332  -0.003  0.00  0.00    +0.114 C 
BRANCH  29  30
ATOM     30  C   UNL     1      -0.721  -2.842   1.436  0.00  0.00    +0.001 C 
BRANCH  30  31
ATOM     31  C   UNL     1      -0.466  -4.351   1.426  0.00  0.00    -0.078 C 
BRANCH  31  34
ATOM     32  C   UNL     1      -1.658  -4.710   3.502  0.00  0.00    -0.097 C 
ATOM     33  C   UNL     1       0.107  -6.230   2.841  0.00  0.00    -0.097 C 
ATOM     34  N   UNL     1      -0.351  -4.825   2.821  0.00  0.00    +0.376 N 
ATOM     35  H   UNL     1       0.335  -4.243   3.316  0.00  0.00    -0.083 HD
ENDBRANCH  31  34
ENDBRANCH  30  31
ENDBRANCH  29  30
ENDBRANCH   1  29
TORSDOF 8
