REMARK  Name = ZINC34832543
REMARK  12 active torsions:
REMARK  status: ('A' for Active; 'I' for Inactive)
REMARK    1  A    between atoms: C_1  and  C_2
REMARK    2  A    between atoms: C_2  and  C_3
REMARK    3  A    between atoms: C_2  and  C_4
REMARK    4  A    between atoms: C_2  and  C_5
REMARK    5  A    between atoms: C_9  and  C_22
REMARK    6  A    between atoms: C_11  and  C_14
REMARK    7  A    between atoms: C_19  and  O_20
REMARK    8  A    between atoms: O_20  and  C_21
REMARK    9  A    between atoms: N_24  and  C_25
REMARK   10  A    between atoms: C_25  and  C_26
REMARK   11  A    between atoms: C_25  and  C_27
REMARK   12  A    between atoms: C_25  and  C_28
REMARK                            x       y       z     vdW  Elec       q    Type
REMARK                         _______ _______ _______ _____ _____    ______ ____
ROOT
ATOM      1  C   UNL     1       0.707  -0.490  -1.238  0.00  0.00    +0.071 A 
ATOM      2  C   UNL     1       2.077  -0.468  -1.444  0.00  0.00    +0.073 A 
ATOM      3  C   UNL     1       2.322  -1.002  -2.707  0.00  0.00    +0.157 A 
ATOM      4  N   UNL     1       3.447  -1.210  -3.393  0.00  0.00    -0.223 NA
ATOM      5  C   UNL     1       3.419  -1.743  -4.603  0.00  0.00    +0.130 A 
ATOM      6  C   UNL     1       2.192  -2.102  -5.191  0.00  0.00    +0.061 A 
ATOM      7  C   UNL     1       1.032  -1.892  -4.495  0.00  0.00    +0.080 A 
ATOM      8  N   UNL     1       1.101  -1.336  -3.240  0.00  0.00    -0.214 N 
ATOM      9  N   UNL     1       0.122  -1.008  -2.295  0.00  0.00    -0.169 NA
ENDROOT
BRANCH   7  10
ATOM     10  C   UNL     1      -0.272  -2.257  -5.083  0.00  0.00    +0.042 A 
ATOM     11  C   UNL     1      -0.952  -3.391  -4.633  0.00  0.00    +0.013 A 
ATOM     12  C   UNL     1      -2.170  -3.727  -5.186  0.00  0.00    +0.001 A 
ATOM     13  C   UNL     1      -2.722  -2.944  -6.186  0.00  0.00    +0.004 A 
ATOM     14  C   UNL     1      -2.059  -1.819  -6.639  0.00  0.00    +0.046 A 
ATOM     15  C   UNL     1      -0.837  -1.465  -6.091  0.00  0.00    +0.129 A 
BRANCH  15  16
ATOM     16  O   UNL     1      -0.187  -0.357  -6.532  0.00  0.00    -0.494 OA
ATOM     17  C   UNL     1      -0.824   0.402  -7.561  0.00  0.00    +0.277 C 
ENDBRANCH  15  16
ENDBRANCH   7  10
BRANCH   1  19
ATOM     18  C   UNL     1      -0.019   1.526   0.010  0.00  0.00    +0.017 C 
ATOM     19  C   UNL     1       0.002  -0.004   0.002  0.00  0.00    +0.006 C 
ATOM     20  C   UNL     1       0.742  -0.511   1.242  0.00  0.00    +0.017 C 
ATOM     21  C   UNL     1      -1.433  -0.534   0.013  0.00  0.00    +0.017 C 
ENDBRANCH   1  19
BRANCH   5  22
ATOM     22  C   UNL     1       4.684  -1.963  -5.342  0.00  0.00    +0.263 C 
ATOM     23  O   UNL     1       4.661  -2.453  -6.454  0.00  0.00    -0.269 OA
ATOM     24  N   UNL     1       5.861  -1.620  -4.781  0.00  0.00    -0.305 N 
ATOM     25  H   UNL     1       5.879  -1.229  -3.893  0.00  0.00    +0.150 HD
BRANCH  24  26
ATOM     26  C   UNL     1       7.112  -1.837  -5.511  0.00  0.00    +0.027 C 
ATOM     27  C   UNL     1       7.082  -1.046  -6.821  0.00  0.00    +0.031 C 
ATOM     28  C   UNL     1       8.290  -1.365  -4.657  0.00  0.00    +0.031 C 
ATOM     29  C   UNL     1       7.270  -3.327  -5.820  0.00  0.00    +0.031 C 
ENDBRANCH  24  26
ENDBRANCH   5  22
TORSDOF 5
