REMARK  Name = ZINC13063757
REMARK  13 active torsions:
REMARK  status: ('A' for Active; 'I' for Inactive)
REMARK    1  A    between atoms: C_1  and  C_2
REMARK    2  A    between atoms: C_2  and  C_3
REMARK    3  A    between atoms: C_10  and  C_15
REMARK    4  A    between atoms: C_15  and  N_72
REMARK    5  A    between atoms: C_16  and  C_17
REMARK    6  A    between atoms: C_16  and  N_72
REMARK    7  A    between atoms: C_23  and  C_25
REMARK    8  A    between atoms: C_23  and  C_27
REMARK    9  A    between atoms: C_23  and  N_72
REMARK   10  A    between atoms: C_25  and  C_26
REMARK   11  A    between atoms: N_31  and  C_32
REMARK   12  A    between atoms: C_32  and  C_33
REMARK   13  A    between atoms: C_33  and  C_34
REMARK                            x       y       z     vdW  Elec       q    Type
REMARK                         _______ _______ _______ _____ _____    ______ ____
ROOT
ATOM      1  N   UNL     1       3.996  -0.281  -1.397  0.00  0.00    +0.392 N 
ATOM      2  H   UNL     1       3.659  -0.184  -2.362  0.00  0.00    -0.080 HD
ENDROOT
BRANCH   1   3
ATOM      3  C   UNL     1       5.473  -0.341  -1.407  0.00  0.00    -0.036 C 
BRANCH   3  11
ATOM      4  C   UNL     1       7.368  -2.192  -6.999  0.00  0.00    -0.047 A 
ATOM      5  C   UNL     1       7.438  -3.546  -6.699  0.00  0.00    +0.005 A 
ATOM      6  C   UNL     1       7.115  -4.005  -5.441  0.00  0.00    +0.026 A 
ATOM      7  C   UNL     1       6.714  -3.105  -4.459  0.00  0.00    +0.049 A 
ATOM      8  C   UNL     1       6.644  -1.733  -4.767  0.00  0.00    -0.001 A 
ATOM      9  C   UNL     1       6.976  -1.290  -6.051  0.00  0.00    +0.013 A 
ATOM     10  C   UNL     1       6.221  -0.793  -3.727  0.00  0.00    +0.017 A 
ATOM     11  C   UNL     1       5.911  -1.281  -2.500  0.00  0.00    +0.001 A 
ATOM     12  C   UNL     1       6.004  -2.665  -2.242  0.00  0.00    +0.251 A 
ATOM     13  O   UNL     1       5.726  -3.082  -1.131  0.00  0.00    -0.268 OA
ATOM     14  N   UNL     1       6.386  -3.537  -3.192  0.00  0.00    -0.322 N 
ATOM     15  H   UNL     1       6.435  -4.482  -2.981  0.00  0.00    +0.169 HD
BRANCH   4  17
ATOM     16  C   UNL     1       9.220  -1.389  -8.440  0.00  0.00    +0.009 C 
ATOM     17  C   UNL     1       7.726  -1.714  -8.383  0.00  0.00    +0.032 C 
ENDBRANCH   4  17
ENDBRANCH   3  11
ENDBRANCH   1   3
BRANCH   1  18
ATOM     18  C   UNL     1       3.444  -1.525  -0.820  0.00  0.00    -0.042 C 
BRANCH  18  19
ATOM     19  C   UNL     1       1.964  -1.573  -1.096  0.00  0.00    -0.064 A 
ATOM     20  C   UNL     1       1.066  -1.170  -0.125  0.00  0.00    +0.002 A 
ATOM     21  C   UNL     1      -0.292  -1.209  -0.380  0.00  0.00    +0.000 A 
ATOM     22  C   UNL     1      -0.753  -1.661  -1.603  0.00  0.00    +0.000 A 
ATOM     23  C   UNL     1       0.144  -2.070  -2.571  0.00  0.00    +0.000 A 
ATOM     24  C   UNL     1       1.503  -2.025  -2.318  0.00  0.00    +0.002 A 
ENDBRANCH  18  19
ENDBRANCH   1  18
BRANCH   1  25
ATOM     25  C   UNL     1       3.543   0.885  -0.611  0.00  0.00    +0.003 C 
BRANCH  25  26
ATOM     26  C   UNL     1       4.095   0.825   0.790  0.00  0.00    +0.138 A 
ATOM     27  N   UNL     1       5.316   0.497   1.136  0.00  0.00    -0.115 NA
ATOM     28  N   UNL     1       5.397   0.564   2.421  0.00  0.00    -0.023 NA
ATOM     29  N   UNL     1       4.260   0.926   2.902  0.00  0.00    -0.044 NA
ATOM     30  N   UNL     1       3.430   1.096   1.929  0.00  0.00    -0.231 N 
BRANCH  30  31
ATOM     31  C   UNL     1       2.029   1.508   2.041  0.00  0.00    +0.152 C 
BRANCH  31  32
ATOM     32  C   UNL     1       1.939   3.034   1.983  0.00  0.00    +0.058 C 
BRANCH  32  33
ATOM     33  C   UNL     1       0.497   3.457   2.098  0.00  0.00    -0.046 A 
ATOM     34  C   UNL     1      -0.273   3.604   0.960  0.00  0.00    +0.004 A 
ATOM     35  C   UNL     1      -1.597   3.987   1.067  0.00  0.00    +0.000 A 
ATOM     36  C   UNL     1      -2.148   4.233   2.310  0.00  0.00    +0.000 A 
ATOM     37  C   UNL     1      -1.376   4.091   3.448  0.00  0.00    +0.000 A 
ATOM     38  C   UNL     1      -0.053   3.703   3.342  0.00  0.00    +0.004 A 
ENDBRANCH  32  33
ENDBRANCH  31  32
ENDBRANCH  30  31
ENDBRANCH  25  26
BRANCH  25  39
ATOM     39  C   UNL     1       4.029   2.164  -1.296  0.00  0.00    -0.011 C 
ATOM     40  C   UNL     1       3.392   2.272  -2.683  0.00  0.00    +0.002 C 
ENDBRANCH  25  39
ENDBRANCH   1  25
TORSDOF 11
