REMARK  Name = ZINC06630658
REMARK  6 active torsions:
REMARK  status: ('A' for Active; 'I' for Inactive)
REMARK    1  A    between atoms: C_1  and  C_2
REMARK    2  A    between atoms: C_2  and  O_3
REMARK    3  A    between atoms: O_3  and  C_4
REMARK    4  A    between atoms: C_4  and  C_6
REMARK    5  A    between atoms: C_19  and  C_22
REMARK    6  A    between atoms: C_26  and  N_28
REMARK                            x       y       z     vdW  Elec       q    Type
REMARK                         _______ _______ _______ _____ _____    ______ ____
ROOT
ATOM      1  C   UNL     1       0.002  -0.004   0.002  0.00  0.00    +0.059 A 
ATOM      2  C   UNL     1       1.223  -0.686  -0.014  0.00  0.00    +0.017 A 
ATOM      3  C   UNL     1       2.392   0.020  -0.023  0.00  0.00    +0.024 A 
ATOM      4  C   UNL     1       2.372   1.414  -0.017  0.00  0.00    +0.031 A 
ATOM      5  C   UNL     1       1.169   2.104   0.002  0.00  0.00    -0.019 A 
ATOM      6  C   UNL     1      -0.017   1.392   0.010  0.00  0.00    +0.021 A 
ATOM      7  C   UNL     1       1.089   3.607   0.018  0.00  0.00    +0.049 C 
ATOM      8  C   UNL     1       0.346   4.011   1.285  0.00  0.00    -0.023 C 
ATOM      9  C   UNL     1       1.195   4.314   2.235  0.00  0.00    -0.030 C 
ATOM     10  C   UNL     1       2.622   4.161   1.742  0.00  0.00    +0.033 C 
ATOM     11  C   UNL     1       2.469   4.264   0.206  0.00  0.00    +0.029 C 
ATOM     12  C   UNL     1       3.568   3.495  -0.503  0.00  0.00    +0.105 C 
ATOM     13  N   UNL     1       3.581   2.107  -0.031  0.00  0.00    -0.336 N 
ATOM     14  H   UNL     1       4.403   1.684   0.262  0.00  0.00    +0.147 HD
ENDROOT
BRANCH  12  15
ATOM     15  C   UNL     1       3.318   3.518  -1.989  0.00  0.00    -0.025 A 
ATOM     16  C   UNL     1       2.404   2.645  -2.550  0.00  0.00    +0.007 A 
ATOM     17  C   UNL     1       2.170   2.670  -3.911  0.00  0.00    +0.022 A 
ATOM     18  C   UNL     1       2.860   3.560  -4.716  0.00  0.00    +0.071 A 
ATOM     19  C   UNL     1       3.779   4.429  -4.155  0.00  0.00    +0.145 A 
ATOM     20  C   UNL     1       4.008   4.407  -2.792  0.00  0.00    +0.039 A 
ATOM     21 CL   UNL     1       2.572   3.585  -6.428  0.00  0.00    -0.081 Cl
BRANCH  19  22
ATOM     22  N   UNL     1       4.516   5.381  -5.015  0.00  0.00    +0.058 N 
ATOM     23  O   UNL     1       5.325   6.147  -4.521  0.00  0.00    -0.126 OA
ATOM     24  O   UNL     1       4.314   5.400  -6.216  0.00  0.00    -0.126 OA
ENDBRANCH  19  22
ENDBRANCH  12  15
BRANCH   1  25
ATOM     25  C   UNL     1      -1.264  -0.759   0.010  0.00  0.00    +0.339 C 
ATOM     26  O   UNL     1      -2.325  -0.166   0.023  0.00  0.00    -0.245 OA
BRANCH  25  27
ATOM     27  O   UNL     1      -1.245  -2.106   0.003  0.00  0.00    -0.461 OA
BRANCH  27  29
ATOM     28  C   UNL     1      -2.308  -4.297   0.001  0.00  0.00    +0.048 C 
ATOM     29  C   UNL     1      -2.529  -2.784   0.011  0.00  0.00    +0.229 C 
ENDBRANCH  27  29
ENDBRANCH  25  27
ENDBRANCH   1  25
TORSDOF 5
