REMARK  Name = ZINC01339209
REMARK  11 active torsions:
REMARK  status: ('A' for Active; 'I' for Inactive)
REMARK    1  A    between atoms: C_1  and  C_2
REMARK    2  A    between atoms: C_6  and  N_9
REMARK    3  A    between atoms: C_7  and  C_8
REMARK    4  A    between atoms: N_9  and  C_10
REMARK    5  A    between atoms: C_10  and  C_12
REMARK    6  A    between atoms: C_10  and  C_18
REMARK    7  A    between atoms: C_15  and  C_17
REMARK    8  A    between atoms: N_20  and  C_21
REMARK    9  A    between atoms: C_21  and  C_22
REMARK   10  A    between atoms: C_27  and  C_29
REMARK   11  A    between atoms: C_29  and  N_30
REMARK                            x       y       z     vdW  Elec       q    Type
REMARK                         _______ _______ _______ _____ _____    ______ ____
ROOT
ATOM      1  N   UNL     1      -5.696   3.284  -2.020  0.00  0.00    -0.251 N 
ATOM      2  C   UNL     1      -4.497   3.898  -2.051  0.00  0.00    +0.242 C 
ATOM      3  O   UNL     1      -3.999   4.203  -3.115  0.00  0.00    -0.273 OA
ENDROOT
BRANCH   1   9
ATOM      4  C   UNL     1      -6.226   0.029   1.626  0.00  0.00    +0.044 C 
ATOM      5  C   UNL     1      -6.544   1.361   0.997  0.00  0.00    -0.046 A 
ATOM      6  C   UNL     1      -7.405   2.237   1.632  0.00  0.00    +0.004 A 
ATOM      7  C   UNL     1      -7.699   3.460   1.058  0.00  0.00    +0.002 A 
ATOM      8  C   UNL     1      -7.130   3.812  -0.150  0.00  0.00    +0.024 A 
ATOM      9  C   UNL     1      -6.270   2.933  -0.793  0.00  0.00    +0.041 A 
ATOM     10  C   UNL     1      -5.976   1.705  -0.214  0.00  0.00    -0.026 A 
ATOM     11  C   UNL     1      -5.037   0.750  -0.906  0.00  0.00    +0.046 C 
ENDBRANCH   1   9
BRANCH   1  12
ATOM     12  C   UNL     1      -6.399   2.985  -3.270  0.00  0.00    +0.233 C 
BRANCH  12  13
ATOM     13  C   UNL     1      -6.749   1.520  -3.312  0.00  0.00    +0.135 A 
ATOM     14  C   UNL     1      -6.491   0.678  -4.328  0.00  0.00    +0.047 A 
ATOM     15  C   UNL     1      -6.984  -0.590  -3.945  0.00  0.00    +0.045 A 
ATOM     16  C   UNL     1      -7.522  -0.446  -2.721  0.00  0.00    +0.102 A 
ATOM     17  O   UNL     1      -7.376   0.835  -2.342  0.00  0.00    -0.462 OA
ATOM     18  C   UNL     1      -8.177  -1.535  -1.912  0.00  0.00    +0.086 C 
ENDBRANCH  12  13
BRANCH  12  19
ATOM     19  C   UNL     1      -7.661   3.805  -3.345  0.00  0.00    +0.242 C 
ATOM     20  O   UNL     1      -7.945   4.565  -2.444  0.00  0.00    -0.273 OA
ATOM     21  N   UNL     1      -8.473   3.695  -4.415  0.00  0.00    -0.306 N 
ATOM     22  H   UNL     1      -8.246   3.087  -5.136  0.00  0.00    +0.149 HD
BRANCH  21  23
ATOM     23  C   UNL     1      -9.700   4.492  -4.488  0.00  0.00    +0.178 C 
BRANCH  23  24
ATOM     24  C   UNL     1     -10.423   4.185  -5.774  0.00  0.00    +0.122 A 
ATOM     25  C   UNL     1     -11.350   3.225  -5.945  0.00  0.00    +0.046 A 
ATOM     26  C   UNL     1     -11.761   3.288  -7.297  0.00  0.00    +0.041 A 
ATOM     27  C   UNL     1     -11.060   4.283  -7.870  0.00  0.00    +0.195 A 
ATOM     28  O   UNL     1     -10.256   4.826  -6.942  0.00  0.00    -0.466 OA
ENDBRANCH  23  24
ENDBRANCH  21  23
ENDBRANCH  12  19
ENDBRANCH   1  12
BRANCH   2  29
ATOM     29  C   UNL     1      -3.773   4.206  -0.765  0.00  0.00    +0.242 C 
BRANCH  29  30
ATOM     30  N   UNL     1      -2.502   4.869  -1.067  0.00  0.00    -0.235 N 
ATOM     31  C   UNL     1      -1.288   4.262  -1.283  0.00  0.00    +0.090 A 
ATOM     32  C   UNL     1      -0.860   2.939  -1.301  0.00  0.00    +0.029 A 
ATOM     33  C   UNL     1       0.454   2.654  -1.552  0.00  0.00    +0.002 A 
ATOM     34  C   UNL     1       1.363   3.674  -1.798  0.00  0.00    +0.002 A 
ATOM     35  C   UNL     1       0.967   4.980  -1.791  0.00  0.00    +0.032 A 
ATOM     36  C   UNL     1      -0.373   5.299  -1.532  0.00  0.00    +0.113 A 
ATOM     37  N   UNL     1      -1.045   6.465  -1.460  0.00  0.00    -0.129 NA
ATOM     38  N   UNL     1      -2.285   6.250  -1.191  0.00  0.00    -0.064 NA
ENDBRANCH  29  30
ENDBRANCH   2  29
TORSDOF 8
