REMARK  Name = ZINC35451025
REMARK  12 active torsions:
REMARK  status: ('A' for Active; 'I' for Inactive)
REMARK    1  A    between atoms: C_1  and  C_2
REMARK    2  A    between atoms: C_2  and  C_3
REMARK    3  A    between atoms: C_3  and  C_4
REMARK    4  A    between atoms: C_4  and  S_5
REMARK    5  A    between atoms: S_5  and  C_6
REMARK    6  A    between atoms: C_13  and  C_25
REMARK    7  A    between atoms: C_19  and  C_23
REMARK    8  A    between atoms: C_19  and  C_24
REMARK    9  A    between atoms: C_29  and  O_33
REMARK   10  A    between atoms: C_30  and  O_31
REMARK   11  A    between atoms: O_31  and  C_32
REMARK   12  A    between atoms: O_33  and  C_34
REMARK                            x       y       z     vdW  Elec       q    Type
REMARK                         _______ _______ _______ _____ _____    ______ ____
ROOT
ATOM      1  C   UNL     1       1.059  -4.932   3.364  0.00  0.00    +0.171 A 
ATOM      2  N   UNL     1       0.718  -5.156   2.111  0.00  0.00    -0.208 NA
ATOM      3  C   UNL     1       0.751  -6.390   1.597  0.00  0.00    +0.135 A 
ATOM      4  C   UNL     1       1.153  -7.454   2.385  0.00  0.00    +0.069 A 
ATOM      5  C   UNL     1       1.512  -7.211   3.716  0.00  0.00    +0.258 A 
ATOM      6  O   UNL     1       1.869  -8.126   4.441  0.00  0.00    -0.267 OA
ATOM      7  N   UNL     1       1.462  -5.945   4.181  0.00  0.00    -0.302 N 
ATOM      8  C   UNL     1       1.209  -8.845   1.827  0.00  0.00    +0.096 C 
ATOM      9  C   UNL     1       0.401  -8.960   0.559  0.00  0.00    +0.024 C 
ATOM     10  C   UNL     1       0.033  -7.865  -0.139  0.00  0.00    +0.017 C 
ATOM     11  N   UNL     1       0.385  -6.612   0.284  0.00  0.00    -0.302 N 
ATOM     12  C   UNL     1      -0.781  -7.987  -1.404  0.00  0.00    +0.058 C 
ATOM     13  C   UNL     1      -0.445  -9.304  -2.107  0.00  0.00    -0.023 C 
ATOM     14  C   UNL     1      -0.742 -10.456  -1.142  0.00  0.00    +0.086 C 
ATOM     15  C   UNL     1       0.043 -10.249   0.124  0.00  0.00    +0.162 C 
ATOM     16  O   UNL     1       0.375 -11.214   0.784  0.00  0.00    -0.292 OA
ATOM     17  C   UNL     1      -1.303  -9.450  -3.365  0.00  0.00    +0.011 C 
ATOM     18  C   UNL     1       1.037  -9.320  -2.488  0.00  0.00    +0.011 C 
ATOM     19  H   UNL     1       0.376  -5.872  -0.344  0.00  0.00    +0.153 HD
ATOM     20  H   UNL     1       1.710  -5.756   5.099  0.00  0.00    +0.171 HD
ENDROOT
BRANCH   8  21
ATOM     21  C   UNL     1       2.643  -9.200   1.530  0.00  0.00    +0.010 A 
ATOM     22  C   UNL     1       3.248 -10.248   2.197  0.00  0.00    +0.008 A 
ATOM     23  C   UNL     1       4.564 -10.577   1.928  0.00  0.00    +0.004 A 
ATOM     24  C   UNL     1       5.280  -9.857   0.989  0.00  0.00    +0.049 A 
ATOM     25  C   UNL     1       4.680  -8.805   0.317  0.00  0.00    +0.162 A 
ATOM     26  C   UNL     1       3.354  -8.479   0.584  0.00  0.00    +0.166 A 
BRANCH  26  27
ATOM     27  O   UNL     1       2.758  -7.450  -0.078  0.00  0.00    -0.491 OA
ATOM     28  C   UNL     1       3.130  -6.127   0.312  0.00  0.00    +0.277 C 
ENDBRANCH  26  27
BRANCH  25  29
ATOM     29  O   UNL     1       5.384  -8.097  -0.607  0.00  0.00    -0.491 OA
ATOM     30  C   UNL     1       6.738  -8.492  -0.834  0.00  0.00    +0.277 C 
ENDBRANCH  25  29
ENDBRANCH   8  21
BRANCH   1  31
ATOM     31  S   UNL     1       0.999  -3.287   3.994  0.00  0.00    -0.088 S 
BRANCH  31  32
ATOM     32  C   UNL     1       0.420  -2.299   2.587  0.00  0.00    +0.077 C 
BRANCH  32  33
ATOM     33  C   UNL     1       0.322  -0.830   3.002  0.00  0.00    +0.011 C 
BRANCH  33  35
ATOM     34  C   UNL     1      -0.265   1.473   2.230  0.00  0.00    +0.004 C 
ATOM     35  C   UNL     1      -0.166   0.003   1.815  0.00  0.00    -0.003 C 
ENDBRANCH  33  35
ENDBRANCH  32  33
ENDBRANCH  31  32
ENDBRANCH   1  31
TORSDOF 7
