REMARK  Name = ZINC37285378
REMARK  6 active torsions:
REMARK  status: ('A' for Active; 'I' for Inactive)
REMARK    1  A    between atoms: C_1  and  C_2
REMARK    2  A    between atoms: C_7  and  O_10
REMARK    3  A    between atoms: O_10  and  C_11
REMARK    4  A    between atoms: C_11  and  C_12
REMARK    5  A    between atoms: C_15  and  C_19
REMARK    6  A    between atoms: C_17  and  N_18
REMARK                            x       y       z     vdW  Elec       q    Type
REMARK                         _______ _______ _______ _____ _____    ______ ____
ROOT
ATOM      1  C   UNL     1       1.790  -4.182   4.080  0.00  0.00    -0.001 A 
ATOM      2  C   UNL     1       2.780  -3.346   4.562  0.00  0.00    +0.008 A 
ATOM      3  C   UNL     1       3.511  -3.705   5.676  0.00  0.00    +0.013 A 
ATOM      4  C   UNL     1       3.252  -4.916   6.320  0.00  0.00    +0.038 A 
ATOM      5  C   UNL     1       2.254  -5.760   5.834  0.00  0.00    +0.036 A 
ATOM      6  C   UNL     1       1.521  -5.388   4.718  0.00  0.00    +0.031 A 
ENDROOT
BRANCH   4   7
ATOM      7  C   UNL     1       4.035  -5.303   7.514  0.00  0.00    +0.242 C 
ATOM      8  O   UNL     1       3.808  -6.358   8.073  0.00  0.00    -0.270 OA
ATOM      9  N   UNL     1       4.999  -4.486   7.981  0.00  0.00    -0.325 N 
ATOM     10  H   UNL     1       5.180  -3.644   7.535  0.00  0.00    +0.145 HD
ATOM     11  H   UNL     1       5.513  -4.740   8.764  0.00  0.00    +0.145 HD
ENDBRANCH   4   7
BRANCH   6  12
ATOM     12  N   UNL     1       0.515  -6.226   4.230  0.00  0.00    -0.358 N 
ATOM     13  H   UNL     1       0.005  -5.968   3.447  0.00  0.00    +0.142 HD
ATOM     14  H   UNL     1       0.328  -7.068   4.675  0.00  0.00    +0.142 HD
ENDBRANCH   6  12
BRANCH   1  15
ATOM     15  C   UNL     1       0.996  -3.783   2.863  0.00  0.00    +0.197 C 
BRANCH  15  16
ATOM     16  O   UNL     1       1.454  -2.514   2.391  0.00  0.00    -0.372 OA
BRANCH  16  22
ATOM     17  C   UNL     1      -0.019   1.526   0.010  0.00  0.00    +0.007 C 
ATOM     18  C   UNL     1       0.002  -0.004   0.002  0.00  0.00    -0.012 C 
ATOM     19  C   UNL     1       0.718  -0.497  -1.257  0.00  0.00    +0.003 C 
ATOM     20  C   UNL     1       0.739  -2.027  -1.265  0.00  0.00    +0.003 C 
ATOM     21  C   UNL     1       1.479  -2.534  -0.026  0.00  0.00    +0.031 C 
ATOM     22  C   UNL     1       0.763  -2.041   1.233  0.00  0.00    +0.119 C 
ATOM     23  C   UNL     1       0.742  -0.511   1.242  0.00  0.00    +0.035 C 
ENDBRANCH  16  22
ENDBRANCH  15  16
ENDBRANCH   1  15
TORSDOF 5
