REMARK  Name = ZINC36637867
REMARK  8 active torsions:
REMARK  status: ('A' for Active; 'I' for Inactive)
REMARK    1  A    between atoms: C_1  and  C_2
REMARK    2  A    between atoms: C_2  and  N_3
REMARK    3  A    between atoms: N_3  and  C_4
REMARK    4  A    between atoms: N_3  and  C_6
REMARK    5  A    between atoms: C_4  and  C_5
REMARK    6  A    between atoms: C_6  and  C_7
REMARK    7  A    between atoms: C_7  and  N_8
REMARK    8  A    between atoms: C_19  and  C_21
REMARK                            x       y       z     vdW  Elec       q    Type
REMARK                         _______ _______ _______ _____ _____    ______ ____
ROOT
ATOM      1  N   UNL     1       2.292  -3.666  -0.009  0.00  0.00    -0.248 N 
ATOM      2  C   UNL     1       1.465  -4.550  -0.682  0.00  0.00    +0.168 A 
ATOM      3  N   UNL     1       0.357  -4.301  -1.340  0.00  0.00    -0.224 NA
ATOM      4  C   UNL     1      -0.355  -5.271  -1.955  0.00  0.00    +0.080 A 
ATOM      5  C   UNL     1      -1.555  -5.138  -2.690  0.00  0.00    +0.030 A 
ATOM      6  C   UNL     1      -2.155  -6.234  -3.255  0.00  0.00    +0.017 A 
ATOM      7  C   UNL     1      -1.611  -7.505  -3.127  0.00  0.00    +0.019 A 
ATOM      8  C   UNL     1      -0.437  -7.670  -2.415  0.00  0.00    +0.032 A 
ATOM      9  C   UNL     1       0.170  -6.578  -1.846  0.00  0.00    +0.042 A 
ATOM     10  S   UNL     1       1.640  -6.317  -0.882  0.00  0.00    -0.052 S 
ATOM     11 BR   UNL     1      -2.466  -8.994  -3.919  0.00  0.00    -0.050 Br
ATOM     12  C   UNL     1       3.402  -4.119   0.608  0.00  0.00    +0.254 C 
ATOM     13  O   UNL     1       3.723  -5.286   0.502  0.00  0.00    -0.270 OA
ENDROOT
BRANCH  12  14
ATOM     14  C   UNL     1       4.229  -3.195   1.411  0.00  0.00    +0.057 A 
ATOM     15  C   UNL     1       4.764  -2.045   0.828  0.00  0.00    +0.034 A 
ATOM     16  C   UNL     1       5.536  -1.186   1.585  0.00  0.00    +0.042 A 
ATOM     17  C   UNL     1       5.780  -1.464   2.920  0.00  0.00    +0.021 A 
ATOM     18  C   UNL     1       5.253  -2.601   3.504  0.00  0.00    +0.022 A 
ATOM     19  C   UNL     1       4.474  -3.466   2.760  0.00  0.00    +0.053 A 
ATOM     20 CL   UNL     1       3.808  -4.889   3.497  0.00  0.00    -0.083 Cl
ATOM     21 CL   UNL     1       6.202   0.244   0.861  0.00  0.00    -0.084 Cl
ENDBRANCH  12  14
BRANCH   1  22
ATOM     22  C   UNL     1       1.961  -2.240   0.033  0.00  0.00    +0.097 C 
BRANCH  22  23
ATOM     23  C   UNL     1       1.207  -1.929   1.328  0.00  0.00    -0.059 C 
BRANCH  23  24
ATOM     24  N   UNL     1       0.875  -0.499   1.370  0.00  0.00    +0.380 N 
ATOM     25  H   UNL     1       1.716   0.045   1.254  0.00  0.00    -0.082 HD
BRANCH  24  27
ATOM     26  C   UNL     1      -0.304   1.328   0.244  0.00  0.00    -0.017 C 
ATOM     27  C   UNL     1      -0.067  -0.183   0.288  0.00  0.00    -0.082 C 
ENDBRANCH  24  27
BRANCH  24  28
ATOM     28  C   UNL     1       0.259  -0.177   2.665  0.00  0.00    -0.082 C 
ATOM     29  C   UNL     1       1.287  -0.372   3.781  0.00  0.00    -0.017 C 
ENDBRANCH  24  28
ENDBRANCH  23  24
ENDBRANCH  22  23
ENDBRANCH   1  22
TORSDOF 6
