REMARK  Name = ZINC36019779
REMARK  12 active torsions:
REMARK  status: ('A' for Active; 'I' for Inactive)
REMARK    1  A    between atoms: C_1  and  C_2
REMARK    2  A    between atoms: C_2  and  O_3
REMARK    3  A    between atoms: O_3  and  C_4
REMARK    4  A    between atoms: C_4  and  C_6
REMARK    5  A    between atoms: C_7  and  C_24
REMARK    6  A    between atoms: N_8  and  C_21
REMARK    7  A    between atoms: C_12  and  C_14
REMARK    8  A    between atoms: C_18  and  C_20
REMARK    9  A    between atoms: C_21  and  C_22
REMARK   10  A    between atoms: C_24  and  N_25
REMARK   11  A    between atoms: C_29  and  C_32
REMARK   12  A    between atoms: C_33  and  C_35
REMARK                            x       y       z     vdW  Elec       q    Type
REMARK                         _______ _______ _______ _____ _____    ______ ____
ROOT
ATOM      1  C   UNL     1      -2.865  -2.421   0.170  0.00  0.00    +0.080 C 
ATOM      2  C   UNL     1      -3.119  -3.739   0.015  0.00  0.00    +0.041 C 
ATOM      3  N   UNL     1      -4.395  -4.222   0.078  0.00  0.00    -0.254 N 
ATOM      4  C   UNL     1      -5.471  -3.454   0.291  0.00  0.00    +0.307 C 
ATOM      5  O   UNL     1      -6.567  -3.977   0.331  0.00  0.00    -0.252 OA
ATOM      6  N   UNL     1      -5.377  -2.121   0.464  0.00  0.00    -0.288 N 
ATOM      7  C   UNL     1      -4.042  -1.500   0.420  0.00  0.00    +0.144 C 
ATOM      8  H   UNL     1      -6.170  -1.583   0.617  0.00  0.00    +0.151 HD
ENDROOT
BRANCH   7   9
ATOM      9  C   UNL     1      -4.056  -0.457  -0.667  0.00  0.00    -0.022 A 
ATOM     10  C   UNL     1      -4.583  -0.759  -1.908  0.00  0.00    +0.006 A 
ATOM     11  C   UNL     1      -4.595   0.198  -2.905  0.00  0.00    +0.001 A 
ATOM     12  C   UNL     1      -4.080   1.458  -2.661  0.00  0.00    +0.003 A 
ATOM     13  C   UNL     1      -3.554   1.760  -1.419  0.00  0.00    -0.050 A 
ATOM     14  C   UNL     1      -3.546   0.804  -0.420  0.00  0.00    +0.009 A 
ATOM     15  C   UNL     1      -2.993   3.133  -1.153  0.00  0.00    +0.044 C 
ENDBRANCH   7   9
BRANCH   1  16
ATOM     16  C   UNL     1      -1.544  -1.919   0.105  0.00  0.00    +0.339 C 
ATOM     17  O   UNL     1      -0.967  -1.592   1.126  0.00  0.00    -0.245 OA
BRANCH  16  18
ATOM     18  O   UNL     1      -0.924  -1.801  -1.087  0.00  0.00    -0.462 OA
BRANCH  18  20
ATOM     19  C   UNL     1       0.943  -1.227  -2.511  0.00  0.00    +0.048 C 
ATOM     20  C   UNL     1       0.409  -1.287  -1.078  0.00  0.00    +0.229 C 
ENDBRANCH  18  20
ENDBRANCH  16  18
ENDBRANCH   1  16
BRANCH   3  21
ATOM     21  C   UNL     1      -4.597  -5.662  -0.099  0.00  0.00    +0.141 C 
BRANCH  21  22
ATOM     22  C   UNL     1      -4.525  -6.348   1.242  0.00  0.00    -0.015 C 
ATOM     23  C   UNL     1      -5.516  -7.104   1.645  0.00  0.00    +0.005 C 
ENDBRANCH  21  22
ENDBRANCH   3  21
BRANCH   2  24
ATOM     24  C   UNL     1      -1.977  -4.690  -0.231  0.00  0.00    +0.136 C 
BRANCH  24  25
ATOM     25  N   UNL     1      -1.822  -5.579   0.928  0.00  0.00    -0.294 NA
ATOM     26  C   UNL     1      -1.408  -4.825   2.119  0.00  0.00    +0.104 C 
ATOM     27  C   UNL     1      -1.433  -5.751   3.340  0.00  0.00    +0.124 C 
ATOM     28  N   UNL     1      -0.619  -6.939   3.042  0.00  0.00    -0.290 N 
ATOM     29  C   UNL     1      -0.885  -7.670   1.794  0.00  0.00    +0.087 C 
ATOM     30  C   UNL     1      -0.881  -6.669   0.633  0.00  0.00    +0.107 C 
ATOM     31  C   UNL     1       0.203  -8.723   1.573  0.00  0.00    +0.029 C 
ATOM     32  C   UNL     1       0.344  -7.348   3.891  0.00  0.00    +0.282 C 
ATOM     33  O   UNL     1       1.078  -8.268   3.582  0.00  0.00    -0.267 OA
BRANCH  32  34
ATOM     34  C   UNL     1       0.509  -6.684   5.188  0.00  0.00    +0.189 A 
ATOM     35  C   UNL     1       1.514  -6.911   6.084  0.00  0.00    +0.054 A 
ATOM     36  C   UNL     1       1.280  -6.062   7.177  0.00  0.00    +0.042 A 
ATOM     37  C   UNL     1       0.156  -5.363   6.904  0.00  0.00    +0.196 A 
ATOM     38  O   UNL     1      -0.302  -5.737   5.702  0.00  0.00    -0.458 OA
ENDBRANCH  32  34
ENDBRANCH  24  25
ENDBRANCH   2  24
TORSDOF 9
