REMARK  Name = ZINC41003135
REMARK  15 active torsions:
REMARK  status: ('A' for Active; 'I' for Inactive)
REMARK    1  A    between atoms: C_1  and  C_2
REMARK    2  A    between atoms: C_2  and  C_3
REMARK    3  A    between atoms: C_3  and  C_4
REMARK    4  A    between atoms: C_4  and  O_5
REMARK    5  A    between atoms: O_5  and  C_6
REMARK    6  A    between atoms: C_11  and  C_12
REMARK    7  A    between atoms: C_14  and  C_26
REMARK    8  A    between atoms: C_15  and  C_25
REMARK    9  A    between atoms: C_20  and  S_22
REMARK   10  A    between atoms: S_22  and  C_23
REMARK   11  A    between atoms: C_23  and  C_24
REMARK   12  A    between atoms: C_26  and  O_28
REMARK   13  A    between atoms: O_28  and  C_29
REMARK   14  A    between atoms: C_29  and  C_30
REMARK   15  A    between atoms: C_29  and  C_31
REMARK                            x       y       z     vdW  Elec       q    Type
REMARK                         _______ _______ _______ _____ _____    ______ ____
ROOT
ATOM      1  C   UNL     1       2.808  -3.553   4.634  0.00  0.00    +0.183 C 
ATOM      2  C   UNL     1       2.132  -3.931   5.925  0.00  0.00    +0.082 C 
ATOM      3  C   UNL     1       2.788  -4.470   6.965  0.00  0.00    +0.020 C 
ATOM      4  N   UNL     1       4.139  -4.708   6.933  0.00  0.00    -0.287 N 
ATOM      5  C   UNL     1       4.864  -4.138   5.896  0.00  0.00    +0.219 A 
ATOM      6  N   UNL     1       4.257  -3.589   4.815  0.00  0.00    -0.220 N 
ATOM      7  N   UNL     1       5.271  -3.109   3.988  0.00  0.00    -0.141 NA
ATOM      8  C   UNL     1       6.410  -3.386   4.585  0.00  0.00    +0.210 A 
ATOM      9  N   UNL     1       6.155  -4.013   5.743  0.00  0.00    -0.187 NA
ATOM     10  C   UNL     1       2.015  -4.823   8.209  0.00  0.00    +0.061 C 
ATOM     11  H   UNL     1       4.570  -5.255   7.608  0.00  0.00    +0.155 HD
ENDROOT
BRANCH   1  17
ATOM     12  C   UNL     1       1.762  -4.078   2.416  0.00  0.00    +0.126 A 
ATOM     13  C   UNL     1       1.405  -4.978   1.422  0.00  0.00    +0.047 A 
ATOM     14  C   UNL     1       1.692  -6.320   1.571  0.00  0.00    +0.019 A 
ATOM     15  C   UNL     1       2.336  -6.769   2.711  0.00  0.00    +0.018 A 
ATOM     16  C   UNL     1       2.693  -5.874   3.703  0.00  0.00    +0.025 A 
ATOM     17  C   UNL     1       2.413  -4.529   3.555  0.00  0.00    +0.024 A 
ATOM     18 BR   UNL     1       2.729  -8.607   2.912  0.00  0.00    -0.050 Br
BRANCH  12  19
ATOM     19  O   UNL     1       1.480  -2.756   2.272  0.00  0.00    -0.492 OA
BRANCH  19  20
ATOM     20  C   UNL     1       0.808  -2.364   1.073  0.00  0.00    +0.229 C 
BRANCH  20  21
ATOM     21  C   UNL     1       0.578  -0.851   1.090  0.00  0.00    +0.041 C 
BRANCH  21  23
ATOM     22  C   UNL     1      -0.371   1.082  -0.177  0.00  0.00    +0.004 C 
ATOM     23  C   UNL     1      -0.141  -0.431  -0.193  0.00  0.00    -0.000 C 
ENDBRANCH  21  23
ENDBRANCH  20  21
ENDBRANCH  19  20
ENDBRANCH  12  19
ENDBRANCH   1  17
BRANCH   2  24
ATOM     24  C   UNL     1       0.743  -3.708   6.048  0.00  0.00    +0.339 C 
ATOM     25  O   UNL     1       0.319  -2.578   6.202  0.00  0.00    -0.245 OA
BRANCH  24  26
ATOM     26  O   UNL     1      -0.115  -4.749   5.994  0.00  0.00    -0.459 OA
BRANCH  26  27
ATOM     27  C   UNL     1      -1.507  -4.450   6.125  0.00  0.00    +0.171 C 
ATOM     28  C   UNL     1      -2.104  -4.186   4.742  0.00  0.00    +0.052 C 
ATOM     29  C   UNL     1      -2.224  -5.636   6.773  0.00  0.00    +0.052 C 
ENDBRANCH  26  27
ENDBRANCH  24  26
ENDBRANCH   2  24
BRANCH   8  30
ATOM     30  S   UNL     1       8.012  -2.997   3.963  0.00  0.00    -0.085 S 
BRANCH  30  31
ATOM     31  C   UNL     1       9.142  -3.633   5.232  0.00  0.00    +0.074 C 
ATOM     32  C   UNL     1      10.587  -3.357   4.813  0.00  0.00    +0.016 C 
ENDBRANCH  30  31
ENDBRANCH   8  30
TORSDOF 10
