REMARK  Name = ZINC40784250
REMARK  7 active torsions:
REMARK  status: ('A' for Active; 'I' for Inactive)
REMARK    1  A    between atoms: C_1  and  C_2
REMARK    2  A    between atoms: C_5  and  C_8
REMARK    3  A    between atoms: N_10  and  N_11
REMARK    4  A    between atoms: C_13  and  N_30
REMARK    5  A    between atoms: C_14  and  N_18
REMARK    6  A    between atoms: N_18  and  C_19
REMARK    7  A    between atoms: C_27  and  C_29
REMARK                            x       y       z     vdW  Elec       q    Type
REMARK                         _______ _______ _______ _____ _____    ______ ____
ROOT
ATOM      1  N   UNL     1      -0.758  -6.407   1.184  0.00  0.00    -0.247 N 
ATOM      2  C   UNL     1      -0.500  -7.086   2.369  0.00  0.00    +0.161 A 
ATOM      3  C   UNL     1      -0.295  -8.467   2.364  0.00  0.00    +0.107 A 
ATOM      4  C   UNL     1      -0.041  -9.100   3.582  0.00  0.00    +0.149 A 
ATOM      5  N   UNL     1      -0.004  -8.368   4.693  0.00  0.00    -0.219 NA
ATOM      6  C   UNL     1      -0.203  -7.066   4.654  0.00  0.00    +0.225 A 
ATOM      7  N   UNL     1      -0.441  -6.430   3.525  0.00  0.00    -0.217 NA
ATOM      8  H   UNL     1      -0.800  -6.893   0.345  0.00  0.00    +0.172 HD
ENDROOT
BRANCH   1  11
ATOM      9  C   UNL     1      -1.206  -4.361   0.052  0.00  0.00    +0.260 C 
ATOM     10  O   UNL     1      -1.258  -4.970  -0.999  0.00  0.00    -0.269 OA
ATOM     11  N   UNL     1      -0.956  -5.020   1.201  0.00  0.00    -0.231 N 
ATOM     12  H   UNL     1      -0.914  -4.534   2.039  0.00  0.00    +0.173 HD
BRANCH   9  17
ATOM     13  C   UNL     1      -2.023   1.335   0.120  0.00  0.00    +0.044 C 
ATOM     14  C   UNL     1      -1.809  -0.157   0.102  0.00  0.00    -0.050 A 
ATOM     15  C   UNL     1      -1.869  -0.847  -1.096  0.00  0.00    +0.004 A 
ATOM     16  C   UNL     1      -1.674  -2.212  -1.119  0.00  0.00    +0.013 A 
ATOM     17  C   UNL     1      -1.415  -2.898   0.069  0.00  0.00    +0.038 A 
ATOM     18  C   UNL     1      -1.356  -2.195   1.274  0.00  0.00    +0.013 A 
ATOM     19  C   UNL     1      -1.547  -0.829   1.283  0.00  0.00    +0.004 A 
ENDBRANCH   9  17
ENDBRANCH   1  11
BRANCH   3  20
ATOM     20  N   UNL     1      -0.344  -9.200   1.167  0.00  0.00    -0.353 N 
ATOM     21  H   UNL     1      -0.522  -8.746   0.328  0.00  0.00    +0.143 HD
ATOM     22  H   UNL     1      -0.200 -10.159   1.179  0.00  0.00    +0.143 HD
ENDBRANCH   3  20
BRANCH   4  23
ATOM     23  N   UNL     1       0.170 -10.473   3.633  0.00  0.00    -0.297 N 
ATOM     24  H   UNL     1       0.234 -10.986   2.812  0.00  0.00    +0.154 HD
BRANCH  23  25
ATOM     25  C   UNL     1       0.290 -11.114   4.864  0.00  0.00    +0.042 A 
ATOM     26  C   UNL     1      -0.302 -10.577   5.989  0.00  0.00    +0.024 A 
ATOM     27  C   UNL     1      -0.187 -11.211   7.221  0.00  0.00    +0.004 A 
ATOM     28  C   UNL     1       0.509 -12.375   7.353  0.00  0.00    +0.026 A 
ATOM     29  C   UNL     1       1.127 -12.956   6.233  0.00  0.00    +0.048 A 
ATOM     30  C   UNL     1       1.012 -12.321   4.972  0.00  0.00    +0.020 A 
ATOM     31  C   UNL     1       1.627 -12.908   3.853  0.00  0.00    +0.013 A 
ATOM     32  C   UNL     1       2.311 -14.078   4.032  0.00  0.00    +0.021 A 
ATOM     33  C   UNL     1       2.382 -14.654   5.298  0.00  0.00    +0.013 A 
ATOM     34  N   UNL     1       1.815 -14.098   6.342  0.00  0.00    -0.358 N 
ATOM     35  C   UNL     1       3.140 -15.944   5.475  0.00  0.00    +0.063 C 
ATOM     36  H   UNL     1       1.887 -14.529   7.208  0.00  0.00    +0.166 HD
ENDBRANCH  23  25
ENDBRANCH   4  23
TORSDOF 5
