REMARK  Name = ZINC23524148
REMARK  7 active torsions:
REMARK  status: ('A' for Active; 'I' for Inactive)
REMARK    1  A    between atoms: C_1  and  C_2
REMARK    2  A    between atoms: C_5  and  N_9
REMARK    3  A    between atoms: C_6  and  C_8
REMARK    4  A    between atoms: C_10  and  S_14
REMARK    5  A    between atoms: S_14  and  C_15
REMARK    6  A    between atoms: C_15  and  C_17
REMARK    7  A    between atoms: C_15  and  C_18
REMARK                            x       y       z     vdW  Elec       q    Type
REMARK                         _______ _______ _______ _____ _____    ______ ____
ROOT
ATOM      1  N   UNL     1      -3.620  -0.386  -2.465  0.00  0.00    -0.187 N 
ATOM      2  C   UNL     1      -2.299  -0.317  -2.161  0.00  0.00    +0.215 A 
ATOM      3  N   UNL     1      -1.712   0.335  -3.141  0.00  0.00    -0.101 NA
ATOM      4  N   UNL     1      -2.569   0.669  -4.037  0.00  0.00    -0.022 NA
ATOM      5  N   UNL     1      -3.748   0.272  -3.700  0.00  0.00    -0.038 NA
ENDROOT
BRANCH   1  10
ATOM      6  C   UNL     1      -7.740  -2.809   0.596  0.00  0.00    +0.044 C 
ATOM      7  C   UNL     1      -6.646  -2.166  -0.216  0.00  0.00    -0.050 A 
ATOM      8  C   UNL     1      -5.469  -2.852  -0.455  0.00  0.00    +0.005 A 
ATOM      9  C   UNL     1      -4.467  -2.267  -1.204  0.00  0.00    +0.028 A 
ATOM     10  C   UNL     1      -4.638  -0.985  -1.709  0.00  0.00    +0.073 A 
ATOM     11  C   UNL     1      -5.820  -0.299  -1.468  0.00  0.00    -0.025 A 
ATOM     12  C   UNL     1      -6.821  -0.891  -0.723  0.00  0.00    +0.008 A 
ATOM     13  C   UNL     1      -6.012   1.091  -2.019  0.00  0.00    +0.046 C 
ENDBRANCH   1  10
BRANCH   2  14
ATOM     14  S   UNL     1      -1.520  -0.970  -0.722  0.00  0.00    -0.076 S 
BRANCH  14  15
ATOM     15  C   UNL     1       0.194  -0.485  -1.045  0.00  0.00    +0.081 C 
ATOM     16  C   UNL     1       0.302   1.041  -1.038  0.00  0.00    +0.024 C 
BRANCH  15  17
ATOM     17  C   UNL     1       1.088  -1.057   0.025  0.00  0.00    -0.034 A 
ATOM     18  C   UNL     1       0.891  -0.710   1.348  0.00  0.00    +0.007 A 
ATOM     19  C   UNL     1       1.707  -1.238   2.331  0.00  0.00    +0.038 A 
ATOM     20  C   UNL     1       2.729  -2.107   1.988  0.00  0.00    +0.123 A 
ATOM     21  C   UNL     1       2.929  -2.450   0.661  0.00  0.00    +0.038 A 
ATOM     22  C   UNL     1       2.108  -1.925  -0.319  0.00  0.00    +0.007 A 
ATOM     23  F   UNL     1       3.531  -2.619   2.946  0.00  0.00    -0.205 F 
ENDBRANCH  15  17
ENDBRANCH  14  15
ENDBRANCH   2  14
TORSDOF 4
