REMARK  Name = ZINC13498502
REMARK  16 active torsions:
REMARK  status: ('A' for Active; 'I' for Inactive)
REMARK    1  A    between atoms: C_1  and  C_2
REMARK    2  A    between atoms: C_2  and  C_3
REMARK    3  A    between atoms: C_3  and  C_4
REMARK    4  A    between atoms: C_3  and  C_5
REMARK    5  A    between atoms: C_3  and  N_6
REMARK    6  A    between atoms: C_7  and  C_11
REMARK    7  A    between atoms: C_11  and  C_13
REMARK    8  A    between atoms: C_11  and  N_74
REMARK    9  A    between atoms: C_13  and  C_14
REMARK   10  A    between atoms: C_13  and  C_15
REMARK   11  A    between atoms: C_16  and  C_17
REMARK   12  A    between atoms: C_16  and  N_74
REMARK   13  A    between atoms: C_17  and  C_18
REMARK   14  A    between atoms: C_24  and  C_25
REMARK   15  A    between atoms: C_24  and  N_74
REMARK   16  A    between atoms: C_30  and  C_37
REMARK                            x       y       z     vdW  Elec       q    Type
REMARK                         _______ _______ _______ _____ _____    ______ ____
ROOT
ATOM      1  N   UNL     1       0.468   0.594   3.975  0.00  0.00    +0.390 N 
ATOM      2  H   UNL     1       0.087   1.283   4.634  0.00  0.00    -0.080 HD
ENDROOT
BRANCH   1   3
ATOM      3  C   UNL     1       1.001   1.304   2.793  0.00  0.00    +0.006 C 
BRANCH   3   5
ATOM      4  N   UNL     1      -0.496   2.297   0.983  0.00  0.00    -0.225 N 
ATOM      5  C   UNL     1      -0.067   2.223   2.256  0.00  0.00    +0.139 A 
ATOM      6  N   UNL     1      -0.754   3.106   2.938  0.00  0.00    -0.115 NA
ATOM      7  N   UNL     1      -1.570   3.687   2.127  0.00  0.00    -0.023 NA
ATOM      8  N   UNL     1      -1.417   3.201   0.945  0.00  0.00    -0.043 NA
BRANCH   4   9
ATOM      9  C   UNL     1      -0.014   1.498  -0.147  0.00  0.00    +0.061 C 
ATOM     10  C   UNL     1      -0.277   0.017   0.127  0.00  0.00    +0.036 C 
ATOM     11  C   UNL     1       1.489   1.725  -0.326  0.00  0.00    +0.036 C 
BRANCH   9  13
ATOM     12  C   UNL     1      -0.245   1.086  -2.600  0.00  0.00    +0.006 C 
ATOM     13  C   UNL     1      -0.749   1.920  -1.420  0.00  0.00    +0.026 C 
ENDBRANCH   9  13
ENDBRANCH   4   9
ENDBRANCH   3   5
BRANCH   3  14
ATOM     14  C   UNL     1       2.219   2.129   3.213  0.00  0.00    -0.024 C 
ATOM     15  C   UNL     1       2.751   2.903   2.005  0.00  0.00    +0.006 C 
ATOM     16  C   UNL     1       1.815   3.113   4.312  0.00  0.00    +0.006 C 
ENDBRANCH   3  14
ENDBRANCH   1   3
BRANCH   1  17
ATOM     17  C   UNL     1      -0.612  -0.328   3.566  0.00  0.00    -0.073 C 
BRANCH  17  18
ATOM     18  C   UNL     1      -1.906   0.473   3.409  0.00  0.00    +0.016 C 
BRANCH  18  19
ATOM     19  C   UNL     1      -3.054  -0.471   3.159  0.00  0.00    -0.049 A 
ATOM     20  C   UNL     1      -3.392  -0.820   1.865  0.00  0.00    +0.003 A 
ATOM     21  C   UNL     1      -4.442  -1.690   1.636  0.00  0.00    +0.000 A 
ATOM     22  C   UNL     1      -5.160  -2.202   2.700  0.00  0.00    +0.000 A 
ATOM     23  C   UNL     1      -4.826  -1.848   3.994  0.00  0.00    +0.000 A 
ATOM     24  C   UNL     1      -3.772  -0.983   4.223  0.00  0.00    +0.003 A 
ENDBRANCH  18  19
ENDBRANCH  17  18
ENDBRANCH   1  17
BRANCH   1  25
ATOM     25  C   UNL     1       1.551  -0.160   4.642  0.00  0.00    -0.037 C 
BRANCH  25  26
ATOM     26  C   UNL     1       1.004  -0.792   5.896  0.00  0.00    +0.001 A 
ATOM     27  C   UNL     1       0.598  -2.086   5.878  0.00  0.00    +0.017 A 
ATOM     28  C   UNL     1       0.072  -2.671   7.113  0.00  0.00    -0.001 A 
ATOM     29  C   UNL     1      -0.362  -4.000   7.156  0.00  0.00    +0.010 A 
ATOM     30  C   UNL     1      -0.847  -4.516   8.324  0.00  0.00    +0.004 A 
ATOM     31  C   UNL     1      -0.913  -3.733   9.469  0.00  0.00    -0.048 A 
ATOM     32  C   UNL     1      -0.491  -2.421   9.449  0.00  0.00    +0.029 A 
ATOM     33  C   UNL     1       0.007  -1.874   8.271  0.00  0.00    +0.049 A 
ATOM     34  N   UNL     1       0.437  -0.565   8.223  0.00  0.00    -0.322 N 
ATOM     35  H   UNL     1       0.391  -0.017   9.022  0.00  0.00    +0.169 HD
ATOM     36  C   UNL     1       0.923  -0.038   7.086  0.00  0.00    +0.251 A 
ATOM     37  O   UNL     1       1.299   1.121   7.081  0.00  0.00    -0.268 OA
ATOM     38  C   UNL     1      -1.452  -4.324  10.746  0.00  0.00    +0.044 C 
ENDBRANCH  25  26
ENDBRANCH   1  25
TORSDOF 10
