REMARK  Name = ZINC61564032
REMARK  4 active torsions:
REMARK  status: ('A' for Active; 'I' for Inactive)
REMARK    1  A    between atoms: C_1  and  C_2
REMARK    2  A    between atoms: C_7  and  C_10
REMARK    3  A    between atoms: C_12  and  C_15
REMARK    4  A    between atoms: C_20  and  N_21
REMARK                            x       y       z     vdW  Elec       q    Type
REMARK                         _______ _______ _______ _____ _____    ______ ____
ROOT
ATOM      1  C   UNL     1       0.983  -2.943   3.110  0.00  0.00    +0.175 A 
ATOM      2  N   UNL     1       2.115  -3.624   2.921  0.00  0.00    -0.191 NA
ATOM      3  C   UNL     1       2.753  -3.760   4.064  0.00  0.00    +0.260 A 
ATOM      4  O   UNL     1       2.025  -3.156   5.020  0.00  0.00    -0.333 OA
ATOM      5  N   UNL     1       0.879  -2.627   4.370  0.00  0.00    -0.061 NA
ENDROOT
BRANCH   3   6
ATOM      6  C   UNL     1       4.039  -4.453   4.261  0.00  0.00    +0.063 A 
ATOM      7  C   UNL     1       4.253  -5.712   3.694  0.00  0.00    +0.056 A 
ATOM      8  C   UNL     1       5.458  -6.356   3.882  0.00  0.00    +0.159 A 
ATOM      9  C   UNL     1       6.462  -5.757   4.634  0.00  0.00    +0.160 A 
ATOM     10  C   UNL     1       6.262  -4.511   5.200  0.00  0.00    +0.064 A 
ATOM     11  C   UNL     1       5.057  -3.849   5.014  0.00  0.00    +0.040 A 
ATOM     12  F   UNL     1       7.639  -6.395   4.813  0.00  0.00    -0.202 F 
ATOM     13  F   UNL     1       5.663  -7.573   3.334  0.00  0.00    -0.202 F 
BRANCH  11  14
ATOM     14  N   UNL     1       4.857  -2.592   5.579  0.00  0.00    -0.357 N 
ATOM     15  H   UNL     1       4.050  -2.092   5.377  0.00  0.00    +0.142 HD
ATOM     16  H   UNL     1       5.524  -2.215   6.174  0.00  0.00    +0.142 HD
ENDBRANCH  11  14
ENDBRANCH   3   6
BRANCH   1  22
ATOM     17  C   UNL     1      -1.294   0.813   0.766  0.00  0.00    +0.007 C 
ATOM     18  C   UNL     1      -1.159  -0.708   0.855  0.00  0.00    -0.013 C 
ATOM     19  C   UNL     1      -2.518  -1.321   1.198  0.00  0.00    +0.003 C 
ATOM     20  C   UNL     1      -2.384  -2.843   1.287  0.00  0.00    +0.001 C 
ATOM     21  C   UNL     1      -1.372  -3.202   2.378  0.00  0.00    +0.011 C 
ATOM     22  C   UNL     1      -0.013  -2.589   2.035  0.00  0.00    +0.061 C 
ATOM     23  C   UNL     1      -0.148  -1.067   1.946  0.00  0.00    +0.014 C 
ENDBRANCH   1  22
TORSDOF 3
