REMARK  Name = ZINC09869572
REMARK  8 active torsions:
REMARK  status: ('A' for Active; 'I' for Inactive)
REMARK    1  A    between atoms: C_1  and  C_2
REMARK    2  A    between atoms: C_2  and  C_4
REMARK    3  A    between atoms: C_2  and  S_18
REMARK    4  A    between atoms: N_6  and  C_7
REMARK    5  A    between atoms: C_8  and  C_15
REMARK    6  A    between atoms: S_18  and  C_19
REMARK    7  A    between atoms: C_22  and  C_27
REMARK    8  A    between atoms: N_23  and  C_24
REMARK                            x       y       z     vdW  Elec       q    Type
REMARK                         _______ _______ _______ _____ _____    ______ ____
ROOT
ATOM      1  C   UNL     1       3.412  10.704  -1.169  0.00  0.00    +0.231 C 
ATOM      2  O   UNL     1       4.340  10.501  -1.922  0.00  0.00    -0.274 OA
ATOM      3  N   UNL     1       3.217  11.936  -0.656  0.00  0.00    -0.278 N 
ATOM      4  H   UNL     1       2.475  12.098  -0.054  0.00  0.00    +0.155 HD
ENDROOT
BRANCH   3   5
ATOM      5  C   UNL     1       4.079  12.970  -0.990  0.00  0.00    +0.084 A 
ATOM      6  C   UNL     1       4.040  14.290  -0.575  0.00  0.00    +0.068 A 
ATOM      7  C   UNL     1       5.080  15.188  -1.075  0.00  0.00    -0.023 A 
ATOM      8  C   UNL     1       5.972  14.621  -1.909  0.00  0.00    -0.004 A 
ATOM      9  S   UNL     1       5.459  12.925  -2.034  0.00  0.00    -0.077 S 
ATOM     10  C   UNL     1       7.006  15.606  -2.382  0.00  0.00    +0.043 C 
ATOM     11  C   UNL     1       6.903  16.786  -1.391  0.00  0.00    +0.010 C 
ATOM     12  C   UNL     1       5.444  16.664  -0.908  0.00  0.00    +0.037 C 
BRANCH   6  13
ATOM     13  C   UNL     1       2.997  14.769   0.337  0.00  0.00    +0.244 C 
ATOM     14  O   UNL     1       3.174  14.726   1.540  0.00  0.00    -0.270 OA
ATOM     15  N   UNL     1       1.842  15.257  -0.157  0.00  0.00    -0.325 N 
ATOM     16  H   UNL     1       1.701  15.290  -1.116  0.00  0.00    +0.145 HD
ATOM     17  H   UNL     1       1.152  15.574   0.446  0.00  0.00    +0.145 HD
ENDBRANCH   6  13
ENDBRANCH   3   5
BRANCH   1  19
ATOM     18  C   UNL     1       1.257   9.613  -1.731  0.00  0.00    +0.029 C 
ATOM     19  C   UNL     1       2.475   9.581  -0.806  0.00  0.00    +0.137 C 
BRANCH  19  20
ATOM     20  S   UNL     1       3.332   7.997  -0.993  0.00  0.00    -0.073 S 
BRANCH  20  21
ATOM     21  C   UNL     1       2.095   6.905  -0.376  0.00  0.00    +0.193 A 
ATOM     22  N   UNL     1       0.908   7.246   0.073  0.00  0.00    -0.122 NA
ATOM     23  N   UNL     1       0.259   6.202   0.446  0.00  0.00    -0.128 NA
ATOM     24  C   UNL     1       0.992   5.127   0.257  0.00  0.00    +0.172 A 
ATOM     25  N   UNL     1       2.193   5.545  -0.270  0.00  0.00    -0.299 N 
BRANCH  24  26
ATOM     26  C   UNL     1       0.604   3.740   0.559  0.00  0.00    +0.056 A 
ATOM     27  C   UNL     1      -0.642   3.227   0.821  0.00  0.00    +0.019 A 
ATOM     28  C   UNL     1      -0.762   1.879   1.075  0.00  0.00    +0.008 A 
ATOM     29  C   UNL     1       0.352   1.102   1.067  0.00  0.00    +0.046 A 
ATOM     30  S   UNL     1       1.632   2.285   0.680  0.00  0.00    -0.094 S 
ENDBRANCH  24  26
BRANCH  25  31
ATOM     31  C   UNL     1       3.336   4.709  -0.643  0.00  0.00    +0.091 C 
ATOM     32  C   UNL     1       4.686   5.402  -0.836  0.00  0.00    +0.027 C 
ATOM     33  C   UNL     1       3.911   4.884  -2.050  0.00  0.00    +0.027 C 
ENDBRANCH  25  31
ENDBRANCH  20  21
ENDBRANCH  19  20
ENDBRANCH   1  19
TORSDOF 7
