REMARK  Name = ZINC38546900
REMARK  9 active torsions:
REMARK  status: ('A' for Active; 'I' for Inactive)
REMARK    1  A    between atoms: C_1  and  C_2
REMARK    2  A    between atoms: N_8  and  C_9
REMARK    3  A    between atoms: C_9  and  C_11
REMARK    4  A    between atoms: C_9  and  C_19
REMARK    5  A    between atoms: C_14  and  O_17
REMARK    6  A    between atoms: O_17  and  C_18
REMARK    7  A    between atoms: C_21  and  C_32
REMARK    8  A    between atoms: C_23  and  N_24
REMARK    9  A    between atoms: C_25  and  C_27
REMARK                            x       y       z     vdW  Elec       q    Type
REMARK                         _______ _______ _______ _____ _____    ______ ____
ROOT
ATOM      1  C   UNL     1      -0.043  -2.200   3.637  0.00  0.00    +0.135 C 
ENDROOT
BRANCH   1   9
ATOM      2  C   UNL     1       3.394  -5.781   4.917  0.00  0.00    +0.044 C 
ATOM      3  C   UNL     1       2.493  -5.542   3.733  0.00  0.00    -0.046 A 
ATOM      4  C   UNL     1       2.466  -6.435   2.669  0.00  0.00    +0.021 A 
ATOM      5  C   UNL     1       1.629  -6.187   1.600  0.00  0.00    +0.084 A 
ATOM      6  N   UNL     1       0.858  -5.116   1.577  0.00  0.00    -0.350 N 
ATOM      7  C   UNL     1       0.856  -4.242   2.571  0.00  0.00    +0.097 A 
ATOM      8  C   UNL     1       1.670  -4.431   3.683  0.00  0.00    +0.045 A 
ATOM      9  N   UNL     1       0.028  -3.127   2.505  0.00  0.00    -0.320 N 
ATOM     10  H   UNL     1      -0.502  -2.963   1.710  0.00  0.00    +0.148 HD
ATOM     11  H   UNL     1       0.280  -4.966   0.813  0.00  0.00    +0.166 HD
ENDBRANCH   1   9
BRANCH   1  12
ATOM     12  C   UNL     1      -1.375  -1.494   3.626  0.00  0.00    -0.023 A 
ATOM     13  C   UNL     1      -1.872  -0.977   2.444  0.00  0.00    +0.009 A 
ATOM     14  C   UNL     1      -3.092  -0.330   2.431  0.00  0.00    +0.046 A 
ATOM     15  C   UNL     1      -3.819  -0.199   3.605  0.00  0.00    +0.120 A 
ATOM     16  C   UNL     1      -3.319  -0.719   4.790  0.00  0.00    +0.046 A 
ATOM     17  C   UNL     1      -2.100  -1.370   4.796  0.00  0.00    +0.009 A 
BRANCH  15  18
ATOM     18  O   UNL     1      -5.020   0.438   3.595  0.00  0.00    -0.495 OA
ATOM     19  C   UNL     1      -5.713   0.535   4.840  0.00  0.00    +0.277 C 
ENDBRANCH  15  18
ENDBRANCH   1  12
BRANCH   1  20
ATOM     20  C   UNL     1       1.064  -1.184   3.525  0.00  0.00    +0.006 A 
ATOM     21  C   UNL     1       1.601  -0.860   2.293  0.00  0.00    +0.018 A 
ATOM     22  C   UNL     1       2.595   0.057   2.228  0.00  0.00    -0.011 A 
ATOM     23  S   UNL     1       2.807   0.501   3.944  0.00  0.00    -0.078 S 
ATOM     24  C   UNL     1       1.551  -0.563   4.636  0.00  0.00    +0.078 A 
ATOM     25  C   UNL     1       3.333   0.571   1.018  0.00  0.00    +0.051 C 
BRANCH  24  26
ATOM     26  N   UNL     1       1.169  -0.720   5.970  0.00  0.00    -0.273 N 
ATOM     27  C   UNL     1       1.781  -0.005   6.935  0.00  0.00    +0.284 C 
ATOM     28  O   UNL     1       2.667   0.778   6.644  0.00  0.00    -0.266 OA
ATOM     29  H   UNL     1       0.464  -1.344   6.202  0.00  0.00    +0.156 HD
BRANCH  27  30
ATOM     30  C   UNL     1       1.380  -0.170   8.336  0.00  0.00    +0.189 A 
ATOM     31  C   UNL     1       1.910   0.493   9.406  0.00  0.00    +0.054 A 
ATOM     32  C   UNL     1       1.233   0.029  10.544  0.00  0.00    +0.042 A 
ATOM     33  C   UNL     1       0.330  -0.885  10.124  0.00  0.00    +0.196 A 
ATOM     34  O   UNL     1       0.418  -0.998   8.793  0.00  0.00    -0.458 OA
ENDBRANCH  27  30
ENDBRANCH  24  26
ENDBRANCH   1  20
TORSDOF 6
