REMARK  Name = ZINC34831366
REMARK  11 active torsions:
REMARK  status: ('A' for Active; 'I' for Inactive)
REMARK    1  A    between atoms: C_1  and  C_2
REMARK    2  A    between atoms: C_2  and  N_3
REMARK    3  A    between atoms: N_6  and  C_9
REMARK    4  A    between atoms: C_10  and  C_22
REMARK    5  A    between atoms: C_11  and  C_21
REMARK    6  A    between atoms: N_13  and  C_14
REMARK    7  A    between atoms: C_22  and  N_23
REMARK    8  A    between atoms: N_23  and  C_24
REMARK    9  A    between atoms: C_24  and  C_25
REMARK   10  A    between atoms: C_24  and  C_26
REMARK   11  A    between atoms: N_29  and  C_30
REMARK                            x       y       z     vdW  Elec       q    Type
REMARK                         _______ _______ _______ _____ _____    ______ ____
ROOT
ATOM      1  C   UNL     1       0.211  -2.936   4.315  0.00  0.00    +0.130 A 
ATOM      2  C   UNL     1       0.521  -4.260   4.258  0.00  0.00    +0.032 A 
ATOM      3  C   UNL     1       0.281  -4.812   5.520  0.00  0.00    +0.067 A 
ATOM      4  N   UNL     1      -0.155  -3.864   6.311  0.00  0.00    -0.170 NA
ATOM      5  N   UNL     1      -0.205  -2.668   5.583  0.00  0.00    -0.218 N 
ATOM      6  C   UNL     1       0.488  -6.254   5.905  0.00  0.00    +0.068 C 
ENDROOT
BRANCH   1  10
ATOM      7  N   UNL     1       0.083   0.371   1.843  0.00  0.00    +0.382 N 
ATOM      8  C   UNL     1       1.036   0.284   2.957  0.00  0.00    -0.060 C 
ATOM      9  C   UNL     1       1.498  -1.168   3.121  0.00  0.00    +0.088 C 
ATOM     10  N   UNL     1       0.309  -2.021   3.271  0.00  0.00    -0.318 N 
ATOM     11  C   UNL     1      -0.774  -1.881   2.285  0.00  0.00    +0.088 C 
ATOM     12  C   UNL     1      -1.129  -0.396   2.160  0.00  0.00    -0.060 C 
ATOM     13  H   UNL     1       0.509  -0.005   1.009  0.00  0.00    -0.082 HD
BRANCH   7  15
ATOM     14  C   UNL     1       0.964   2.553   1.164  0.00  0.00    -0.017 C 
ATOM     15  C   UNL     1      -0.275   1.777   1.616  0.00  0.00    -0.082 C 
ENDBRANCH   7  15
ENDBRANCH   1  10
BRANCH   5  16
ATOM     16  C   UNL     1      -0.613  -1.420   6.073  0.00  0.00    +0.070 A 
ATOM     17  C   UNL     1       0.152  -0.289   5.818  0.00  0.00    +0.028 A 
ATOM     18  C   UNL     1      -0.252   0.940   6.301  0.00  0.00    +0.005 A 
ATOM     19  C   UNL     1      -1.417   1.047   7.038  0.00  0.00    +0.038 A 
ATOM     20  C   UNL     1      -2.182  -0.078   7.295  0.00  0.00    +0.125 A 
ATOM     21  C   UNL     1      -1.785  -1.311   6.808  0.00  0.00    +0.066 A 
ATOM     22  F   UNL     1      -3.320   0.029   8.015  0.00  0.00    -0.205 F 
ENDBRANCH   5  16
BRANCH   2  23
ATOM     23  C   UNL     1       1.030  -5.001   3.049  0.00  0.00    +0.150 C 
BRANCH  23  24
ATOM     24  N   UNL     1       2.489  -5.115   3.125  0.00  0.00    -0.279 N 
ATOM     25  C   UNL     1       3.269  -4.233   2.469  0.00  0.00    +0.303 C 
ATOM     26  O   UNL     1       2.766  -3.293   1.885  0.00  0.00    -0.253 OA
ATOM     27  N   UNL     1       4.607  -4.394   2.460  0.00  0.00    -0.296 N 
ATOM     28  H   UNL     1       5.004  -5.182   2.862  0.00  0.00    +0.151 HD
BRANCH  27  29
ATOM     29  C   UNL     1       5.463  -3.376   1.844  0.00  0.00    +0.074 C 
ATOM     30  C   UNL     1       5.569  -3.642   0.341  0.00  0.00    +0.022 C 
ATOM     31  C   UNL     1       6.462  -2.579  -0.302  0.00  0.00    +0.002 C 
ATOM     32  C   UNL     1       7.856  -2.637   0.325  0.00  0.00    +0.000 C 
ATOM     33  C   UNL     1       7.750  -2.372   1.828  0.00  0.00    +0.002 C 
ATOM     34  C   UNL     1       6.857  -3.434   2.472  0.00  0.00    +0.022 C 
ENDBRANCH  27  29
BRANCH  24  35
ATOM     35  C   UNL     1       3.100  -6.188   3.914  0.00  0.00    +0.072 C 
ATOM     36  C   UNL     1       3.858  -7.137   2.984  0.00  0.00    +0.028 C 
ATOM     37  C   UNL     1       4.072  -5.584   4.930  0.00  0.00    +0.028 C 
ENDBRANCH  24  35
ENDBRANCH  23  24
ENDBRANCH   2  23
TORSDOF 7
