REMARK  Name = ZINC34774410
REMARK  10 active torsions:
REMARK  status: ('A' for Active; 'I' for Inactive)
REMARK    1  A    between atoms: C_1  and  C_2
REMARK    2  A    between atoms: C_5  and  C_9
REMARK    3  A    between atoms: C_6  and  C_8
REMARK    4  A    between atoms: C_9  and  N_10
REMARK    5  A    between atoms: C_18  and  C_30
REMARK    6  A    between atoms: C_23  and  S_25
REMARK    7  A    between atoms: S_25  and  C_26
REMARK    8  A    between atoms: C_26  and  C_27
REMARK    9  A    between atoms: C_27  and  C_28
REMARK   10  A    between atoms: C_27  and  C_29
REMARK                            x       y       z     vdW  Elec       q    Type
REMARK                         _______ _______ _______ _____ _____    ______ ____
ROOT
ATOM      1  N   UNL     1      -3.133  -3.999   1.642  0.00  0.00    +0.384 N 
ATOM      2  C   UNL     1      -4.173  -4.819   2.274  0.00  0.00    -0.059 C 
ATOM      3  C   UNL     1      -4.035  -6.270   1.802  0.00  0.00    +0.088 C 
ATOM      4  N   UNL     1      -4.059  -6.287   0.332  0.00  0.00    -0.318 N 
ATOM      5  C   UNL     1      -3.158  -5.371  -0.387  0.00  0.00    +0.088 C 
ATOM      6  C   UNL     1      -3.338  -3.962   0.189  0.00  0.00    -0.059 C 
ATOM      7  C   UNL     1      -4.904  -7.138  -0.357  0.00  0.00    +0.134 A 
ATOM      8  C   UNL     1      -4.620  -8.529  -0.427  0.00  0.00    +0.055 A 
ATOM      9  C   UNL     1      -3.506  -9.280   0.143  0.00  0.00    +0.002 A 
ATOM     10  C   UNL     1      -3.449 -10.616  -0.061  0.00  0.00    +0.056 A 
ATOM     11  S   UNL     1      -4.901 -10.950  -1.039  0.00  0.00    -0.076 S 
ATOM     12  C   UNL     1      -5.548  -9.303  -1.153  0.00  0.00    +0.115 A 
ATOM     13  N   UNL     1      -6.605  -8.757  -1.723  0.00  0.00    -0.215 NA
ATOM     14  C   UNL     1      -6.820  -7.452  -1.625  0.00  0.00    +0.191 A 
ATOM     15  N   UNL     1      -5.987  -6.667  -0.951  0.00  0.00    -0.206 NA
ATOM     16  H   UNL     1      -2.227  -4.396   1.843  0.00  0.00    -0.081 HD
ENDROOT
BRANCH   9  17
ATOM     17  C   UNL     1      -2.456  -8.591   0.931  0.00  0.00    -0.017 A 
ATOM     18  C   UNL     1      -1.689  -7.584   0.345  0.00  0.00    +0.008 A 
ATOM     19  C   UNL     1      -0.714  -6.946   1.083  0.00  0.00    +0.001 A 
ATOM     20  C   UNL     1      -0.495  -7.304   2.402  0.00  0.00    +0.000 A 
ATOM     21  C   UNL     1      -1.252  -8.302   2.988  0.00  0.00    +0.001 A 
ATOM     22  C   UNL     1      -2.235  -8.943   2.262  0.00  0.00    +0.008 A 
ENDBRANCH   9  17
BRANCH   1  23
ATOM     23  C   UNL     1      -3.196  -2.632   2.178  0.00  0.00    -0.043 C 
BRANCH  23  28
ATOM     24  C   UNL     1      -1.924  -2.715   7.814  0.00  0.00    +0.044 C 
ATOM     25  C   UNL     1      -2.256  -2.694   6.344  0.00  0.00    -0.050 A 
ATOM     26  C   UNL     1      -3.574  -2.630   5.934  0.00  0.00    +0.003 A 
ATOM     27  C   UNL     1      -3.879  -2.610   4.586  0.00  0.00    +0.002 A 
ATOM     28  C   UNL     1      -2.864  -2.653   3.648  0.00  0.00    -0.061 A 
ATOM     29  C   UNL     1      -1.546  -2.716   4.058  0.00  0.00    -0.049 A 
ATOM     30  C   UNL     1      -1.241  -2.732   5.406  0.00  0.00    +0.007 A 
ATOM     31  C   UNL     1      -0.440  -2.764   3.035  0.00  0.00    +0.044 C 
ENDBRANCH  23  28
ENDBRANCH   1  23
BRANCH  14  32
ATOM     32  S   UNL     1      -8.239  -6.748  -2.397  0.00  0.00    -0.086 S 
BRANCH  32  33
ATOM     33  C   UNL     1      -9.064  -8.165  -3.174  0.00  0.00    +0.080 C 
BRANCH  33  34
ATOM     34  C   UNL     1     -10.329  -7.689  -3.889  0.00  0.00    -0.007 C 
ATOM     35  C   UNL     1     -10.957  -8.860  -4.648  0.00  0.00    +0.008 C 
ATOM     36  C   UNL     1     -11.327  -7.154  -2.860  0.00  0.00    +0.008 C 
ENDBRANCH  33  34
ENDBRANCH  32  33
ENDBRANCH  14  32
TORSDOF 6
