REMARK  Name = ZINC20394531
REMARK  18 active torsions:
REMARK  status: ('A' for Active; 'I' for Inactive)
REMARK    1  A    between atoms: C_1  and  C_2
REMARK    2  A    between atoms: C_2  and  C_3
REMARK    3  A    between atoms: C_3  and  O_4
REMARK    4  A    between atoms: O_4  and  C_5
REMARK    5  A    between atoms: C_8  and  C_14
REMARK    6  A    between atoms: C_10  and  O_11
REMARK    7  A    between atoms: O_11  and  C_12
REMARK    8  A    between atoms: C_12  and  C_13
REMARK    9  A    between atoms: C_16  and  C_29
REMARK   10  A    between atoms: N_20  and  C_21
REMARK   11  A    between atoms: C_21  and  C_22
REMARK   12  A    between atoms: C_22  and  N_23
REMARK   13  A    between atoms: N_23  and  C_24
REMARK   14  A    between atoms: N_23  and  C_26
REMARK   15  A    between atoms: C_24  and  C_25
REMARK   16  A    between atoms: C_26  and  C_27
REMARK   17  A    between atoms: C_29  and  C_31
REMARK   18  A    between atoms: C_38  and  C_41
REMARK                            x       y       z     vdW  Elec       q    Type
REMARK                         _______ _______ _______ _____ _____    ______ ____
ROOT
ATOM      1  C   UNL     1      -1.500  -1.366  -0.097  0.00  0.00    +0.145 C 
ATOM      2  C   UNL     1      -2.677  -0.419  -0.072  0.00  0.00    +0.076 C 
ATOM      3  C   UNL     1      -3.793  -1.182  -0.135  0.00  0.00    +0.249 C 
ATOM      4  C   UNL     1      -3.405  -2.607  -0.194  0.00  0.00    +0.288 C 
ATOM      5  O   UNL     1      -4.182  -3.539  -0.256  0.00  0.00    -0.266 OA
ATOM      6  N   UNL     1      -2.065  -2.719  -0.169  0.00  0.00    -0.285 N 
ATOM      7  O   UNL     1      -5.063  -0.715  -0.141  0.00  0.00    -0.282 OA
ENDROOT
BRANCH   1  11
ATOM      8  C   UNL     1       0.804  -0.938   3.480  0.00  0.00    +0.162 A 
ATOM      9  C   UNL     1      -0.333  -1.728   3.476  0.00  0.00    +0.050 A 
ATOM     10  C   UNL     1      -1.076  -1.865   2.319  0.00  0.00    +0.009 A 
ATOM     11  C   UNL     1      -0.687  -1.214   1.163  0.00  0.00    -0.019 A 
ATOM     12  C   UNL     1       0.450  -0.427   1.159  0.00  0.00    +0.055 A 
ATOM     13  C   UNL     1       1.197  -0.282   2.317  0.00  0.00    +0.162 A 
BRANCH   8  14
ATOM     14  O   UNL     1       1.537  -0.802   4.618  0.00  0.00    -0.488 OA
BRANCH  14  15
ATOM     15  C   UNL     1       1.075  -1.504   5.774  0.00  0.00    +0.229 C 
BRANCH  15  17
ATOM     16  C   UNL     1       1.524  -1.985   8.184  0.00  0.00    +0.007 C 
ATOM     17  C   UNL     1       2.019  -1.233   6.947  0.00  0.00    +0.038 C 
ENDBRANCH  15  17
ENDBRANCH  14  15
ENDBRANCH   8  14
BRANCH  13  18
ATOM     18  O   UNL     1       2.313   0.495   2.316  0.00  0.00    -0.489 OA
BRANCH  18  19
ATOM     19  C   UNL     1       2.597   1.220   1.118  0.00  0.00    +0.226 C 
ATOM     20  C   UNL     1       3.938   1.941   1.264  0.00  0.00    +0.048 C 
ENDBRANCH  18  19
ENDBRANCH  13  18
ENDBRANCH   1  11
BRANCH   2  21
ATOM     21  C   UNL     1      -2.621   1.044  -0.002  0.00  0.00    +0.195 C 
ATOM     22  O   UNL     1      -3.030   1.622   0.988  0.00  0.00    -0.287 OA
BRANCH  21  23
ATOM     23  C   UNL     1      -2.068   1.817  -1.131  0.00  0.00    +0.023 A 
ATOM     24  C   UNL     1      -1.523   1.157  -2.237  0.00  0.00    +0.015 A 
ATOM     25  C   UNL     1      -1.017   1.878  -3.292  0.00  0.00    +0.046 A 
ATOM     26  C   UNL     1      -1.034   3.274  -3.268  0.00  0.00    +0.124 A 
ATOM     27  C   UNL     1      -1.568   3.926  -2.159  0.00  0.00    -0.002 A 
ATOM     28  C   UNL     1      -2.080   3.216  -1.102  0.00  0.00    +0.019 A 
ATOM     29  C   UNL     1      -1.437   5.415  -2.415  0.00  0.00    +0.083 C 
ATOM     30  C   UNL     1      -0.421   5.450  -3.581  0.00  0.00    +0.175 C 
ATOM     31  O   UNL     1      -0.601   4.165  -4.199  0.00  0.00    -0.488 OA
ATOM     32  C   UNL     1      -0.760   6.575  -4.561  0.00  0.00    +0.052 C 
ENDBRANCH  21  23
ENDBRANCH   2  21
BRANCH   6  33
ATOM     33  C   UNL     1      -1.303  -3.970  -0.211  0.00  0.00    +0.090 C 
BRANCH  33  34
ATOM     34  C   UNL     1      -1.006  -4.336  -1.667  0.00  0.00    -0.060 C 
BRANCH  34  35
ATOM     35  N   UNL     1      -0.242  -5.590  -1.710  0.00  0.00    +0.380 N 
ATOM     36  H   UNL     1       0.623  -5.482  -1.039  0.00  0.00    -0.082 HD
BRANCH  35  37
ATOM     37  C   UNL     1      -1.051  -6.716  -1.225  0.00  0.00    -0.082 C 
ATOM     38  C   UNL     1      -2.232  -6.941  -2.171  0.00  0.00    -0.017 C 
ENDBRANCH  35  37
BRANCH  35  39
ATOM     39  C   UNL     1       0.266  -5.851  -3.063  0.00  0.00    -0.082 C 
ATOM     40  C   UNL     1       1.346  -6.933  -3.003  0.00  0.00    -0.017 C 
ENDBRANCH  35  39
ENDBRANCH  34  35
ENDBRANCH  33  34
ENDBRANCH   6  33
TORSDOF 13
