REMARK  Name = ZINC06088903
REMARK  11 active torsions:
REMARK  status: ('A' for Active; 'I' for Inactive)
REMARK    1  A    between atoms: C_1  and  C_2
REMARK    2  A    between atoms: C_5  and  S_8
REMARK    3  A    between atoms: S_8  and  N_11
REMARK    4  A    between atoms: N_11  and  C_12
REMARK    5  A    between atoms: C_15  and  C_18
REMARK    6  A    between atoms: C_21  and  S_24
REMARK    7  A    between atoms: N_22  and  C_23
REMARK    8  A    between atoms: S_24  and  C_25
REMARK    9  A    between atoms: C_25  and  C_26
REMARK   10  A    between atoms: C_26  and  O_28
REMARK   11  A    between atoms: O_28  and  C_29
REMARK                            x       y       z     vdW  Elec       q    Type
REMARK                         _______ _______ _______ _____ _____    ______ ____
ROOT
ATOM      1  C   UNL     1      -0.307   4.180  -1.127  0.00  0.00    +0.048 A 
ATOM      2  C   UNL     1       0.945   3.759  -0.692  0.00  0.00    +0.025 A 
ATOM      3  C   UNL     1       1.217   2.414  -0.569  0.00  0.00    +0.013 A 
ATOM      4  C   UNL     1       0.234   1.473  -0.880  0.00  0.00    +0.019 A 
ATOM      5  C   UNL     1      -1.021   1.898  -1.321  0.00  0.00    +0.013 A 
ATOM      6  C   UNL     1      -1.288   3.245  -1.438  0.00  0.00    +0.025 A 
ENDROOT
BRANCH   4   7
ATOM      7  C   UNL     1       0.523   0.029  -0.750  0.00  0.00    +0.165 A 
ATOM      8  N   UNL     1       1.710  -0.524  -0.662  0.00  0.00    -0.128 NA
ATOM      9  N   UNL     1       1.593  -1.800  -0.560  0.00  0.00    -0.122 NA
ATOM     10  C   UNL     1       0.324  -2.139  -0.575  0.00  0.00    +0.192 A 
ATOM     11  N   UNL     1      -0.402  -0.988  -0.691  0.00  0.00    -0.305 N 
ATOM     12  C   UNL     1      -1.861  -0.862  -0.744  0.00  0.00    +0.153 C 
BRANCH  10  13
ATOM     13  S   UNL     1      -0.322  -3.775  -0.461  0.00  0.00    -0.075 S 
BRANCH  13  14
ATOM     14  C   UNL     1       1.220  -4.713  -0.330  0.00  0.00    +0.197 C 
BRANCH  14  15
ATOM     15  C   UNL     1       0.906  -6.183  -0.218  0.00  0.00    +0.318 C 
ATOM     16  O   UNL     1      -0.243  -6.557  -0.226  0.00  0.00    -0.250 OA
BRANCH  15  17
ATOM     17  O   UNL     1       1.902  -7.076  -0.109  0.00  0.00    -0.461 OA
BRANCH  17  18
ATOM     18  C   UNL     1       1.526  -8.474  -0.005  0.00  0.00    +0.176 C 
ATOM     19  C   UNL     1       1.344  -8.846   1.468  0.00  0.00    +0.044 C 
ATOM     20  C   UNL     1       0.947 -10.319   1.577  0.00  0.00    +0.004 C 
ATOM     21  C   UNL     1       2.045 -11.190   0.963  0.00  0.00    +0.000 C 
ATOM     22  C   UNL     1       2.227 -10.819  -0.510  0.00  0.00    +0.004 C 
ATOM     23  C   UNL     1       2.624  -9.345  -0.619  0.00  0.00    +0.044 C 
ENDBRANCH  17  18
ENDBRANCH  15  17
ENDBRANCH  14  15
ENDBRANCH  13  14
ENDBRANCH  10  13
ENDBRANCH   4   7
BRANCH   1  24
ATOM     24  N   UNL     1      -0.579   5.543  -1.250  0.00  0.00    -0.216 N 
ATOM     25  H   UNL     1      -0.314   6.157  -0.547  0.00  0.00    +0.174 HD
BRANCH  24  26
ATOM     26  S   UNL     1      -1.356   6.113  -2.597  0.00  0.00    +0.072 S 
ATOM     27  O   UNL     1      -2.528   5.326  -2.754  0.00  0.00    -0.150 OA
ATOM     28  O   UNL     1      -1.399   7.528  -2.473  0.00  0.00    -0.150 OA
BRANCH  26  33
ATOM     29  C   UNL     1       2.177   4.908  -7.338  0.00  0.00    +0.044 C 
ATOM     30  C   UNL     1       1.294   5.209  -6.154  0.00  0.00    -0.050 A 
ATOM     31  C   UNL     1       0.272   4.342  -5.816  0.00  0.00    +0.005 A 
ATOM     32  C   UNL     1      -0.538   4.619  -4.730  0.00  0.00    +0.029 A 
ATOM     33  C   UNL     1      -0.324   5.761  -3.982  0.00  0.00    +0.109 A 
ATOM     34  C   UNL     1       0.696   6.630  -4.322  0.00  0.00    +0.029 A 
ATOM     35  C   UNL     1       1.508   6.351  -5.406  0.00  0.00    +0.005 A 
ENDBRANCH  26  33
ENDBRANCH  24  26
ENDBRANCH   1  24
TORSDOF 9
