REMARK  Name = ZINC25561710
REMARK  13 active torsions:
REMARK  status: ('A' for Active; 'I' for Inactive)
REMARK    1  A    between atoms: C_1  and  C_2
REMARK    2  A    between atoms: C_5  and  N_9
REMARK    3  A    between atoms: C_7  and  C_8
REMARK    4  A    between atoms: C_13  and  S_14
REMARK    5  A    between atoms: S_14  and  C_15
REMARK    6  A    between atoms: C_15  and  C_16
REMARK    7  A    between atoms: C_21  and  C_30
REMARK    8  A    between atoms: C_22  and  C_26
REMARK    9  A    between atoms: C_26  and  O_28
REMARK   10  A    between atoms: O_28  and  C_29
REMARK   11  A    between atoms: C_30  and  C_31
REMARK   12  A    between atoms: C_31  and  O_33
REMARK   13  A    between atoms: O_33  and  C_34
REMARK                            x       y       z     vdW  Elec       q    Type
REMARK                         _______ _______ _______ _____ _____    ______ ____
ROOT
ATOM      1  C   UNL     1       3.809   3.041  -0.017  0.00  0.00    +0.122 A 
ATOM      2  N   UNL     1       4.439   1.841  -0.030  0.00  0.00    -0.195 NA
ATOM      3  C   UNL     1       3.748   0.685  -0.030  0.00  0.00    +0.282 A 
ATOM      4  O   UNL     1       4.324  -0.388  -0.041  0.00  0.00    -0.265 OA
ATOM      5  C   UNL     1       2.268   0.753  -0.015  0.00  0.00    +0.076 A 
ATOM      6  C   UNL     1       1.337  -0.287  -0.012  0.00  0.00    -0.001 A 
ATOM      7  C   UNL     1       0.002  -0.004   0.002  0.00  0.00    +0.102 A 
ATOM      8  S   UNL     1      -0.022   1.781   0.012  0.00  0.00    -0.064 S 
ATOM      9  C   UNL     1       1.731   2.061  -0.003  0.00  0.00    +0.092 A 
ATOM     10  N   UNL     1       2.507   3.137  -0.005  0.00  0.00    -0.337 N 
ATOM     11  H   UNL     1       2.028   4.127   0.005  0.00  0.00    +0.168 HD
ENDROOT
BRANCH   7  12
ATOM     12  C   UNL     1      -1.130  -0.933   0.007  0.00  0.00    +0.346 C 
ATOM     13  O   UNL     1      -0.931  -2.134  -0.001  0.00  0.00    -0.244 OA
BRANCH  12  14
ATOM     14  O   UNL     1      -2.392  -0.459   0.022  0.00  0.00    -0.464 OA
ATOM     15  C   UNL     1      -3.465  -1.438   0.027  0.00  0.00    +0.280 C 
ENDBRANCH  12  14
ENDBRANCH   7  12
BRANCH   1  16
ATOM     16  C   UNL     1       4.635   4.302  -0.017  0.00  0.00    +0.151 C 
BRANCH  16  17
ATOM     17  S   UNL     1       3.538   5.742   0.002  0.00  0.00    -0.080 S 
BRANCH  17  22
ATOM     18  N   UNL     1       4.461   8.373   0.009  0.00  0.00    -0.295 N 
ATOM     19  C   UNL     1       5.674   9.029   0.002  0.00  0.00    +0.113 A 
ATOM     20  C   UNL     1       6.630   8.085  -0.012  0.00  0.00    +0.131 A 
ATOM     21  N   UNL     1       6.036   6.879  -0.009  0.00  0.00    -0.230 NA
ATOM     22  C   UNL     1       4.733   7.037  -0.002  0.00  0.00    +0.174 A 
BRANCH  18  27
ATOM     23  C   UNL     1      -0.680  10.777   0.064  0.00  0.00    +0.044 C 
ATOM     24  C   UNL     1       0.685  10.139   0.049  0.00  0.00    -0.047 A 
ATOM     25  C   UNL     1       0.977   9.155  -0.878  0.00  0.00    +0.005 A 
ATOM     26  C   UNL     1       2.228   8.571  -0.897  0.00  0.00    +0.026 A 
ATOM     27  C   UNL     1       3.191   8.967   0.022  0.00  0.00    +0.049 A 
ATOM     28  C   UNL     1       2.896   9.955   0.951  0.00  0.00    +0.029 A 
ATOM     29  C   UNL     1       1.644  10.539   0.962  0.00  0.00    -0.046 A 
ATOM     30  C   UNL     1       1.322  11.612   1.970  0.00  0.00    +0.044 C 
ENDBRANCH  18  27
ENDBRANCH  17  22
ENDBRANCH  16  17
ENDBRANCH   1  16
BRANCH   6  31
ATOM     31  C   UNL     1       1.805  -1.720  -0.025  0.00  0.00    +0.157 C 
BRANCH  31  32
ATOM     32  C   UNL     1       1.947  -2.189  -1.450  0.00  0.00    +0.311 C 
ATOM     33  O   UNL     1       1.694  -1.438  -2.362  0.00  0.00    -0.250 OA
BRANCH  32  34
ATOM     34  O   UNL     1       2.355  -3.442  -1.706  0.00  0.00    -0.468 OA
ATOM     35  C   UNL     1       2.469  -3.826  -3.102  0.00  0.00    +0.280 C 
ENDBRANCH  32  34
ENDBRANCH  31  32
ENDBRANCH   6  31
TORSDOF 9
