REMARK  Name = ZINC63708263
REMARK  13 active torsions:
REMARK  status: ('A' for Active; 'I' for Inactive)
REMARK    1  A    between atoms: C_1  and  C_2
REMARK    2  A    between atoms: C_2  and  C_3
REMARK    3  A    between atoms: C_3  and  C_5
REMARK    4  A    between atoms: C_3  and  S_16
REMARK    5  A    between atoms: N_7  and  C_8
REMARK    6  A    between atoms: C_8  and  C_9
REMARK    7  A    between atoms: C_12  and  C_15
REMARK    8  A    between atoms: S_16  and  C_17
REMARK    9  A    between atoms: C_29  and  C_31
REMARK   10  A    between atoms: C_31  and  C_32
REMARK   11  A    between atoms: C_32  and  C_33
REMARK   12  A    between atoms: C_34  and  C_40
REMARK   13  A    between atoms: C_37  and  C_39
REMARK                            x       y       z     vdW  Elec       q    Type
REMARK                         _______ _______ _______ _____ _____    ______ ____
ROOT
ATOM      1  C   UNL     1      -2.061   1.878  -1.279  0.00  0.00    +0.249 C 
ATOM      2  N   UNL     1      -2.862   2.345  -0.140  0.00  0.00    -0.356 N 
ATOM      3  C   UNL     1      -2.280   3.034   0.831  0.00  0.00    +0.048 A 
ATOM      4  C   UNL     1      -3.030   3.493   1.936  0.00  0.00    +0.026 A 
ATOM      5  C   UNL     1      -2.413   4.198   2.921  0.00  0.00    +0.002 A 
ATOM      6  C   UNL     1      -1.051   4.482   2.872  0.00  0.00    +0.001 A 
ATOM      7  C   UNL     1      -0.272   4.068   1.835  0.00  0.00    +0.013 A 
ATOM      8  C   UNL     1      -0.845   3.335   0.782  0.00  0.00    +0.038 A 
ATOM      9  C   UNL     1      -0.055   2.897  -0.300  0.00  0.00    +0.128 C 
ATOM     10  N   UNL     1      -0.632   2.183  -1.317  0.00  0.00    -0.204 N 
ATOM     11  N   UNL     1       0.393   1.897  -2.227  0.00  0.00    -0.249 N 
ATOM     12  C   UNL     1       1.521   2.445  -1.722  0.00  0.00    +0.090 C 
ATOM     13  N   UNL     1       1.245   3.031  -0.586  0.00  0.00    -0.332 N 
ATOM     14  H   UNL     1       0.310   1.403  -3.058  0.00  0.00    +0.171 HD
ATOM     15  H   UNL     1      -3.812   2.151  -0.100  0.00  0.00    +0.162 HD
ATOM     16  H   UNL     1       1.891   3.496  -0.031  0.00  0.00    +0.168 HD
ENDROOT
BRANCH   1  17
ATOM     17  S   UNL     1      -2.236   0.074  -1.365  0.00  0.00    -0.103 S 
BRANCH  17  18
ATOM     18  C   UNL     1      -1.208  -0.531   0.002  0.00  0.00    +0.135 C 
BRANCH  18  19
ATOM     19  C   UNL     1      -1.881  -0.216   1.314  0.00  0.00    +0.226 C 
ATOM     20  O   UNL     1      -3.084  -0.072   1.359  0.00  0.00    -0.275 OA
ATOM     21  N   UNL     1      -1.145  -0.094   2.436  0.00  0.00    -0.310 N 
ATOM     22  H   UNL     1      -0.182  -0.210   2.400  0.00  0.00    +0.149 HD
BRANCH  21  23
ATOM     23  C   UNL     1      -1.798   0.212   3.711  0.00  0.00    +0.139 C 
BRANCH  23  24
ATOM     24  C   UNL     1      -0.760   0.294   4.801  0.00  0.00    -0.030 A 
ATOM     25  C   UNL     1      -0.412  -0.840   5.510  0.00  0.00    +0.005 A 
ATOM     26  C   UNL     1       0.540  -0.765   6.510  0.00  0.00    +0.003 A 
ATOM     27  C   UNL     1       1.144   0.444   6.799  0.00  0.00    -0.050 A 
ATOM     28  C   UNL     1       0.797   1.578   6.089  0.00  0.00    +0.003 A 
ATOM     29  C   UNL     1      -0.152   1.502   5.087  0.00  0.00    +0.005 A 
ATOM     30  C   UNL     1       2.181   0.525   7.890  0.00  0.00    +0.044 C 
ENDBRANCH  23  24
ENDBRANCH  21  23
ENDBRANCH  18  19
BRANCH  18  32
ATOM     31  C   UNL     1      -0.223  -2.357  -1.391  0.00  0.00    +0.005 C 
ATOM     32  C   UNL     1      -1.028  -2.045  -0.127  0.00  0.00    +0.020 C 
ENDBRANCH  18  32
ENDBRANCH  17  18
ENDBRANCH   1  17
BRANCH  12  33
ATOM     33  C   UNL     1       2.882   2.387  -2.366  0.00  0.00    +0.075 C 
BRANCH  33  34
ATOM     34  C   UNL     1       3.062   3.596  -3.287  0.00  0.00    +0.042 C 
BRANCH  34  35
ATOM     35  C   UNL     1       4.423   3.538  -3.931  0.00  0.00    -0.021 C 
ATOM     36  C   UNL     1       4.747   3.042  -5.127  0.00  0.00    +0.061 C 
ATOM     37  N   UNL     1       6.073   3.170  -5.357  0.00  0.00    -0.159 NA
ATOM     38  N   UNL     1       6.702   3.705  -4.441  0.00  0.00    -0.180 NA
ATOM     39  C   UNL     1       5.744   4.038  -3.372  0.00  0.00    +0.153 C 
ATOM     40  C   UNL     1       6.100   3.298  -2.081  0.00  0.00    +0.039 C 
ATOM     41  C   UNL     1       3.768   2.423  -6.090  0.00  0.00    +0.067 C 
ENDBRANCH  34  35
ENDBRANCH  33  34
ENDBRANCH  12  33
TORSDOF 9
