REMARK  Name = ZINC35382778
REMARK  12 active torsions:
REMARK  status: ('A' for Active; 'I' for Inactive)
REMARK    1  A    between atoms: C_1  and  C_2
REMARK    2  A    between atoms: C_2  and  C_3
REMARK    3  A    between atoms: C_3  and  C_5
REMARK    4  A    between atoms: C_3  and  N_6
REMARK    5  A    between atoms: N_6  and  C_7
REMARK    6  A    between atoms: N_6  and  S_28
REMARK    7  A    between atoms: C_7  and  C_8
REMARK    8  A    between atoms: C_18  and  C_20
REMARK    9  A    between atoms: C_23  and  O_26
REMARK   10  A    between atoms: O_26  and  C_27
REMARK   11  A    between atoms: S_28  and  C_31
REMARK   12  A    between atoms: C_32  and  C_33
REMARK                            x       y       z     vdW  Elec       q    Type
REMARK                         _______ _______ _______ _____ _____    ______ ____
ROOT
ATOM      1  C   UNL     1      -0.498   0.062   3.220  0.00  0.00    +0.232 C 
ATOM      2  O   UNL     1      -0.385   1.170   2.739  0.00  0.00    -0.274 OA
ATOM      3  N   UNL     1       0.289  -0.309   4.249  0.00  0.00    -0.289 N 
ATOM      4  C   UNL     1       0.164  -1.652   4.837  0.00  0.00    +0.114 C 
ATOM      5  C   UNL     1       1.474  -2.413   4.582  0.00  0.00    +0.062 C 
ATOM      6  C   UNL     1       2.622  -1.495   4.848  0.00  0.00    -0.003 A 
ATOM      7  C   UNL     1       2.600  -0.138   4.950  0.00  0.00    -0.012 A 
ATOM      8  C   UNL     1       3.820   0.490   5.197  0.00  0.00    +0.013 A 
ATOM      9  C   UNL     1       4.946  -0.247   5.329  0.00  0.00    +0.046 A 
ATOM     10  S   UNL     1       4.327  -1.908   5.104  0.00  0.00    -0.101 S 
ATOM     11  C   UNL     1       1.287   0.619   4.796  0.00  0.00    +0.137 C 
ENDROOT
BRANCH  11  12
ATOM     12  C   UNL     1       0.833   1.123   6.142  0.00  0.00    -0.022 A 
ATOM     13  C   UNL     1       0.687   0.240   7.196  0.00  0.00    +0.009 A 
ATOM     14  C   UNL     1       0.270   0.699   8.431  0.00  0.00    +0.046 A 
ATOM     15  C   UNL     1      -0.002   2.047   8.612  0.00  0.00    +0.120 A 
ATOM     16  C   UNL     1       0.146   2.931   7.553  0.00  0.00    +0.046 A 
ATOM     17  C   UNL     1       0.568   2.468   6.322  0.00  0.00    +0.009 A 
BRANCH  15  18
ATOM     18  O   UNL     1      -0.412   2.501   9.825  0.00  0.00    -0.495 OA
ATOM     19  C   UNL     1      -0.674   3.901   9.940  0.00  0.00    +0.277 C 
ENDBRANCH  15  18
ENDBRANCH  11  12
BRANCH   1  20
ATOM     20  C   UNL     1      -1.519  -0.899   2.667  0.00  0.00    +0.205 C 
BRANCH  20  21
ATOM     21  N   UNL     1      -2.153  -0.310   1.485  0.00  0.00    -0.166 NA
BRANCH  21  22
ATOM     22  S   UNL     1      -3.591   0.498   1.632  0.00  0.00    +0.055 S 
ATOM     23  O   UNL     1      -3.617   1.045   2.943  0.00  0.00    -0.153 OA
ATOM     24  O   UNL     1      -3.726   1.301   0.468  0.00  0.00    -0.153 OA
BRANCH  22  25
ATOM     25  C   UNL     1      -4.875  -0.707   1.563  0.00  0.00    +0.153 C 
ATOM     26  C   UNL     1      -5.644  -0.917   2.623  0.00  0.00    +0.028 C 
BRANCH  26  27
ATOM     27  C   UNL     1      -6.721  -1.928   2.566  0.00  0.00    -0.024 A 
ATOM     28  C   UNL     1      -6.927  -2.667   1.400  0.00  0.00    +0.008 A 
ATOM     29  C   UNL     1      -7.934  -3.609   1.353  0.00  0.00    +0.001 A 
ATOM     30  C   UNL     1      -8.739  -3.821   2.458  0.00  0.00    +0.000 A 
ATOM     31  C   UNL     1      -8.540  -3.091   3.617  0.00  0.00    +0.001 A 
ATOM     32  C   UNL     1      -7.532  -2.151   3.679  0.00  0.00    +0.008 A 
ENDBRANCH  26  27
ENDBRANCH  22  25
ENDBRANCH  21  22
BRANCH  21  33
ATOM     33  C   UNL     1      -1.515  -0.437   0.172  0.00  0.00    +0.077 C 
ATOM     34  C   UNL     1      -1.074   0.945  -0.316  0.00  0.00    +0.026 C 
BRANCH  33  36
ATOM     35  C   UNL     1      -2.835  -2.475  -0.416  0.00  0.00    +0.005 C 
ATOM     36  C   UNL     1      -2.510  -1.036  -0.823  0.00  0.00    +0.017 C 
ENDBRANCH  33  36
ENDBRANCH  21  33
ENDBRANCH  20  21
ENDBRANCH   1  20
TORSDOF 9
