REMARK  Name = ZINC00754847
REMARK  3 active torsions:
REMARK  status: ('A' for Active; 'I' for Inactive)
REMARK    1  A    between atoms: C_6  and  O_7
REMARK    2  A    between atoms: C_9  and  N_24
REMARK    3  A    between atoms: C_10  and  C_22
REMARK                            x       y       z     vdW  Elec       q    Type
REMARK                         _______ _______ _______ _____ _____    ______ ____
ROOT
ATOM      1  C   UNL     1       1.263  -3.103  -3.629  0.00  0.00    +0.046 A 
ATOM      2  C   UNL     1       1.722  -2.483  -2.483  0.00  0.00    +0.012 A 
ATOM      3  C   UNL     1       1.123  -2.739  -1.263  0.00  0.00    +0.020 A 
ATOM      4  C   UNL     1       0.056  -3.623  -1.187  0.00  0.00    +0.138 A 
ATOM      5  C   UNL     1      -0.407  -4.247  -2.338  0.00  0.00    +0.092 A 
ATOM      6  C   UNL     1       0.196  -3.987  -3.558  0.00  0.00    +0.120 A 
ATOM      7  O   UNL     1      -0.542  -3.887   0.001  0.00  0.00    -0.441 OA
ATOM      8  C   UNL     1       0.097  -3.619   1.152  0.00  0.00    +0.199 C 
ATOM      9  C   UNL     1       1.141  -2.756   1.208  0.00  0.00    +0.110 C 
ATOM     10  C   UNL     1       1.633  -2.057  -0.025  0.00  0.00    +0.141 C 
ATOM     11  C   UNL     1       1.239  -0.612  -0.013  0.00  0.00    -0.001 A 
ATOM     12  C   UNL     1       0.002  -0.004   0.002  0.00  0.00    +0.022 A 
ATOM     13  C   UNL     1      -0.017   1.387   0.010  0.00  0.00    +0.018 A 
ATOM     14  C   UNL     1       1.152   2.122   0.003  0.00  0.00    +0.017 A 
ATOM     15  C   UNL     1       2.399   1.516  -0.013  0.00  0.00    +0.025 A 
ATOM     16  C   UNL     1       2.432   0.121  -0.020  0.00  0.00    +0.038 A 
ATOM     17  N   UNL     1       3.521  -0.733  -0.034  0.00  0.00    -0.284 N 
ATOM     18  C   UNL     1       3.147  -2.029  -0.037  0.00  0.00    +0.238 C 
ATOM     19  O   UNL     1       3.885  -2.992  -0.047  0.00  0.00    -0.274 OA
ATOM     20 BR   UNL     1      -1.678   2.291   0.022  0.00  0.00    -0.050 Br
ATOM     21  H   UNL     1       4.443  -0.434  -0.042  0.00  0.00    +0.155 HD
ENDROOT
BRANCH   8  22
ATOM     22  N   UNL     1      -0.319  -4.238   2.304  0.00  0.00    -0.328 N 
ATOM     23  H   UNL     1      -1.064  -4.858   2.280  0.00  0.00    +0.145 HD
ATOM     24  H   UNL     1       0.132  -4.055   3.143  0.00  0.00    +0.145 HD
ENDBRANCH   8  22
BRANCH   6  25
ATOM     25  O   UNL     1      -0.257  -4.599  -4.684  0.00  0.00    -0.507 OA
ATOM     26  H   UNL     1       0.174  -5.443  -4.874  0.00  0.00    +0.292 HD
ENDBRANCH   6  25
BRANCH   9  27
ATOM     27  C   UNL     1       1.784  -2.508   2.464  0.00  0.00    +0.102 C 
ATOM     28  N   UNL     1       2.293  -2.312   3.460  0.00  0.00    -0.191 NA
ENDBRANCH   9  27
TORSDOF 3
