REMARK  Name = ZINC62715226
REMARK  8 active torsions:
REMARK  status: ('A' for Active; 'I' for Inactive)
REMARK    1  A    between atoms: C_4  and  C_7
REMARK    2  A    between atoms: C_7  and  O_8
REMARK    3  A    between atoms: O_8  and  C_9
REMARK    4  A    between atoms: C_14  and  C_15
REMARK    5  A    between atoms: C_16  and  C_17
REMARK    6  A    between atoms: N_19  and  N_20
REMARK    7  A    between atoms: N_20  and  C_21
REMARK    8  A    between atoms: C_21  and  N_23
REMARK                            x       y       z     vdW  Elec       q    Type
REMARK                         _______ _______ _______ _____ _____    ______ ____
ROOT
ATOM      1  C   UNL     1       5.317  -1.604   1.466  0.00  0.00    +0.128 A 
ATOM      2  C   UNL     1       6.048  -2.007   0.360  0.00  0.00    +0.047 A 
ATOM      3  C   UNL     1       7.244  -2.676   0.525  0.00  0.00    +0.019 A 
ATOM      4  C   UNL     1       7.725  -2.951   1.797  0.00  0.00    +0.019 A 
ATOM      5  C   UNL     1       7.013  -2.558   2.909  0.00  0.00    +0.026 A 
ATOM      6  C   UNL     1       5.802  -1.874   2.756  0.00  0.00    +0.018 A 
ATOM      7 BR   UNL     1       9.365  -3.870   2.005  0.00  0.00    -0.050 Br
ENDROOT
BRANCH   6   8
ATOM      8  C   UNL     1       5.039  -1.446   3.937  0.00  0.00    +0.016 C 
ATOM      9  C   UNL     1       5.510  -1.708   5.175  0.00  0.00    +0.069 C 
BRANCH   9  10
ATOM     10  C   UNL     1       4.751  -1.282   6.350  0.00  0.00    +0.253 C 
ATOM     11  O   UNL     1       3.696  -0.691   6.213  0.00  0.00    -0.269 OA
ATOM     12  N   UNL     1       5.220  -1.544   7.587  0.00  0.00    -0.232 N 
ATOM     13  H   UNL     1       6.061  -2.014   7.696  0.00  0.00    +0.173 HD
BRANCH  12  14
ATOM     14  N   UNL     1       4.494  -1.135   8.713  0.00  0.00    -0.246 N 
ATOM     15  H   UNL     1       3.653  -0.665   8.603  0.00  0.00    +0.172 HD
BRANCH  14  16
ATOM     16  C   UNL     1       4.963  -1.397   9.949  0.00  0.00    +0.144 C 
ATOM     17  S   UNL     1       4.075  -0.898  11.325  0.00  0.00    -0.018 S 
BRANCH  16  18
ATOM     18  N   UNL     1       6.131  -2.051  10.101  0.00  0.00    -0.340 N 
ATOM     19  H   UNL     1       6.635  -2.333   9.322  0.00  0.00    +0.144 HD
ATOM     20  H   UNL     1       6.469  -2.239  10.991  0.00  0.00    +0.144 HD
ENDBRANCH  16  18
ENDBRANCH  14  16
ENDBRANCH  12  14
ENDBRANCH   9  10
ENDBRANCH   6   8
BRANCH   1  21
ATOM     21  O   UNL     1       4.141  -0.946   1.304  0.00  0.00    -0.487 OA
BRANCH  21  22
ATOM     22  C   UNL     1       3.711  -0.707  -0.038  0.00  0.00    +0.264 C 
BRANCH  22  26
ATOM     23  C   UNL     1      -0.017   1.378   0.010  0.00  0.00    +0.000 A 
ATOM     24  C   UNL     1       1.171   2.086   0.002  0.00  0.00    +0.000 A 
ATOM     25  C   UNL     1       2.377   1.411  -0.013  0.00  0.00    +0.007 A 
ATOM     26  C   UNL     1       2.396   0.029  -0.020  0.00  0.00    -0.010 A 
ATOM     27  C   UNL     1       1.208  -0.679  -0.012  0.00  0.00    +0.007 A 
ATOM     28  C   UNL     1       0.002  -0.004   0.002  0.00  0.00    +0.000 A 
ENDBRANCH  22  26
ENDBRANCH  21  22
ENDBRANCH   1  21
TORSDOF 8
