REMARK  Name = ZINC66831583
REMARK  9 active torsions:
REMARK  status: ('A' for Active; 'I' for Inactive)
REMARK    1  A    between atoms: C_1  and  C_2
REMARK    2  A    between atoms: C_2  and  C_3
REMARK    3  A    between atoms: C_2  and  C_4
REMARK    4  A    between atoms: C_4  and  N_5
REMARK    5  A    between atoms: C_6  and  C_8
REMARK    6  A    between atoms: C_12  and  C_14
REMARK    7  A    between atoms: C_14  and  N_15
REMARK    8  A    between atoms: C_18  and  N_21
REMARK    9  A    between atoms: C_22  and  C_24
REMARK                            x       y       z     vdW  Elec       q    Type
REMARK                         _______ _______ _______ _____ _____    ______ ____
ROOT
ATOM      1  N   UNL     1      -5.397  -7.391   0.948  0.00  0.00    +0.382 N 
ATOM      2  C   UNL     1      -5.676  -6.178   1.725  0.00  0.00    -0.077 C 
ATOM      3  C   UNL     1      -5.985  -6.556   3.175  0.00  0.00    +0.004 C 
ATOM      4  C   UNL     1      -7.208  -7.476   3.207  0.00  0.00    +0.070 C 
ATOM      5  C   UNL     1      -6.934  -8.704   2.333  0.00  0.00    +0.004 C 
ATOM      6  C   UNL     1      -6.590  -8.246   0.914  0.00  0.00    -0.077 C 
ATOM      7  H   UNL     1      -4.636  -7.895   1.377  0.00  0.00    -0.081 HD
ENDROOT
BRANCH   4   8
ATOM      8  N   UNL     1      -7.464  -7.903   4.585  0.00  0.00    -0.307 N 
ATOM      9  C   UNL     1      -8.706  -8.273   4.956  0.00  0.00    +0.261 C 
ATOM     10  O   UNL     1      -9.614  -8.253   4.147  0.00  0.00    -0.269 OA
ATOM     11  H   UNL     1      -6.740  -7.919   5.230  0.00  0.00    +0.149 HD
BRANCH   9  12
ATOM     12  C   UNL     1      -8.962  -8.701   6.336  0.00  0.00    +0.102 A 
ATOM     13  C   UNL     1     -10.173  -9.110   6.851  0.00  0.00    +0.032 A 
ATOM     14  C   UNL     1      -9.963  -9.424   8.197  0.00  0.00    +0.020 A 
ATOM     15  C   UNL     1      -8.655  -9.207   8.475  0.00  0.00    +0.083 A 
ATOM     16  N   UNL     1      -8.034  -8.772   7.351  0.00  0.00    -0.357 N 
ATOM     17  H   UNL     1      -7.094  -8.547   7.275  0.00  0.00    +0.165 HD
ENDBRANCH   9  12
ENDBRANCH   4   8
BRANCH   1  18
ATOM     18  C   UNL     1      -5.025  -7.019  -0.424  0.00  0.00    -0.043 C 
BRANCH  18  23
ATOM     19  C   UNL     1      -2.558  -4.154  -0.259  0.00  0.00    +0.037 A 
ATOM     20  C   UNL     1      -1.343  -4.835  -0.361  0.00  0.00    +0.013 A 
ATOM     21  C   UNL     1      -1.334  -6.209  -0.481  0.00  0.00    +0.001 A 
ATOM     22  C   UNL     1      -2.526  -6.913  -0.501  0.00  0.00    +0.002 A 
ATOM     23  C   UNL     1      -3.733  -6.244  -0.401  0.00  0.00    -0.063 A 
ATOM     24  C   UNL     1      -3.756  -4.870  -0.274  0.00  0.00    +0.014 A 
BRANCH  19  26
ATOM     25  N   UNL     1      -1.416  -1.993  -0.116  0.00  0.00    -0.311 N 
ATOM     26  C   UNL     1      -2.575  -2.682  -0.130  0.00  0.00    +0.244 C 
ATOM     27  O   UNL     1      -3.634  -2.092  -0.036  0.00  0.00    -0.270 OA
ATOM     28  H   UNL     1      -0.572  -2.463  -0.190  0.00  0.00    +0.149 HD
BRANCH  25  29
ATOM     29  C   UNL     1      -1.433  -0.534   0.013  0.00  0.00    +0.107 C 
BRANCH  29  31
ATOM     30  C   UNL     1      -0.019   1.526   0.010  0.00  0.00    +0.009 C 
ATOM     31  C   UNL     1       0.002  -0.004   0.002  0.00  0.00    -0.000 C 
ATOM     32  C   UNL     1       0.742  -0.511   1.242  0.00  0.00    +0.009 C 
ENDBRANCH  29  31
ENDBRANCH  25  29
ENDBRANCH  19  26
ENDBRANCH  18  23
ENDBRANCH   1  18
TORSDOF 7
