REMARK  Name = ZINC39602573
REMARK  6 active torsions:
REMARK  status: ('A' for Active; 'I' for Inactive)
REMARK    1  A    between atoms: C_1  and  C_2
REMARK    2  A    between atoms: C_5  and  C_8
REMARK    3  A    between atoms: C_8  and  C_9
REMARK    4  A    between atoms: C_13  and  C_22
REMARK    5  A    between atoms: N_24  and  C_25
REMARK    6  A    between atoms: C_28  and  C_30
REMARK                            x       y       z     vdW  Elec       q    Type
REMARK                         _______ _______ _______ _____ _____    ______ ____
ROOT
ATOM      1  C   UNL     1       1.193  -4.798   0.082  0.00  0.00    +0.220 C 
ATOM      2  O   UNL     1       2.037  -3.927   0.118  0.00  0.00    -0.275 OA
ATOM      3  N   UNL     1       1.564  -6.093   0.033  0.00  0.00    -0.300 N 
ATOM      4  C   UNL     1       0.688  -7.287  -0.021  0.00  0.00    +0.121 C 
ATOM      5  C   UNL     1       1.397  -8.247  -1.002  0.00  0.00    +0.100 C 
ATOM      6  C   UNL     1       2.874  -7.822  -0.969  0.00  0.00    -0.004 C 
ATOM      7  C   UNL     1       2.940  -6.644   0.015  0.00  0.00    +0.115 C 
ATOM      8  C   UNL     1       3.745  -8.973  -0.475  0.00  0.00    -0.010 C 
ATOM      9  C   UNL     1       5.215  -8.545  -0.505  0.00  0.00    -0.082 C 
ATOM     10  N   UNL     1       5.590  -8.175  -1.875  0.00  0.00    +0.379 N 
ATOM     11  C   UNL     1       4.813  -7.007  -2.309  0.00  0.00    -0.082 C 
ATOM     12  C   UNL     1       3.326  -7.370  -2.354  0.00  0.00    -0.010 C 
ATOM     13  H   UNL     1       6.574  -7.952  -1.904  0.00  0.00    -0.086 HD
ATOM     14  H   UNL     1       5.405  -8.949  -2.494  0.00  0.00    -0.086 HD
ENDROOT
BRANCH   5  15
ATOM     15  C   UNL     1       0.834  -8.088  -2.391  0.00  0.00    +0.218 C 
ATOM     16  O   UNL     1       0.396  -7.014  -2.748  0.00  0.00    -0.275 OA
ATOM     17  N   UNL     1       0.818  -9.137  -3.236  0.00  0.00    -0.312 N 
ATOM     18  H   UNL     1       1.168  -9.995  -2.950  0.00  0.00    +0.149 HD
BRANCH  17  19
ATOM     19  C   UNL     1       0.270  -8.982  -4.586  0.00  0.00    +0.081 C 
ATOM     20  C   UNL     1       1.054  -9.608  -5.742  0.00  0.00    +0.033 C 
ATOM     21  C   UNL     1      -0.263 -10.237  -5.280  0.00  0.00    +0.041 C 
BRANCH  21  22
ATOM     22  C   UNL     1      -1.462 -10.078  -6.179  0.00  0.00    -0.042 A 
ATOM     23  C   UNL     1      -1.396  -9.245  -7.280  0.00  0.00    +0.004 A 
ATOM     24  C   UNL     1      -2.496  -9.099  -8.104  0.00  0.00    +0.000 A 
ATOM     25  C   UNL     1      -3.663  -9.788  -7.828  0.00  0.00    +0.000 A 
ATOM     26  C   UNL     1      -3.729 -10.622  -6.728  0.00  0.00    +0.000 A 
ATOM     27  C   UNL     1      -2.627 -10.771  -5.906  0.00  0.00    +0.004 A 
ENDBRANCH  21  22
ENDBRANCH  17  19
ENDBRANCH   5  15
BRANCH   1  28
ATOM     28  C   UNL     1      -0.269  -4.433   0.093  0.00  0.00    +0.131 C 
BRANCH  28  33
ATOM     29  C   UNL     1      -0.819   1.316   0.313  0.00  0.00    +0.044 C 
ATOM     30  C   UNL     1      -0.675  -0.183   0.256  0.00  0.00    -0.050 A 
ATOM     31  C   UNL     1      -0.606  -0.825  -0.967  0.00  0.00    +0.003 A 
ATOM     32  C   UNL     1      -0.474  -2.200  -1.019  0.00  0.00    +0.004 A 
ATOM     33  C   UNL     1      -0.411  -2.933   0.151  0.00  0.00    -0.039 A 
ATOM     34  C   UNL     1      -0.479  -2.292   1.373  0.00  0.00    +0.004 A 
ATOM     35  C   UNL     1      -0.607  -0.916   1.426  0.00  0.00    +0.003 A 
ENDBRANCH  28  33
ENDBRANCH   1  28
TORSDOF 5
