REMARK  Name = ZINC11911927
REMARK  8 active torsions:
REMARK  status: ('A' for Active; 'I' for Inactive)
REMARK    1  A    between atoms: C_4  and  C_7
REMARK    2  A    between atoms: C_7  and  C_8
REMARK    3  A    between atoms: C_8  and  C_9
REMARK    4  A    between atoms: C_9  and  C_10
REMARK    5  A    between atoms: C_10  and  C_17
REMARK    6  A    between atoms: C_22  and  C_23
REMARK    7  A    between atoms: C_22  and  N_65
REMARK    8  A    between atoms: C_28  and  C_29
REMARK                            x       y       z     vdW  Elec       q    Type
REMARK                         _______ _______ _______ _____ _____    ______ ____
ROOT
ATOM      1  C   UNL     1      -0.278  -1.379  -0.379  0.00  0.00    +0.018 C 
ATOM      2  C   UNL     1      -0.306  -2.882  -0.670  0.00  0.00    -0.013 C 
ATOM      3  C   UNL     1      -1.031  -3.126  -1.996  0.00  0.00    -0.078 C 
ATOM      4  C   UNL     1      -0.340  -0.962  -2.840  0.00  0.00    -0.078 C 
ATOM      5  C   UNL     1       0.407  -0.653  -1.540  0.00  0.00    -0.013 C 
ATOM      6  N   UNL     1      -0.308  -2.421  -3.076  0.00  0.00    +0.382 N 
ATOM      7  H   UNL     1       0.669  -2.736  -3.084  0.00  0.00    -0.081 HD
ENDROOT
BRANCH   1   8
ATOM      8  C   UNL     1       0.500  -1.123   0.913  0.00  0.00    +0.115 C 
ATOM      9  C   UNL     1       0.560   0.361   1.215  0.00  0.00    +0.244 C 
ATOM     10  O   UNL     1      -0.374   1.106   1.419  0.00  0.00    -0.273 OA
ATOM     11  N   UNL     1       1.869   0.683   1.202  0.00  0.00    -0.238 N 
ATOM     12  C   UNL     1       2.636  -0.381   0.938  0.00  0.00    +0.307 C 
ATOM     13  O   UNL     1       3.849  -0.341   0.873  0.00  0.00    -0.252 OA
ATOM     14  N   UNL     1       1.914  -1.501   0.751  0.00  0.00    -0.285 N 
ATOM     15  H   UNL     1       2.213   1.575   1.364  0.00  0.00    +0.159 HD
ATOM     16  H   UNL     1       2.258  -2.385   0.548  0.00  0.00    +0.151 HD
BRANCH   8  17
ATOM     17  C   UNL     1      -0.130  -1.884   2.082  0.00  0.00    +0.036 C 
BRANCH  17  18
ATOM     18  C   UNL     1       0.700  -1.654   3.347  0.00  0.00    +0.007 C 
BRANCH  18  19
ATOM     19  C   UNL     1       0.070  -2.415   4.515  0.00  0.00    +0.035 C 
BRANCH  19  23
ATOM     20  C   UNL     1       2.385  -1.773   8.047  0.00  0.00    +0.000 A 
ATOM     21  C   UNL     1       1.342  -0.919   7.739  0.00  0.00    +0.000 A 
ATOM     22  C   UNL     1       0.593  -1.127   6.596  0.00  0.00    +0.003 A 
ATOM     23  C   UNL     1       0.887  -2.189   5.761  0.00  0.00    -0.047 A 
ATOM     24  C   UNL     1       1.926  -3.046   6.072  0.00  0.00    +0.003 A 
ATOM     25  C   UNL     1       2.678  -2.835   7.212  0.00  0.00    +0.000 A 
ENDBRANCH  19  23
ENDBRANCH  18  19
ENDBRANCH  17  18
ENDBRANCH   8  17
ENDBRANCH   1   8
BRANCH   6  26
ATOM     26  C   UNL     1      -0.924  -2.734  -4.383  0.00  0.00    -0.039 C 
BRANCH  26  27
ATOM     27  C   UNL     1      -0.561  -4.146  -4.762  0.00  0.00    -0.019 A 
ATOM     28  C   UNL     1      -1.390  -5.213  -4.743  0.00  0.00    +0.107 A 
ATOM     29  N   UNL     1      -0.690  -6.292  -5.152  0.00  0.00    -0.284 N 
ATOM     30  H   UNL     1      -1.046  -7.222  -5.244  0.00  0.00    +0.188 HD
ATOM     31  N   UNL     1       0.622  -5.883  -5.426  0.00  0.00    -0.174 NA
ATOM     32  C   UNL     1       0.704  -4.591  -5.192  0.00  0.00    +0.094 A 
BRANCH  32  33
ATOM     33  C   UNL     1       1.916  -3.750  -5.355  0.00  0.00    +0.002 A 
ATOM     34  C   UNL     1       1.820  -2.493  -5.949  0.00  0.00    +0.013 A 
ATOM     35  C   UNL     1       2.949  -1.712  -6.093  0.00  0.00    +0.039 A 
ATOM     36  C   UNL     1       4.178  -2.181  -5.659  0.00  0.00    +0.123 A 
ATOM     37  C   UNL     1       4.279  -3.432  -5.072  0.00  0.00    +0.039 A 
ATOM     38  C   UNL     1       3.155  -4.217  -4.919  0.00  0.00    +0.013 A 
ATOM     39  F   UNL     1       5.281  -1.415  -5.807  0.00  0.00    -0.205 F 
ENDBRANCH  32  33
ENDBRANCH  26  27
ENDBRANCH   6  26
TORSDOF 8
