REMARK  Name = ZINC67509851
REMARK  9 active torsions:
REMARK  status: ('A' for Active; 'I' for Inactive)
REMARK    1  A    between atoms: C_1  and  C_2
REMARK    2  A    between atoms: N_5  and  C_8
REMARK    3  A    between atoms: C_8  and  C_9
REMARK    4  A    between atoms: C_9  and  C_10
REMARK    5  A    between atoms: C_10  and  N_11
REMARK    6  A    between atoms: C_12  and  C_14
REMARK    7  A    between atoms: C_14  and  C_16
REMARK    8  A    between atoms: C_14  and  N_27
REMARK    9  A    between atoms: C_16  and  C_17
REMARK                            x       y       z     vdW  Elec       q    Type
REMARK                         _______ _______ _______ _____ _____    ______ ____
ROOT
ATOM      1  C   UNL     1       4.716  -8.005   3.617  0.00  0.00    +0.165 C 
ENDROOT
BRANCH   1   2
ATOM      2  N   UNL     1       4.488  -9.424   3.903  0.00  0.00    -0.288 N 
ATOM      3  C   UNL     1       4.735 -10.351   2.957  0.00  0.00    +0.298 C 
ATOM      4  O   UNL     1       5.147 -10.009   1.865  0.00  0.00    -0.253 OA
ATOM      5  N   UNL     1       4.525 -11.655   3.220  0.00  0.00    -0.313 N 
ATOM      6  H   UNL     1       4.159  -9.696   4.774  0.00  0.00    +0.151 HD
ATOM      7  H   UNL     1       4.196 -11.928   4.091  0.00  0.00    +0.146 HD
ATOM      8  H   UNL     1       4.702 -12.322   2.538  0.00  0.00    +0.146 HD
ENDBRANCH   1   2
BRANCH   1  10
ATOM      9  N   UNL     1       3.577  -6.276   2.265  0.00  0.00    -0.314 N 
ATOM     10  C   UNL     1       3.852  -7.581   2.458  0.00  0.00    +0.234 C 
ATOM     11  O   UNL     1       3.403  -8.414   1.700  0.00  0.00    -0.274 OA
ATOM     12  H   UNL     1       3.936  -5.609   2.871  0.00  0.00    +0.149 HD
BRANCH   9  13
ATOM     13  C   UNL     1       2.736  -5.863   1.138  0.00  0.00    +0.102 C 
BRANCH  13  14
ATOM     14  C   UNL     1       2.582  -4.341   1.147  0.00  0.00    +0.000 C 
BRANCH  14  15
ATOM     15  C   UNL     1       1.704  -3.911  -0.029  0.00  0.00    -0.077 C 
BRANCH  15  20
ATOM     16  C   UNL     1      -0.019   1.526   0.010  0.00  0.00    +0.007 C 
ATOM     17  C   UNL     1       0.002  -0.004   0.002  0.00  0.00    -0.018 C 
ATOM     18  C   UNL     1       0.727  -0.499  -1.252  0.00  0.00    -0.016 C 
ATOM     19  C   UNL     1       0.814  -2.027  -1.215  0.00  0.00    -0.079 C 
ATOM     20  N   UNL     1       1.556  -2.449  -0.021  0.00  0.00    +0.380 N 
ATOM     21  C   UNL     1       0.829  -2.040   1.187  0.00  0.00    -0.079 C 
ATOM     22  C   UNL     1       0.743  -0.513   1.242  0.00  0.00    -0.016 C 
ATOM     23  H   UNL     1       2.469  -2.020  -0.024  0.00  0.00    -0.082 HD
ENDBRANCH  15  20
ENDBRANCH  14  15
ENDBRANCH  13  14
ENDBRANCH   9  13
ENDBRANCH   1  10
BRANCH   1  24
ATOM     24  C   UNL     1       6.188  -7.787   3.262  0.00  0.00    +0.069 C 
BRANCH  24  25
ATOM     25  C   UNL     1       7.046  -8.095   4.462  0.00  0.00    -0.020 A 
ATOM     26  C   UNL     1       7.497  -7.213   5.368  0.00  0.00    +0.087 A 
ATOM     27  N   UNL     1       8.245  -7.859   6.315  0.00  0.00    -0.360 N 
ATOM     28  H   UNL     1       8.676  -7.431   7.072  0.00  0.00    +0.165 HD
ATOM     29  C   UNL     1       8.294  -9.206   6.035  0.00  0.00    +0.047 A 
ATOM     30  C   UNL     1       7.540  -9.414   4.865  0.00  0.00    +0.003 A 
ATOM     31  C   UNL     1       7.407 -10.701   4.342  0.00  0.00    +0.010 A 
ATOM     32  C   UNL     1       8.008 -11.755   4.971  0.00  0.00    +0.001 A 
ATOM     33  C   UNL     1       8.750 -11.555   6.127  0.00  0.00    +0.002 A 
ATOM     34  C   UNL     1       8.901 -10.292   6.656  0.00  0.00    +0.026 A 
ENDBRANCH  24  25
ENDBRANCH   1  24
TORSDOF 8
