REMARK  Name = ZINC20719779
REMARK  2 active torsions:
REMARK  status: ('A' for Active; 'I' for Inactive)
REMARK    1  A    between atoms: C_4  and  C_7
REMARK    2  A    between atoms: C_10  and  O_18
REMARK                            x       y       z     vdW  Elec       q    Type
REMARK                         _______ _______ _______ _____ _____    ______ ____
ROOT
ATOM      1  C   UNL     1       3.711  -0.707  -0.038  0.00  0.00    +0.063 C 
ATOM      2  C   UNL     1       3.791  -1.600  -1.281  0.00  0.00    +0.108 C 
ATOM      3  C   UNL     1       2.977  -2.849  -1.128  0.00  0.00    +0.190 C 
ATOM      4  N   UNL     1       2.801  -3.471  -0.003  0.00  0.00    -0.196 NA
ATOM      5  C   UNL     1       3.359  -2.945   1.138  0.00  0.00    +0.181 A 
ATOM      6  C   UNL     1       3.815  -1.598   1.175  0.00  0.00    +0.024 A 
ATOM      7  C   UNL     1       4.298  -1.355   2.397  0.00  0.00    +0.111 A 
ATOM      8  N   UNL     1       4.170  -2.490   3.126  0.00  0.00    -0.282 N 
ATOM      9  H   UNL     1       4.439  -2.605   4.051  0.00  0.00    +0.188 HD
ATOM     10  N   UNL     1       3.578  -3.473   2.310  0.00  0.00    -0.154 NA
ENDROOT
BRANCH   1  14
ATOM     11  C   UNL     1      -0.017   1.378   0.010  0.00  0.00    +0.000 A 
ATOM     12  C   UNL     1       1.171   2.086   0.002  0.00  0.00    +0.000 A 
ATOM     13  C   UNL     1       2.377   1.411  -0.013  0.00  0.00    +0.004 A 
ATOM     14  C   UNL     1       2.396   0.029  -0.020  0.00  0.00    -0.039 A 
ATOM     15  C   UNL     1       1.208  -0.679  -0.012  0.00  0.00    +0.004 A 
ATOM     16  C   UNL     1       0.002  -0.004   0.002  0.00  0.00    +0.000 A 
ENDBRANCH   1  14
BRANCH   3  17
ATOM     17  O   UNL     1       2.389  -3.359  -2.230  0.00  0.00    -0.495 OA
ATOM     18  H   UNL     1       1.878  -4.163  -2.067  0.00  0.00    +0.293 HD
ENDBRANCH   3  17
TORSDOF 2
