REMARK  Name = ZINC01694437
REMARK  4 active torsions:
REMARK  status: ('A' for Active; 'I' for Inactive)
REMARK    1  A    between atoms: C_1  and  C_2
REMARK    2  A    between atoms: C_7  and  C_11
REMARK    3  A    between atoms: C_11  and  C_12
REMARK    4  A    between atoms: C_11  and  C_13
REMARK                            x       y       z     vdW  Elec       q    Type
REMARK                         _______ _______ _______ _____ _____    ______ ____
ROOT
ATOM      1  C   UNL     1       1.403  -3.230   1.228  0.00  0.00    +0.016 C 
ATOM      2  C   UNL     1       1.462  -1.948   0.395  0.00  0.00    +0.056 C 
ATOM      3  C   UNL     1       0.711  -0.805   1.110  0.00  0.00    +0.006 C 
ATOM      4  C   UNL     1      -0.846  -0.772   1.018  0.00  0.00    +0.012 C 
ATOM      5  C   UNL     1       0.002  -0.004   0.002  0.00  0.00    -0.016 C 
ATOM      6  C   UNL     1       0.360  -0.704  -1.326  0.00  0.00    +0.082 C 
ATOM      7  C   UNL     1       0.708  -2.132  -0.918  0.00  0.00    +0.137 C 
ATOM      8  O   UNL     1       0.448  -3.160  -1.496  0.00  0.00    -0.297 OA
ENDROOT
BRANCH   5   9
ATOM      9  C   UNL     1      -0.019   1.526   0.010  0.00  0.00    -0.010 C 
ATOM     10  C   UNL     1      -0.759   2.033  -1.229  0.00  0.00    +0.008 C 
ATOM     11  C   UNL     1      -0.735   2.019   1.269  0.00  0.00    +0.008 C 
ENDBRANCH   5   9
TORSDOF 1
