REMARK  Name = ZINC40428040
REMARK  9 active torsions:
REMARK  status: ('A' for Active; 'I' for Inactive)
REMARK    1  A    between atoms: C_1  and  C_2
REMARK    2  A    between atoms: C_2  and  C_3
REMARK    3  A    between atoms: C_3  and  C_4
REMARK    4  A    between atoms: C_4  and  C_5
REMARK    5  A    between atoms: C_5  and  C_6
REMARK    6  A    between atoms: C_9  and  C_12
REMARK    7  A    between atoms: C_17  and  N_20
REMARK    8  A    between atoms: C_23  and  C_26
REMARK    9  A    between atoms: N_28  and  C_29
REMARK                            x       y       z     vdW  Elec       q    Type
REMARK                         _______ _______ _______ _____ _____    ______ ____
ROOT
ATOM      1  N   UNL     1       4.568 -10.688  -1.366  0.00  0.00    +0.382 N 
ATOM      2  C   UNL     1       5.797 -10.041  -1.842  0.00  0.00    -0.078 C 
ATOM      3  C   UNL     1       6.074 -10.464  -3.286  0.00  0.00    -0.006 C 
ATOM      4  C   UNL     1       6.241 -11.985  -3.344  0.00  0.00    +0.071 C 
ATOM      5  C   UNL     1       4.983 -12.649  -2.777  0.00  0.00    -0.006 C 
ATOM      6  C   UNL     1       4.746 -12.145  -1.351  0.00  0.00    -0.078 C 
ATOM      7  H   UNL     1       3.805 -10.450  -1.982  0.00  0.00    -0.081 HD
ENDROOT
BRANCH   1  13
ATOM      8  C   UNL     1       1.581  -8.302   2.441  0.00  0.00    +0.247 C 
ATOM      9  O   UNL     1       1.513  -7.091   2.354  0.00  0.00    -0.270 OA
ATOM     10  N   UNL     1       2.647  -8.954   1.938  0.00  0.00    -0.298 N 
ATOM     11  C   UNL     1       3.796  -8.211   1.402  0.00  0.00    +0.106 C 
ATOM     12  C   UNL     1       4.078  -8.700  -0.022  0.00  0.00    +0.004 C 
ATOM     13  C   UNL     1       4.264 -10.219  -0.008  0.00  0.00    -0.066 C 
ATOM     14  C   UNL     1       2.979 -10.888   0.487  0.00  0.00    +0.004 C 
ATOM     15  C   UNL     1       2.687 -10.423   1.922  0.00  0.00    +0.106 C 
BRANCH   8  19
ATOM     16  C   UNL     1      -1.541 -10.475   4.332  0.00  0.00    -0.047 A 
ATOM     17  C   UNL     1      -1.848  -9.424   3.486  0.00  0.00    +0.004 A 
ATOM     18  C   UNL     1      -0.838  -8.714   2.869  0.00  0.00    +0.013 A 
ATOM     19  C   UNL     1       0.494  -9.058   3.100  0.00  0.00    +0.037 A 
ATOM     20  C   UNL     1       0.797 -10.118   3.955  0.00  0.00    +0.013 A 
ATOM     21  C   UNL     1      -0.221 -10.817   4.570  0.00  0.00    +0.004 A 
BRANCH  16  22
ATOM     22  C   UNL     1      -2.648 -11.246   5.003  0.00  0.00    +0.035 C 
BRANCH  22  23
ATOM     23  C   UNL     1      -2.987 -10.590   6.344  0.00  0.00    +0.005 C 
BRANCH  23  24
ATOM     24  C   UNL     1      -4.111 -11.373   7.024  0.00  0.00    +0.000 C 
BRANCH  24  26
ATOM     25  C   UNL     1      -5.574 -11.501   9.046  0.00  0.00    +0.004 C 
ATOM     26  C   UNL     1      -4.449 -10.718   8.365  0.00  0.00    -0.003 C 
ENDBRANCH  24  26
ENDBRANCH  23  24
ENDBRANCH  22  23
ENDBRANCH  16  22
ENDBRANCH   8  19
ENDBRANCH   1  13
BRANCH   4  27
ATOM     27  C   UNL     1       6.436 -12.416  -4.775  0.00  0.00    +0.216 C 
ATOM     28  O   UNL     1       6.441 -11.589  -5.662  0.00  0.00    -0.276 OA
ATOM     29  N   UNL     1       6.605 -13.721  -5.069  0.00  0.00    -0.308 N 
ATOM     30  H   UNL     1       6.600 -14.382  -4.359  0.00  0.00    +0.149 HD
BRANCH  29  31
ATOM     31  C   UNL     1       6.795 -14.140  -6.459  0.00  0.00    +0.103 C 
ATOM     32  C   UNL     1       7.565 -15.458  -6.487  0.00  0.00    +0.027 C 
ATOM     33  C   UNL     1       7.564 -15.989  -7.926  0.00  0.00    +0.007 C 
ATOM     34  C   UNL     1       6.146 -16.440  -8.271  0.00  0.00    +0.035 C 
ATOM     35  C   UNL     1       5.153 -15.353  -7.954  0.00  0.00    -0.042 A 
ATOM     36  C   UNL     1       5.449 -14.300  -7.118  0.00  0.00    -0.024 A 
ATOM     37  C   UNL     1       4.485 -13.334  -6.861  0.00  0.00    +0.006 A 
ATOM     38  C   UNL     1       3.235 -13.421  -7.438  0.00  0.00    +0.000 A 
ATOM     39  C   UNL     1       2.939 -14.477  -8.279  0.00  0.00    +0.000 A 
ATOM     40  C   UNL     1       3.895 -15.437  -8.535  0.00  0.00    +0.004 A 
ENDBRANCH  29  31
ENDBRANCH   4  27
TORSDOF 8
