REMARK  Name = ZINC09973058
REMARK  14 active torsions:
REMARK  status: ('A' for Active; 'I' for Inactive)
REMARK    1  A    between atoms: C_1  and  C_2
REMARK    2  A    between atoms: C_2  and  C_3
REMARK    3  A    between atoms: C_2  and  C_4
REMARK    4  A    between atoms: N_6  and  C_7
REMARK    5  A    between atoms: C_10  and  C_13
REMARK    6  A    between atoms: N_15  and  N_16
REMARK    7  A    between atoms: N_16  and  C_17
REMARK    8  A    between atoms: C_17  and  N_19
REMARK    9  A    between atoms: C_20  and  C_22
REMARK   10  A    between atoms: C_23  and  C_24
REMARK   11  A    between atoms: C_27  and  O_32
REMARK   12  A    between atoms: C_28  and  O_30
REMARK   13  A    between atoms: O_30  and  C_31
REMARK   14  A    between atoms: O_32  and  C_33
REMARK                            x       y       z     vdW  Elec       q    Type
REMARK                         _______ _______ _______ _____ _____    ______ ____
ROOT
ATOM      1  N   UNL     1       0.149   9.832   0.513  0.00  0.00    -0.245 N 
ATOM      2  H   UNL     1      -0.678  10.332   0.589  0.00  0.00    +0.172 HD
ENDROOT
BRANCH   1   5
ATOM      3  C   UNL     1      -1.064   7.786   0.423  0.00  0.00    +0.260 C 
ATOM      4  O   UNL     1      -2.102   8.413   0.518  0.00  0.00    -0.269 OA
ATOM      5  N   UNL     1       0.117   8.435   0.414  0.00  0.00    -0.231 N 
ATOM      6  H   UNL     1       0.945   7.935   0.338  0.00  0.00    +0.173 HD
BRANCH   3  10
ATOM      7  C   UNL     1      -1.162   3.551   0.119  0.00  0.00    +0.033 A 
ATOM      8  C   UNL     1       0.058   4.219   0.115  0.00  0.00    +0.024 A 
ATOM      9  C   UNL     1       0.093   5.592   0.208  0.00  0.00    +0.015 A 
ATOM     10  C   UNL     1      -1.098   6.314   0.318  0.00  0.00    +0.038 A 
ATOM     11  C   UNL     1      -2.322   5.640   0.327  0.00  0.00    +0.015 A 
ATOM     12  C   UNL     1      -2.350   4.267   0.229  0.00  0.00    +0.024 A 
BRANCH   7  15
ATOM     13  C   UNL     1      -0.267   1.516  -0.716  0.00  0.00    +0.220 C 
ATOM     14  O   UNL     1       0.535   2.149  -1.370  0.00  0.00    -0.275 OA
ATOM     15  N   UNL     1      -1.195   2.161   0.019  0.00  0.00    -0.285 N 
ATOM     16  H   UNL     1      -1.884   1.657   0.480  0.00  0.00    +0.155 HD
BRANCH  13  18
ATOM     17  C   UNL     1       0.903  -0.464  -1.643  0.00  0.00    +0.017 C 
ATOM     18  C   UNL     1      -0.231   0.010  -0.731  0.00  0.00    +0.069 C 
ATOM     19  C   UNL     1       0.006  -0.509   0.689  0.00  0.00    +0.017 C 
ENDBRANCH  13  18
ENDBRANCH   7  15
ENDBRANCH   3  10
ENDBRANCH   1   5
BRANCH   1  20
ATOM     20  C   UNL     1       1.330  10.482   0.504  0.00  0.00    +0.153 C 
ATOM     21  S   UNL     1       1.370  12.189   0.626  0.00  0.00    -0.017 S 
BRANCH  20  22
ATOM     22  N   UNL     1       2.480   9.787   0.399  0.00  0.00    -0.263 N 
ATOM     23  C   UNL     1       3.661  10.436   0.390  0.00  0.00    +0.242 C 
ATOM     24  O   UNL     1       3.689  11.649   0.476  0.00  0.00    -0.270 OA
ATOM     25  H   UNL     1       2.458   8.819   0.330  0.00  0.00    +0.157 HD
BRANCH  23  26
ATOM     26  C   UNL     1       4.908   9.682   0.276  0.00  0.00    +0.068 C 
ATOM     27  C   UNL     1       6.092  10.333   0.267  0.00  0.00    +0.013 C 
BRANCH  27  28
ATOM     28  C   UNL     1       7.346   9.575   0.152  0.00  0.00    -0.021 A 
ATOM     29  C   UNL     1       7.316   8.179   0.052  0.00  0.00    +0.012 A 
ATOM     30  C   UNL     1       8.493   7.471  -0.055  0.00  0.00    +0.050 A 
ATOM     31  C   UNL     1       9.710   8.139  -0.065  0.00  0.00    +0.162 A 
ATOM     32  C   UNL     1       9.749   9.530   0.034  0.00  0.00    +0.162 A 
ATOM     33  C   UNL     1       8.574  10.248   0.136  0.00  0.00    +0.057 A 
BRANCH  32  34
ATOM     34  O   UNL     1      10.944  10.179   0.024  0.00  0.00    -0.491 OA
ATOM     35  C   UNL     1      10.908  11.604   0.129  0.00  0.00    +0.277 C 
ENDBRANCH  32  34
BRANCH  31  36
ATOM     36  O   UNL     1      10.868   7.436  -0.171  0.00  0.00    -0.491 OA
ATOM     37  C   UNL     1      10.756   6.014  -0.268  0.00  0.00    +0.277 C 
ENDBRANCH  31  36
ENDBRANCH  27  28
ENDBRANCH  23  26
ENDBRANCH  20  22
ENDBRANCH   1  20
TORSDOF 10
