REMARK  Name = ZINC02944053
REMARK  11 active torsions:
REMARK  status: ('A' for Active; 'I' for Inactive)
REMARK    1  A    between atoms: C_1  and  C_2
REMARK    2  A    between atoms: C_8  and  C_28
REMARK    3  A    between atoms: C_12  and  C_14
REMARK    4  A    between atoms: C_12  and  C_17
REMARK    5  A    between atoms: C_14  and  C_15
REMARK    6  A    between atoms: C_15  and  O_16
REMARK    7  A    between atoms: C_17  and  O_18
REMARK    8  A    between atoms: C_21  and  O_27
REMARK    9  A    between atoms: C_23  and  C_24
REMARK   10  A    between atoms: C_23  and  C_25
REMARK   11  A    between atoms: C_25  and  O_26
REMARK                            x       y       z     vdW  Elec       q    Type
REMARK                         _______ _______ _______ _____ _____    ______ ____
ROOT
ATOM      1  C   UNL     1      -1.816   0.390   1.623  0.00  0.00    +0.010 C 
ATOM      2  C   UNL     1      -1.311  -1.001   1.248  0.00  0.00    +0.018 C 
ATOM      3  C   UNL     1      -0.388  -0.902   0.034  0.00  0.00    +0.006 C 
ATOM      4  C   UNL     1       0.079  -2.293  -0.384  0.00  0.00    +0.005 C 
ATOM      5  C   UNL     1       0.745  -3.069   0.757  0.00  0.00    +0.008 C 
ATOM      6  C   UNL     1      -0.130  -3.062   2.001  0.00  0.00    +0.001 C 
ATOM      7  C   UNL     1      -0.526  -1.628   2.397  0.00  0.00    +0.079 C 
ATOM      8  C   UNL     1       0.723  -0.794   2.709  0.00  0.00    +0.039 C 
ATOM      9  C   UNL     1       0.378  -0.052   4.021  0.00  0.00    +0.040 C 
ATOM     10  C   UNL     1      -0.804  -0.840   4.610  0.00  0.00    +0.095 C 
ATOM     11  O   UNL     1      -1.327  -1.679   3.580  0.00  0.00    -0.364 OA
ATOM     12  C   UNL     1      -1.410  -3.863   1.742  0.00  0.00    +0.012 C 
ATOM     13  C   UNL     1      -1.054  -5.302   1.375  0.00  0.00    +0.032 C 
ATOM     14  C   UNL     1      -0.211  -5.317   0.104  0.00  0.00    +0.123 C 
ATOM     15  C   UNL     1       1.054  -4.477   0.249  0.00  0.00    +0.020 C 
ATOM     16  C   UNL     1       2.080  -5.205   1.118  0.00  0.00    +0.016 C 
ATOM     17  C   UNL     1       0.579  -3.669   3.218  0.00  0.00    +0.014 C 
ENDROOT
BRANCH  14  18
ATOM     18  O   UNL     1       0.152  -6.668  -0.207  0.00  0.00    -0.391 OA
ATOM     19  H   UNL     1      -0.603  -7.253  -0.356  0.00  0.00    +0.210 HD
ENDBRANCH  14  18
BRANCH  10  20
ATOM     20  C   UNL     1      -0.324  -1.680   5.800  0.00  0.00    +0.065 C 
BRANCH  20  21
ATOM     21  C   UNL     1       0.129  -0.752   6.929  0.00  0.00    +0.158 C 
BRANCH  21  22
ATOM     22  O   UNL     1       0.591  -1.534   8.032  0.00  0.00    -0.395 OA
ATOM     23  H   UNL     1       0.895  -1.011   8.786  0.00  0.00    +0.209 HD
ENDBRANCH  21  22
ENDBRANCH  20  21
ENDBRANCH  10  20
BRANCH  10  24
ATOM     24  C   UNL     1      -1.883   0.133   5.100  0.00  0.00    +0.190 C 
BRANCH  24  25
ATOM     25  O   UNL     1      -2.988  -0.606   5.624  0.00  0.00    -0.392 OA
ATOM     26  H   UNL     1      -3.710  -0.053   5.954  0.00  0.00    +0.210 HD
ENDBRANCH  24  25
ENDBRANCH  10  24
BRANCH  15  27
ATOM     27  C   UNL     1       1.694  -4.378  -1.156  0.00  0.00    +0.165 C 
BRANCH  27  28
ATOM     28  O   UNL     1       1.987  -5.691  -1.639  0.00  0.00    -0.394 OA
ATOM     29  H   UNL     1       2.391  -5.706  -2.518  0.00  0.00    +0.209 HD
ENDBRANCH  27  28
ENDBRANCH  15  27
TORSDOF 8
