REMARK  Name = ZINC13832857
REMARK  10 active torsions:
REMARK  status: ('A' for Active; 'I' for Inactive)
REMARK    1  A    between atoms: C_1  and  C_2
REMARK    2  A    between atoms: C_2  and  C_3
REMARK    3  A    between atoms: C_3  and  C_4
REMARK    4  A    between atoms: C_4  and  N_5
REMARK    5  A    between atoms: N_5  and  C_6
REMARK    6  A    between atoms: N_5  and  C_23
REMARK    7  A    between atoms: C_6  and  C_7
REMARK    8  A    between atoms: C_10  and  C_13
REMARK    9  A    between atoms: C_18  and  C_19
REMARK   10  A    between atoms: C_24  and  C_28
REMARK                            x       y       z     vdW  Elec       q    Type
REMARK                         _______ _______ _______ _____ _____    ______ ____
ROOT
ATOM      1  C   UNL     1       4.779   5.298   0.412  0.00  0.00    -0.030 A 
ATOM      2  C   UNL     1       3.653   5.347  -0.389  0.00  0.00    +0.006 A 
ATOM      3  C   UNL     1       2.548   4.582  -0.079  0.00  0.00    +0.009 A 
ATOM      4  C   UNL     1       2.568   3.758   1.046  0.00  0.00    -0.017 A 
ATOM      5  C   UNL     1       3.704   3.717   1.853  0.00  0.00    +0.009 A 
ATOM      6  C   UNL     1       4.805   4.482   1.529  0.00  0.00    +0.006 A 
ENDROOT
BRANCH   4   7
ATOM      7  C   UNL     1       1.384   2.933   1.385  0.00  0.00    -0.007 A 
ATOM      8  C   UNL     1       0.119   3.512   1.439  0.00  0.00    +0.009 A 
ATOM      9  C   UNL     1      -0.981   2.740   1.756  0.00  0.00    +0.001 A 
ATOM     10  C   UNL     1      -0.836   1.388   2.017  0.00  0.00    +0.001 A 
ATOM     11  C   UNL     1       0.410   0.798   1.973  0.00  0.00    +0.012 A 
ATOM     12  C   UNL     1       1.532   1.562   1.655  0.00  0.00    +0.030 A 
BRANCH  12  13
ATOM     13  C   UNL     1       2.869   0.933   1.601  0.00  0.00    +0.207 A 
ATOM     14  N   UNL     1       4.548  -0.478   1.667  0.00  0.00    -0.021 NA
ATOM     15  N   UNL     1       4.979   0.697   1.358  0.00  0.00    -0.021 NA
ATOM     16  N   UNL     1       4.006   1.534   1.316  0.00  0.00    -0.106 NA
ATOM     17  N   UNL     1       3.176  -0.350   1.836  0.00  0.00    -0.106 NA
ENDBRANCH  12  13
ENDBRANCH   4   7
BRANCH   1  18
ATOM     18  C   UNL     1       5.983   6.137   0.067  0.00  0.00    +0.141 C 
BRANCH  18  19
ATOM     19  N   UNL     1       5.908   7.418   0.783  0.00  0.00    -0.312 N 
BRANCH  19  20
ATOM     20  C   UNL     1       4.909   8.226   0.255  0.00  0.00    +0.102 A 
ATOM     21  C   UNL     1       3.847   8.626   1.060  0.00  0.00    -0.012 A 
ATOM     22  C   UNL     1       2.860   9.431   0.522  0.00  0.00    +0.008 A 
ATOM     23  C   UNL     1       2.967   9.810  -0.810  0.00  0.00    +0.018 A 
ATOM     24  C   UNL     1       4.048   9.377  -1.551  0.00  0.00    +0.084 A 
ATOM     25  C   UNL     1       3.774   8.188   2.501  0.00  0.00    +0.047 C 
ATOM     26  N   UNL     1       5.040   8.591  -1.053  0.00  0.00    -0.349 N 
ATOM     27  H   UNL     1       5.837   8.291  -1.626  0.00  0.00    +0.167 HD
ENDBRANCH  19  20
BRANCH  19  28
ATOM     28  C   UNL     1       7.206   8.106   0.767  0.00  0.00    +0.107 C 
BRANCH  28  29
ATOM     29  C   UNL     1       7.162   9.301   1.722  0.00  0.00    +0.019 C 
BRANCH  29  31
ATOM     30  C   UNL     1       8.469  11.212   2.660  0.00  0.00    +0.004 C 
ATOM     31  C   UNL     1       8.513  10.018   1.705  0.00  0.00    -0.002 C 
ENDBRANCH  29  31
ENDBRANCH  28  29
ENDBRANCH  19  28
ENDBRANCH  18  19
ENDBRANCH   1  18
TORSDOF 8
