REMARK  Name = ZINC61327731
REMARK  5 active torsions:
REMARK  status: ('A' for Active; 'I' for Inactive)
REMARK    1  A    between atoms: C_3  and  N_12
REMARK    2  A    between atoms: C_5  and  N_7
REMARK    3  A    between atoms: N_7  and  S_8
REMARK    4  A    between atoms: S_8  and  N_11
REMARK    5  A    between atoms: N_12  and  C_13
REMARK                            x       y       z     vdW  Elec       q    Type
REMARK                         _______ _______ _______ _____ _____    ______ ____
ROOT
ATOM      1  C   UNL     1      -0.239   1.284   0.147  0.00  0.00    +0.004 A 
ATOM      2  C   UNL     1       0.894   2.072   0.099  0.00  0.00    +0.023 A 
ATOM      3  C   UNL     1       2.149   1.482   0.011  0.00  0.00    +0.029 A 
ATOM      4  C   UNL     1       2.263   0.100  -0.029  0.00  0.00    +0.047 A 
ATOM      5  C   UNL     1       1.122  -0.689   0.019  0.00  0.00    +0.051 A 
ATOM      6  C   UNL     1      -0.130  -0.092   0.107  0.00  0.00    +0.024 A 
ENDROOT
BRANCH   5   7
ATOM      7  N   UNL     1       1.232  -2.081  -0.021  0.00  0.00    -0.207 N 
ATOM      8  H   UNL     1       1.008  -2.561  -0.833  0.00  0.00    +0.175 HD
BRANCH   7   9
ATOM      9  S   UNL     1       1.746  -2.910   1.317  0.00  0.00    +0.107 S 
ATOM     10  O   UNL     1       1.735  -4.288   0.970  0.00  0.00    -0.138 OA
ATOM     11  O   UNL     1       2.917  -2.250   1.778  0.00  0.00    -0.138 OA
BRANCH   9  12
ATOM     12  N   UNL     1       0.596  -2.708   2.490  0.00  0.00    -0.191 NA
ATOM     13  H   UNL     1       0.501  -3.367   3.196  0.00  0.00    +0.146 HD
ATOM     14  H   UNL     1       0.016  -1.930   2.472  0.00  0.00    +0.146 HD
ENDBRANCH   9  12
ENDBRANCH   7   9
ENDBRANCH   5   7
BRANCH   3  15
ATOM     15  N   UNL     1       3.295   2.280  -0.037  0.00  0.00    -0.337 N 
ATOM     16  H   UNL     1       4.171   1.867  -0.099  0.00  0.00    +0.147 HD
BRANCH  15  17
ATOM     17  C   UNL     1       3.174   3.739   0.004  0.00  0.00    +0.101 C 
ATOM     18  C   UNL     1       4.469   4.346   0.546  0.00  0.00    +0.027 C 
ATOM     19  C   UNL     1       4.425   5.871   0.424  0.00  0.00    +0.007 C 
ATOM     20  C   UNL     1       4.526   6.250  -1.062  0.00  0.00    +0.043 C 
ATOM     21  C   UNL     1       3.566   5.400  -1.829  0.00  0.00    -0.005 A 
ATOM     22  C   UNL     1       2.929   4.273  -1.404  0.00  0.00    -0.017 A 
ATOM     23  C   UNL     1       2.070   3.658  -2.314  0.00  0.00    +0.013 A 
ATOM     24  C   UNL     1       1.901   4.185  -3.549  0.00  0.00    +0.046 A 
ATOM     25  S   UNL     1       2.982   5.613  -3.489  0.00  0.00    -0.101 S 
ENDBRANCH  15  17
ENDBRANCH   3  15
TORSDOF 5
