REMARK  Name = ZINC15074008
REMARK  6 active torsions:
REMARK  status: ('A' for Active; 'I' for Inactive)
REMARK    1  A    between atoms: C_1  and  C_2
REMARK    2  A    between atoms: C_4  and  C_26
REMARK    3  A    between atoms: C_6  and  N_8
REMARK    4  A    between atoms: C_13  and  N_49
REMARK    5  A    between atoms: C_18  and  C_19
REMARK    6  A    between atoms: C_18  and  N_49
REMARK                            x       y       z     vdW  Elec       q    Type
REMARK                         _______ _______ _______ _____ _____    ______ ____
ROOT
ATOM      1  N   UNL     1       0.077   2.491   4.721  0.00  0.00    -0.237 N 
ATOM      2  C   UNL     1      -0.103   3.519   5.571  0.00  0.00    +0.047 A 
ATOM      3  C   UNL     1       0.797   3.386   6.579  0.00  0.00    -0.020 A 
ATOM      4  C   UNL     1       1.555   2.244   6.332  0.00  0.00    +0.137 A 
ATOM      5  N   UNL     1       1.126   1.703   5.217  0.00  0.00    -0.174 NA
ATOM      6  C   UNL     1       0.916   4.345   7.737  0.00  0.00    -0.037 C 
ATOM      7  C   UNL     1       0.189   5.646   7.364  0.00  0.00    -0.011 C 
ATOM      8  C   UNL     1      -1.214   5.312   6.849  0.00  0.00    +0.005 C 
ATOM      9  C   UNL     1      -1.109   4.638   5.475  0.00  0.00    +0.056 C 
ENDROOT
BRANCH   1  15
ATOM     10  C   UNL     1      -2.027   4.213   0.623  0.00  0.00    +0.044 C 
ATOM     11  C   UNL     1      -1.683   3.070   1.542  0.00  0.00    -0.048 A 
ATOM     12  C   UNL     1      -2.088   1.786   1.229  0.00  0.00    +0.006 A 
ATOM     13  C   UNL     1      -1.769   0.733   2.067  0.00  0.00    -0.048 A 
ATOM     14  C   UNL     1      -1.054   0.964   3.226  0.00  0.00    +0.031 A 
ATOM     15  C   UNL     1      -0.650   2.253   3.546  0.00  0.00    +0.066 A 
ATOM     16  C   UNL     1      -0.967   3.307   2.699  0.00  0.00    +0.031 A 
ATOM     17  C   UNL     1      -2.208  -0.666   1.720  0.00  0.00    +0.044 C 
ENDBRANCH   1  15
BRANCH   6  18
ATOM     18  N   UNL     1       2.337   4.646   7.990  0.00  0.00    +0.386 N 
ATOM     19  H   UNL     1       2.413   5.563   8.447  0.00  0.00    -0.085 HD
ATOM     20  H   UNL     1       2.843   4.667   7.096  0.00  0.00    -0.085 HD
BRANCH  18  21
ATOM     21  C   UNL     1       2.932   3.616   8.862  0.00  0.00    -0.043 C 
BRANCH  21  22
ATOM     22  C   UNL     1       4.382   3.950   9.102  0.00  0.00    -0.028 A 
ATOM     23  C   UNL     1       5.369   3.465   8.258  0.00  0.00    +0.117 A 
ATOM     24  N   UNL     1       6.632   3.780   8.494  0.00  0.00    -0.223 NA
ATOM     25  C   UNL     1       6.958   4.541   9.529  0.00  0.00    +0.212 A 
ATOM     26  N   UNL     1       6.039   5.016  10.357  0.00  0.00    -0.223 NA
ATOM     27  C   UNL     1       4.758   4.743  10.175  0.00  0.00    +0.117 A 
ATOM     28  N   UNL     1       8.290   4.847   9.750  0.00  0.00    -0.327 N 
ATOM     29  H   UNL     1       8.541   5.403  10.504  0.00  0.00    +0.145 HD
ATOM     30  H   UNL     1       8.972   4.506   9.150  0.00  0.00    +0.145 HD
ENDBRANCH  21  22
ENDBRANCH  18  21
ENDBRANCH   6  18
TORSDOF 4
