REMARK  Name = ZINC33429232
REMARK  8 active torsions:
REMARK  status: ('A' for Active; 'I' for Inactive)
REMARK    1  A    between atoms: C_1  and  C_2
REMARK    2  A    between atoms: C_2  and  C_3
REMARK    3  A    between atoms: C_3  and  C_5
REMARK    4  A    between atoms: C_3  and  C_6
REMARK    5  A    between atoms: C_6  and  C_33
REMARK    6  A    between atoms: C_11  and  C_14
REMARK    7  A    between atoms: N_23  and  C_26
REMARK    8  A    between atoms: C_26  and  C_27
REMARK                            x       y       z     vdW  Elec       q    Type
REMARK                         _______ _______ _______ _____ _____    ______ ____
ROOT
ATOM      1  C   UNL     1      -2.574   2.046  -0.221  0.00  0.00    +0.051 C 
ATOM      2  C   UNL     1      -1.122   1.957  -0.026  0.00  0.00    +0.086 C 
ATOM      3  C   UNL     1      -0.576   3.127  -0.918  0.00  0.00    +0.077 C 
ATOM      4  C   UNL     1      -1.540   4.220  -0.490  0.00  0.00    -0.027 C 
ATOM      5  N   UNL     1      -2.823   3.527  -0.166  0.00  0.00    +0.396 N 
ATOM      6  C   UNL     1       0.836   3.096  -0.426  0.00  0.00    +0.225 C 
ATOM      7  O   UNL     1       1.591   4.038  -0.322  0.00  0.00    -0.275 OA
ATOM      8  N   UNL     1       1.104   1.792  -0.118  0.00  0.00    -0.237 N 
ATOM      9  C   UNL     1      -0.030   1.022  -0.033  0.00  0.00    +0.225 C 
ATOM     10  O   UNL     1      -0.096  -0.187   0.020  0.00  0.00    -0.275 OA
ATOM     11  H   UNL     1      -3.598   3.796  -0.899  0.00  0.00    -0.083 HD
ATOM     12  H   UNL     1      -3.162   3.805   0.843  0.00  0.00    -0.083 HD
ENDROOT
BRANCH   4  13
ATOM     13  C   UNL     1      -1.012   4.932   0.728  0.00  0.00    -0.061 A 
ATOM     14  C   UNL     1      -1.242   4.411   1.987  0.00  0.00    +0.003 A 
ATOM     15  C   UNL     1      -0.754   5.062   3.104  0.00  0.00    +0.015 A 
ATOM     16  C   UNL     1      -0.043   6.240   2.963  0.00  0.00    +0.018 A 
ATOM     17  C   UNL     1       0.184   6.763   1.703  0.00  0.00    +0.015 A 
ATOM     18  C   UNL     1      -0.301   6.109   0.586  0.00  0.00    +0.003 A 
ATOM     19 BR   UNL     1       0.621   7.134   4.491  0.00  0.00    -0.050 Br
ENDBRANCH   4  13
BRANCH   1  20
ATOM     20  C   UNL     1      -3.316   1.337   0.884  0.00  0.00    +0.347 C 
ATOM     21  O   UNL     1      -2.815   0.385   1.434  0.00  0.00    -0.248 OA
ATOM     22  O   UNL     1      -4.532   1.765   1.257  0.00  0.00    -0.248 OA
ENDBRANCH   1  20
BRANCH   1  23
ATOM     23  C   UNL     1      -2.969   1.479  -1.586  0.00  0.00    -0.014 C 
ATOM     24  C   UNL     1      -4.462   1.713  -1.823  0.00  0.00    +0.006 C 
BRANCH  23  26
ATOM     25  C   UNL     1      -2.953  -0.565  -3.022  0.00  0.00    +0.004 C 
ATOM     26  C   UNL     1      -2.676  -0.022  -1.619  0.00  0.00    -0.001 C 
ENDBRANCH  23  26
ENDBRANCH   1  23
BRANCH   8  27
ATOM     27  C   UNL     1       2.456   1.271   0.098  0.00  0.00    +0.151 C 
BRANCH  27  28
ATOM     28  C   UNL     1       3.023   0.786  -1.211  0.00  0.00    -0.030 A 
ATOM     29  C   UNL     1       2.836  -0.526  -1.602  0.00  0.00    +0.005 A 
ATOM     30  C   UNL     1       3.353  -0.970  -2.805  0.00  0.00    +0.000 A 
ATOM     31  C   UNL     1       4.065  -0.103  -3.613  0.00  0.00    +0.000 A 
ATOM     32  C   UNL     1       4.256   1.209  -3.220  0.00  0.00    +0.000 A 
ATOM     33  C   UNL     1       3.736   1.653  -2.019  0.00  0.00    +0.005 A 
ENDBRANCH  27  28
ENDBRANCH   8  27
TORSDOF 6
