REMARK  Name = ZINC14023457
REMARK  10 active torsions:
REMARK  status: ('A' for Active; 'I' for Inactive)
REMARK    1  A    between atoms: C_1  and  C_2
REMARK    2  A    between atoms: C_5  and  S_8
REMARK    3  A    between atoms: S_8  and  N_11
REMARK    4  A    between atoms: C_15  and  C_18
REMARK    5  A    between atoms: N_20  and  C_21
REMARK    6  A    between atoms: C_21  and  C_22
REMARK    7  A    between atoms: C_22  and  C_23
REMARK    8  A    between atoms: C_23  and  N_66
REMARK    9  A    between atoms: C_24  and  N_66
REMARK   10  A    between atoms: C_25  and  N_66
REMARK                            x       y       z     vdW  Elec       q    Type
REMARK                         _______ _______ _______ _____ _____    ______ ____
ROOT
ATOM      1  C   UNL     1      -2.418  -2.379   3.746  0.00  0.00    +0.226 C 
ATOM      2  O   UNL     1      -3.187  -1.464   3.949  0.00  0.00    -0.275 OA
ATOM      3  N   UNL     1      -2.642  -3.584   4.306  0.00  0.00    -0.250 N 
ATOM      4  C   UNL     1      -1.709  -4.598   4.165  0.00  0.00    +0.168 A 
ATOM      5  N   UNL     1      -0.515  -4.549   3.620  0.00  0.00    -0.224 NA
ATOM      6  C   UNL     1       0.296  -5.626   3.551  0.00  0.00    +0.080 A 
ATOM      7  C   UNL     1       1.594  -5.707   2.995  0.00  0.00    +0.029 A 
ATOM      8  C   UNL     1       2.289  -6.888   3.008  0.00  0.00    +0.002 A 
ATOM      9  C   UNL     1       1.750  -8.040   3.562  0.00  0.00    +0.001 A 
ATOM     10  C   UNL     1       0.483  -7.997   4.114  0.00  0.00    +0.017 A 
ATOM     11  C   UNL     1      -0.221  -6.819   4.106  0.00  0.00    +0.041 A 
ATOM     12  S   UNL     1      -1.819  -6.304   4.686  0.00  0.00    -0.052 S 
ENDROOT
BRANCH   1  17
ATOM     13  N   UNL     1      -0.279  -0.778   1.093  0.00  0.00    -0.176 NA
ATOM     14  C   UNL     1       0.954  -0.469   1.830  0.00  0.00    +0.109 C 
ATOM     15  C   UNL     1       1.218  -1.579   2.846  0.00  0.00    +0.018 C 
ATOM     16  C   UNL     1      -0.016  -1.761   3.732  0.00  0.00    +0.015 C 
ATOM     17  C   UNL     1      -1.211  -2.169   2.868  0.00  0.00    +0.091 C 
ATOM     18  C   UNL     1      -1.504  -1.060   1.853  0.00  0.00    +0.122 C 
BRANCH  13  19
ATOM     19  S   UNL     1      -0.285  -0.815  -0.562  0.00  0.00    +0.061 S 
ATOM     20  O   UNL     1      -1.367  -1.653  -0.946  0.00  0.00    -0.153 OA
ATOM     21  O   UNL     1       1.053  -1.065  -0.968  0.00  0.00    -0.153 OA
BRANCH  19  26
ATOM     22  C   UNL     1      -1.653   4.744  -2.467  0.00  0.00    +0.044 C 
ATOM     23  C   UNL     1      -1.312   3.356  -1.991  0.00  0.00    -0.050 A 
ATOM     24  C   UNL     1       0.008   3.002  -1.783  0.00  0.00    +0.005 A 
ATOM     25  C   UNL     1       0.322   1.728  -1.347  0.00  0.00    +0.029 A 
ATOM     26  C   UNL     1      -0.685   0.809  -1.118  0.00  0.00    +0.105 A 
ATOM     27  C   UNL     1      -2.004   1.161  -1.331  0.00  0.00    +0.029 A 
ATOM     28  C   UNL     1      -2.318   2.436  -1.762  0.00  0.00    +0.005 A 
ENDBRANCH  19  26
ENDBRANCH  13  19
ENDBRANCH   1  17
BRANCH   3  29
ATOM     29  C   UNL     1      -3.874  -3.823   5.063  0.00  0.00    +0.114 C 
BRANCH  29  30
ATOM     30  C   UNL     1      -4.960  -4.344   4.120  0.00  0.00    +0.001 C 
BRANCH  30  31
ATOM     31  C   UNL     1      -6.246  -4.592   4.910  0.00  0.00    -0.078 C 
BRANCH  31  34
ATOM     32  C   UNL     1      -8.457  -5.566   4.758  0.00  0.00    -0.097 C 
ATOM     33  C   UNL     1      -7.673  -4.066   3.027  0.00  0.00    -0.097 C 
ATOM     34  N   UNL     1      -7.278  -5.115   3.990  0.00  0.00    +0.376 N 
ATOM     35  H   UNL     1      -6.891  -5.913   3.474  0.00  0.00    -0.083 HD
ENDBRANCH  31  34
ENDBRANCH  30  31
ENDBRANCH  29  30
ENDBRANCH   3  29
TORSDOF 7
