REMARK  Name = ZINC59588835
REMARK  10 active torsions:
REMARK  status: ('A' for Active; 'I' for Inactive)
REMARK    1  A    between atoms: C_1  and  C_2
REMARK    2  A    between atoms: C_2  and  N_3
REMARK    3  A    between atoms: N_3  and  C_4
REMARK    4  A    between atoms: N_3  and  S_6
REMARK    5  A    between atoms: C_4  and  C_5
REMARK    6  A    between atoms: S_6  and  C_9
REMARK    7  A    between atoms: C_12  and  C_15
REMARK    8  A    between atoms: C_16  and  C_17
REMARK    9  A    between atoms: N_19  and  C_20
REMARK   10  A    between atoms: C_23  and  C_26
REMARK                            x       y       z     vdW  Elec       q    Type
REMARK                         _______ _______ _______ _____ _____    ______ ____
ROOT
ATOM      1  C   UNL     1      -6.788   5.442   3.703  0.00  0.00    +0.241 C 
ATOM      2  O   UNL     1      -6.190   6.208   4.436  0.00  0.00    -0.270 OA
ATOM      3  N   UNL     1      -8.068   5.694   3.366  0.00  0.00    -0.282 N 
ATOM      4  H   UNL     1      -8.524   5.120   2.730  0.00  0.00    +0.155 HD
ENDROOT
BRANCH   3   5
ATOM      5  C   UNL     1      -8.740   6.780   3.933  0.00  0.00    +0.034 A 
ATOM      6  C   UNL     1      -8.051   7.956   4.206  0.00  0.00    +0.024 A 
ATOM      7  C   UNL     1      -8.712   9.030   4.765  0.00  0.00    +0.012 A 
ATOM      8  C   UNL     1     -10.071   8.935   5.057  0.00  0.00    -0.000 A 
ATOM      9  C   UNL     1     -10.760   7.755   4.782  0.00  0.00    +0.012 A 
ATOM     10  C   UNL     1     -10.097   6.686   4.218  0.00  0.00    +0.024 A 
BRANCH   8  11
ATOM     11  C   UNL     1     -10.784  10.088   5.660  0.00  0.00    +0.064 A 
ATOM     12  C   UNL     1     -10.238  11.294   5.972  0.00  0.00    +0.113 A 
ATOM     13  N   UNL     1     -11.242  12.050   6.498  0.00  0.00    -0.335 N 
ATOM     14  C   UNL     1     -12.368  11.297   6.495  0.00  0.00    +0.087 A 
ATOM     15  N   UNL     1     -12.092  10.131   5.990  0.00  0.00    -0.343 N 
ATOM     16  C   UNL     1     -13.706  11.778   7.004  0.00  0.00    +0.072 C 
ATOM     17  C   UNL     1     -13.473  13.035   7.851  0.00  0.00    +0.009 C 
ATOM     18  C   UNL     1     -12.576  14.006   7.078  0.00  0.00    +0.022 C 
ATOM     19  C   UNL     1     -11.159  13.430   6.986  0.00  0.00    +0.123 C 
ATOM     20  H   UNL     1     -12.726   9.406   5.871  0.00  0.00    +0.167 HD
ENDBRANCH   8  11
ENDBRANCH   3   5
BRANCH   1  22
ATOM     21  C   UNL     1      -4.835   3.996   3.525  0.00  0.00    +0.013 C 
ATOM     22  C   UNL     1      -6.116   4.248   3.188  0.00  0.00    +0.068 C 
BRANCH  21  26
ATOM     23  C   UNL     1      -2.889   0.535   2.034  0.00  0.00    +0.106 A 
ATOM     24  C   UNL     1      -2.206   1.404   2.866  0.00  0.00    +0.029 A 
ATOM     25  C   UNL     1      -2.831   2.531   3.355  0.00  0.00    +0.010 A 
ATOM     26  C   UNL     1      -4.160   2.795   3.007  0.00  0.00    -0.025 A 
ATOM     27  C   UNL     1      -4.843   1.913   2.166  0.00  0.00    +0.010 A 
ATOM     28  C   UNL     1      -4.202   0.792   1.681  0.00  0.00    +0.029 A 
BRANCH  23  29
ATOM     29  S   UNL     1      -2.081  -0.903   1.414  0.00  0.00    +0.061 S 
ATOM     30  O   UNL     1      -3.103  -1.836   1.091  0.00  0.00    -0.153 OA
ATOM     31  O   UNL     1      -1.034  -1.205   2.325  0.00  0.00    -0.153 OA
BRANCH  29  32
ATOM     32  N   UNL     1      -1.358  -0.480  -0.015  0.00  0.00    -0.177 NA
BRANCH  32  34
ATOM     33  C   UNL     1      -0.006   1.558   0.001  0.00  0.00    +0.022 C 
ATOM     34  C   UNL     1       0.016   0.028  -0.018  0.00  0.00    +0.106 C 
ENDBRANCH  32  34
BRANCH  32  35
ATOM     35  C   UNL     1      -2.092  -0.615  -1.275  0.00  0.00    +0.106 C 
ATOM     36  C   UNL     1      -1.752  -1.959  -1.923  0.00  0.00    +0.022 C 
ENDBRANCH  32  35
ENDBRANCH  29  32
ENDBRANCH  23  29
ENDBRANCH  21  26
ENDBRANCH   1  22
TORSDOF 8
