REMARK  Name = ZINC33170666
REMARK  13 active torsions:
REMARK  status: ('A' for Active; 'I' for Inactive)
REMARK    1  A    between atoms: C_1  and  C_2
REMARK    2  A    between atoms: C_4  and  C_33
REMARK    3  A    between atoms: C_5  and  N_9
REMARK    4  A    between atoms: C_6  and  C_8
REMARK    5  A    between atoms: N_9  and  S_10
REMARK    6  A    between atoms: S_10  and  C_13
REMARK    7  A    between atoms: C_15  and  C_21
REMARK    8  A    between atoms: C_18  and  O_19
REMARK    9  A    between atoms: O_19  and  C_20
REMARK   10  A    between atoms: C_22  and  C_23
REMARK   11  A    between atoms: C_24  and  N_29
REMARK   12  A    between atoms: C_25  and  C_28
REMARK   13  A    between atoms: C_30  and  C_32
REMARK                            x       y       z     vdW  Elec       q    Type
REMARK                         _______ _______ _______ _____ _____    ______ ____
ROOT
ATOM      1  C   UNL     1       1.821   1.455   0.121  0.00  0.00    +0.150 A 
ATOM      2  C   UNL     1       2.203   0.146  -0.082  0.00  0.00    +0.040 A 
ATOM      3  C   UNL     1       3.560  -0.189  -0.103  0.00  0.00    -0.023 A 
ATOM      4  C   UNL     1       4.525   0.808   0.081  0.00  0.00    +0.011 A 
ATOM      5  C   UNL     1       4.133   2.114   0.276  0.00  0.00    +0.048 A 
ATOM      6  C   UNL     1       2.783   2.441   0.303  0.00  0.00    +0.147 A 
ENDROOT
BRANCH   1   7
ATOM      7  S   UNL     1       0.111   1.878   0.149  0.00  0.00    +0.076 S 
ATOM      8  O   UNL     1      -0.047   2.989  -0.723  0.00  0.00    -0.150 OA
ATOM      9  O   UNL     1      -0.610   0.666  -0.023  0.00  0.00    -0.150 OA
BRANCH   7  10
ATOM     10  N   UNL     1      -0.234   2.421   1.675  0.00  0.00    -0.216 N 
ATOM     11  H   UNL     1      -0.500   3.476   1.836  0.00  0.00    +0.174 HD
BRANCH  10  16
ATOM     12  C   UNL     1      -0.041  -1.157   6.070  0.00  0.00    +0.044 C 
ATOM     13  C   UNL     1      -0.093  -0.206   4.902  0.00  0.00    -0.050 A 
ATOM     14  C   UNL     1       0.860   0.789   4.781  0.00  0.00    +0.008 A 
ATOM     15  C   UNL     1       0.816   1.662   3.712  0.00  0.00    -0.028 A 
ATOM     16  C   UNL     1      -0.186   1.540   2.757  0.00  0.00    +0.054 A 
ATOM     17  C   UNL     1      -1.144   0.542   2.885  0.00  0.00    -0.028 A 
ATOM     18  C   UNL     1      -1.091  -0.331   3.954  0.00  0.00    +0.008 A 
ATOM     19  C   UNL     1      -2.237   0.409   1.856  0.00  0.00    +0.046 C 
ATOM     20  C   UNL     1       1.854   2.747   3.580  0.00  0.00    +0.046 C 
ENDBRANCH  10  16
ENDBRANCH   7  10
ENDBRANCH   1   7
BRANCH   6  21
ATOM     21  O   UNL     1       2.402   3.729   0.502  0.00  0.00    -0.493 OA
ATOM     22  C   UNL     1       3.434   4.674   0.792  0.00  0.00    +0.277 C 
ENDBRANCH   6  21
BRANCH   3  23
ATOM     23  C   UNL     1       3.973  -1.585  -0.318  0.00  0.00    +0.012 C 
ATOM     24  C   UNL     1       4.992  -2.104   0.397  0.00  0.00    +0.051 C 
BRANCH  24  25
ATOM     25  C   UNL     1       5.567  -1.346   1.507  0.00  0.00    +0.182 A 
ATOM     26  C   UNL     1       6.686  -1.680   2.260  0.00  0.00    +0.103 A 
ATOM     27  C   UNL     1       6.794  -0.616   3.184  0.00  0.00    +0.102 A 
ATOM     28  N   UNL     1       5.811   0.201   2.930  0.00  0.00    -0.081 NA
ATOM     29  O   UNL     1       5.126  -0.174   2.009  0.00  0.00    -0.353 OA
ATOM     30  C   UNL     1       7.842  -0.457   4.256  0.00  0.00    +0.071 C 
BRANCH  26  31
ATOM     31  N   UNL     1       7.513  -2.805   2.132  0.00  0.00    -0.281 N 
ATOM     32  C   UNL     1       8.851  -2.672   2.224  0.00  0.00    +0.214 C 
ATOM     33  O   UNL     1       9.336  -1.595   2.499  0.00  0.00    -0.276 OA
ATOM     34  C   UNL     1       9.745  -3.861   1.983  0.00  0.00    +0.109 C 
ATOM     35  H   UNL     1       7.070  -3.797   1.958  0.00  0.00    +0.155 HD
ENDBRANCH  26  31
ENDBRANCH  24  25
ENDBRANCH   3  23
TORSDOF 7
