REMARK  Name = ZINC02961553
REMARK  8 active torsions:
REMARK  status: ('A' for Active; 'I' for Inactive)
REMARK    1  A    between atoms: C_1  and  C_2
REMARK    2  A    between atoms: C_3  and  C_21
REMARK    3  A    between atoms: C_7  and  N_8
REMARK    4  A    between atoms: C_9  and  C_11
REMARK    5  A    between atoms: C_15  and  O_19
REMARK    6  A    between atoms: C_16  and  O_17
REMARK    7  A    between atoms: O_17  and  C_18
REMARK    8  A    between atoms: O_19  and  C_20
REMARK                            x       y       z     vdW  Elec       q    Type
REMARK                         _______ _______ _______ _____ _____    ______ ____
ROOT
ATOM      1  C   UNL     1      -3.563   3.249   0.029  0.00  0.00    +0.046 C 
ATOM      2  C   UNL     1      -3.542   1.746  -0.071  0.00  0.00    -0.020 A 
ATOM      3  C   UNL     1      -4.679   1.057  -0.492  0.00  0.00    +0.012 A 
ATOM      4  C   UNL     1      -4.654  -0.336  -0.577  0.00  0.00    +0.011 A 
ATOM      5  C   UNL     1      -3.505  -1.027  -0.249  0.00  0.00    +0.002 A 
ATOM      6  C   UNL     1      -2.376  -0.344   0.163  0.00  0.00    +0.023 A 
ATOM      7  C   UNL     1      -2.391   1.043   0.251  0.00  0.00    +0.037 A 
ENDROOT
BRANCH   3   8
ATOM      8  C   UNL     1      -5.909   1.800  -0.842  0.00  0.00    +0.111 A 
ATOM      9  N   UNL     1      -7.106   1.330  -1.113  0.00  0.00    -0.237 NA
ATOM     10  C   UNL     1      -8.144   2.131  -1.419  0.00  0.00    +0.097 A 
ATOM     11  C   UNL     1      -9.477   1.764  -1.729  0.00  0.00    +0.032 A 
ATOM     12  C   UNL     1     -10.392   2.750  -2.014  0.00  0.00    +0.022 A 
ATOM     13  C   UNL     1     -10.019   4.085  -1.999  0.00  0.00    +0.112 A 
ATOM     14  N   UNL     1      -8.776   4.425  -1.709  0.00  0.00    -0.246 NA
ATOM     15  C   UNL     1      -7.871   3.521  -1.431  0.00  0.00    +0.128 A 
ATOM     16  S   UNL     1      -6.147   3.564  -0.997  0.00  0.00    -0.048 S 
ENDBRANCH   3   8
BRANCH   7  17
ATOM     17  N   UNL     1      -1.246   1.730   0.669  0.00  0.00    -0.281 N 
ATOM     18  C   UNL     1      -0.289   1.084   1.364  0.00  0.00    +0.252 C 
ATOM     19  O   UNL     1      -0.460  -0.071   1.704  0.00  0.00    -0.270 OA
ATOM     20  H   UNL     1      -1.141   2.671   0.459  0.00  0.00    +0.155 HD
BRANCH  18  21
ATOM     21  C   UNL     1       0.967   1.776   1.707  0.00  0.00    +0.082 A 
ATOM     22  C   UNL     1       1.167   3.104   1.319  0.00  0.00    +0.017 A 
ATOM     23  C   UNL     1       2.341   3.747   1.641  0.00  0.00    +0.005 A 
ATOM     24  C   UNL     1       3.330   3.084   2.350  0.00  0.00    +0.049 A 
ATOM     25  C   UNL     1       3.147   1.770   2.743  0.00  0.00    +0.162 A 
ATOM     26  C   UNL     1       1.964   1.108   2.429  0.00  0.00    +0.174 A 
BRANCH  26  27
ATOM     27  O   UNL     1       1.778  -0.179   2.817  0.00  0.00    -0.491 OA
ATOM     28  C   UNL     1       2.209  -1.198   1.912  0.00  0.00    +0.277 C 
ENDBRANCH  26  27
BRANCH  25  29
ATOM     29  O   UNL     1       4.122   1.126   3.440  0.00  0.00    -0.491 OA
ATOM     30  C   UNL     1       5.308   1.868   3.732  0.00  0.00    +0.277 C 
ENDBRANCH  25  29
ENDBRANCH  18  21
ENDBRANCH   7  17
TORSDOF 5
