REMARK  Name = ZINC35730290
REMARK  14 active torsions:
REMARK  status: ('A' for Active; 'I' for Inactive)
REMARK    1  A    between atoms: C_1  and  C_2
REMARK    2  A    between atoms: C_2  and  C_4
REMARK    3  A    between atoms: C_2  and  N_26
REMARK    4  A    between atoms: C_7  and  S_18
REMARK    5  A    between atoms: N_8  and  C_9
REMARK    6  A    between atoms: C_12  and  N_15
REMARK    7  A    between atoms: S_18  and  C_19
REMARK    8  A    between atoms: C_19  and  C_20
REMARK    9  A    between atoms: C_27  and  C_29
REMARK   10  A    between atoms: C_29  and  C_30
REMARK   11  A    between atoms: C_30  and  C_31
REMARK   12  A    between atoms: C_31  and  C_32
REMARK   13  A    between atoms: C_32  and  C_33
REMARK   14  A    between atoms: C_33  and  N_34
REMARK                            x       y       z     vdW  Elec       q    Type
REMARK                         _______ _______ _______ _____ _____    ______ ____
ROOT
ATOM      1  C   UNL     1       0.707  -0.490  -1.238  0.00  0.00    +0.159 A 
ATOM      2  N   UNL     1       0.230  -0.486  -2.450  0.00  0.00    -0.131 NA
ATOM      3  N   UNL     1       1.094  -0.971  -3.268  0.00  0.00    -0.122 NA
ATOM      4  C   UNL     1       2.182  -1.314  -2.618  0.00  0.00    +0.196 A 
ATOM      5  N   UNL     1       1.972  -1.012  -1.300  0.00  0.00    -0.273 N 
ENDROOT
BRANCH   5   6
ATOM      6  C   UNL     1       2.865  -1.202  -0.235  0.00  0.00    +0.050 A 
ATOM      7  C   UNL     1       3.364  -0.107   0.457  0.00  0.00    +0.028 A 
ATOM      8  C   UNL     1       4.242  -0.297   1.506  0.00  0.00    +0.035 A 
ATOM      9  C   UNL     1       4.625  -1.576   1.866  0.00  0.00    +0.126 A 
ATOM     10  C   UNL     1       4.130  -2.668   1.178  0.00  0.00    +0.035 A 
ATOM     11  C   UNL     1       3.246  -2.485   0.133  0.00  0.00    +0.028 A 
BRANCH   9  12
ATOM     12  N   UNL     1       5.567  -1.776   2.990  0.00  0.00    +0.056 N 
ATOM     13  O   UNL     1       6.002  -0.821   3.592  0.00  0.00    -0.126 OA
ATOM     14  O   UNL     1       5.903  -2.893   3.306  0.00  0.00    -0.126 OA
ENDBRANCH   9  12
ENDBRANCH   5   6
BRANCH   1  16
ATOM     15  C   UNL     1      -0.019   1.526   0.010  0.00  0.00    +0.036 C 
ATOM     16  C   UNL     1       0.002  -0.004   0.002  0.00  0.00    +0.138 C 
BRANCH  16  17
ATOM     17  N   UNL     1      -1.372  -0.511   0.012  0.00  0.00    -0.306 N 
ATOM     18  C   UNL     1      -2.029  -0.655   1.181  0.00  0.00    +0.214 C 
ATOM     19  O   UNL     1      -1.481  -0.365   2.224  0.00  0.00    -0.276 OA
ATOM     20  H   UNL     1      -1.810  -0.743  -0.822  0.00  0.00    +0.149 HD
BRANCH  18  21
ATOM     21  C   UNL     1      -3.442  -1.177   1.191  0.00  0.00    +0.096 C 
BRANCH  21  22
ATOM     22  C   UNL     1      -3.951  -1.243   2.633  0.00  0.00    +0.009 C 
BRANCH  22  23
ATOM     23  C   UNL     1      -5.386  -1.773   2.644  0.00  0.00    -0.001 C 
BRANCH  23  24
ATOM     24  C   UNL     1      -5.894  -1.839   4.085  0.00  0.00    -0.020 C 
BRANCH  24  25
ATOM     25  C   UNL     1      -7.330  -2.369   4.096  0.00  0.00    -0.086 C 
BRANCH  25  26
ATOM     26  N   UNL     1      -7.818  -2.432   5.481  0.00  0.00    +0.378 N 
ATOM     27  H   UNL     1      -7.797  -1.509   5.887  0.00  0.00    -0.090 HD
ATOM     28  H   UNL     1      -8.764  -2.781   5.488  0.00  0.00    -0.090 HD
ATOM     29  H   UNL     1      -7.227  -3.050   6.017  0.00  0.00    -0.090 HD
ENDBRANCH  25  26
ENDBRANCH  24  25
ENDBRANCH  23  24
ENDBRANCH  22  23
ENDBRANCH  21  22
ENDBRANCH  18  21
ENDBRANCH  16  17
ENDBRANCH   1  16
BRANCH   4  30
ATOM     30  S   UNL     1       3.638  -2.022  -3.313  0.00  0.00    -0.081 S 
BRANCH  30  31
ATOM     31  C   UNL     1       3.264  -2.148  -5.083  0.00  0.00    +0.112 C 
BRANCH  31  32
ATOM     32  C   UNL     1       4.444  -2.746  -5.805  0.00  0.00    -0.037 A 
ATOM     33  C   UNL     1       5.438  -1.925  -6.304  0.00  0.00    +0.004 A 
ATOM     34  C   UNL     1       6.520  -2.474  -6.966  0.00  0.00    +0.000 A 
ATOM     35  C   UNL     1       6.609  -3.844  -7.128  0.00  0.00    +0.000 A 
ATOM     36  C   UNL     1       5.615  -4.665  -6.628  0.00  0.00    +0.000 A 
ATOM     37  C   UNL     1       4.535  -4.117  -5.962  0.00  0.00    +0.004 A 
ENDBRANCH  31  32
ENDBRANCH  30  31
ENDBRANCH   4  30
TORSDOF 13
