REMARK  Name = ZINC24980351
REMARK  8 active torsions:
REMARK  status: ('A' for Active; 'I' for Inactive)
REMARK    1  A    between atoms: C_7  and  N_11
REMARK    2  A    between atoms: C_8  and  C_9
REMARK    3  A    between atoms: C_12  and  C_14
REMARK    4  A    between atoms: C_14  and  S_15
REMARK    5  A    between atoms: S_15  and  C_16
REMARK    6  A    between atoms: C_19  and  S_21
REMARK    7  A    between atoms: S_21  and  C_22
REMARK    8  A    between atoms: C_22  and  C_23
REMARK                            x       y       z     vdW  Elec       q    Type
REMARK                         _______ _______ _______ _____ _____    ______ ____
ROOT
ATOM      1  N   UNL     1       0.002  -0.004   0.002  0.00  0.00    -0.278 N 
ATOM      2  C   UNL     1      -0.016   1.344   0.009  0.00  0.00    +0.228 C 
ATOM      3  O   UNL     1       1.026   1.964   0.003  0.00  0.00    -0.275 OA
ATOM      4  H   UNL     1      -0.943  -0.567   0.008  0.00  0.00    +0.155 HD
ENDROOT
BRANCH   1  11
ATOM      5  C   UNL     1       5.647  -4.083  -0.514  0.00  0.00    +0.001 C 
ATOM      6  C   UNL     1       4.561  -4.194   0.554  0.00  0.00    +0.005 C 
ATOM      7  C   UNL     1       3.183  -3.990  -0.066  0.00  0.00    +0.037 C 
ATOM      8  C   UNL     1       2.815  -2.512  -0.041  0.00  0.00    -0.018 A 
ATOM      9  C   UNL     1       3.745  -1.532  -0.040  0.00  0.00    -0.004 A 
ATOM     10  S   UNL     1       2.815  -0.023  -0.024  0.00  0.00    -0.077 S 
ATOM     11  C   UNL     1       1.213  -0.682  -0.013  0.00  0.00    +0.090 A 
ATOM     12  C   UNL     1       1.435  -2.049  -0.017  0.00  0.00    +0.084 A 
ATOM     13  C   UNL     1       5.234  -1.683  -0.037  0.00  0.00    +0.043 C 
ATOM     14  C   UNL     1       5.644  -2.685  -1.124  0.00  0.00    +0.005 C 
BRANCH  12  15
ATOM     15  C   UNL     1       0.344  -2.976  -0.001  0.00  0.00    +0.102 C 
ATOM     16  N   UNL     1      -0.522  -3.711   0.011  0.00  0.00    -0.191 NA
ENDBRANCH  12  15
ENDBRANCH   1  11
BRANCH   2  17
ATOM     17  C   UNL     1      -1.331   2.079   0.020  0.00  0.00    +0.172 C 
BRANCH  17  18
ATOM     18  S   UNL     1      -1.024   3.867   0.028  0.00  0.00    -0.088 S 
BRANCH  18  19
ATOM     19  C   UNL     1      -2.637   4.577   0.039  0.00  0.00    +0.160 A 
ATOM     20  N   UNL     1      -3.813   3.979   0.042  0.00  0.00    -0.134 NA
ATOM     21  N   UNL     1      -4.964   4.733   0.052  0.00  0.00    -0.134 NA
ATOM     22  C   UNL     1      -4.885   6.050   0.059  0.00  0.00    +0.160 A 
ATOM     23  S   UNL     1      -3.116   6.297   0.058  0.00  0.00    -0.033 S 
BRANCH  22  24
ATOM     24  S   UNL     1      -6.180   7.245   0.072  0.00  0.00    -0.088 S 
BRANCH  24  25
ATOM     25  C   UNL     1      -7.696   6.250   0.074  0.00  0.00    +0.171 C 
BRANCH  25  26
ATOM     26  C   UNL     1      -8.896   7.162   0.086  0.00  0.00    +0.221 C 
ATOM     27  O   UNL     1      -8.743   8.365   0.092  0.00  0.00    -0.275 OA
ATOM     28  N   UNL     1     -10.139   6.641   0.089  0.00  0.00    -0.329 N 
ATOM     29  H   UNL     1     -11.014   7.307   0.098  0.00  0.00    +0.145 HD
ATOM     30  H   UNL     1     -10.278   5.550   0.084  0.00  0.00    +0.145 HD
ENDBRANCH  25  26
ENDBRANCH  24  25
ENDBRANCH  22  24
ENDBRANCH  18  19
ENDBRANCH  17  18
ENDBRANCH   2  17
TORSDOF 8
