REMARK  Name = ZINC05006736
REMARK  5 active torsions:
REMARK  status: ('A' for Active; 'I' for Inactive)
REMARK    1  A    between atoms: C_1  and  C_2
REMARK    2  A    between atoms: C_5  and  C_8
REMARK    3  A    between atoms: C_8  and  C_9
REMARK    4  A    between atoms: C_19  and  C_20
REMARK    5  A    between atoms: C_23  and  C_26
REMARK                            x       y       z     vdW  Elec       q    Type
REMARK                         _______ _______ _______ _____ _____    ______ ____
ROOT
ATOM      1  C   UNL     1      -0.999  -1.924   1.551  0.00  0.00    +0.132 A 
ATOM      2  C   UNL     1       0.293  -2.593   1.362  0.00  0.00    +0.296 A 
ATOM      3  O   UNL     1       0.410  -3.794   1.547  0.00  0.00    -0.264 OA
ATOM      4  N   UNL     1       1.341  -1.851   0.980  0.00  0.00    -0.181 NA
ATOM      5  C   UNL     1       1.210  -0.562   0.781  0.00  0.00    +0.201 A 
ATOM      6  N   UNL     1       0.030   0.115   0.942  0.00  0.00    -0.170 N 
ATOM      7  N   UNL     1      -1.099  -0.648   1.348  0.00  0.00    -0.161 NA
ATOM      8  C   UNL     1       0.017   1.438   0.710  0.00  0.00    +0.287 A 
ATOM      9  O   UNL     1      -1.006   2.085   0.834  0.00  0.00    -0.265 OA
ATOM     10  C   UNL     1       1.272   2.080   0.297  0.00  0.00    +0.082 A 
ATOM     11  C   UNL     1       1.520   3.383   0.005  0.00  0.00    +0.028 C 
ATOM     12  S   UNL     1       2.382   0.681   0.280  0.00  0.00    -0.044 S 
ENDROOT
BRANCH  11  13
ATOM     13  C   UNL     1       0.408   4.339  -0.090  0.00  0.00    -0.024 A 
ATOM     14  C   UNL     1      -0.795   3.961  -0.697  0.00  0.00    +0.008 A 
ATOM     15  C   UNL     1      -1.835   4.862  -0.778  0.00  0.00    +0.004 A 
ATOM     16  C   UNL     1      -1.688   6.142  -0.272  0.00  0.00    -0.050 A 
ATOM     17  C   UNL     1      -0.499   6.527   0.325  0.00  0.00    +0.004 A 
ATOM     18  C   UNL     1       0.549   5.636   0.419  0.00  0.00    +0.008 A 
ATOM     19  C   UNL     1      -2.828   7.123  -0.370  0.00  0.00    +0.044 C 
ENDBRANCH  11  13
BRANCH   1  20
ATOM     20  C   UNL     1      -2.206  -2.718   1.981  0.00  0.00    +0.098 C 
BRANCH  20  25
ATOM     21  C   UNL     1      -3.604  -6.493  -2.165  0.00  0.00    +0.044 C 
ATOM     22  C   UNL     1      -3.240  -5.508  -1.083  0.00  0.00    -0.050 A 
ATOM     23  C   UNL     1      -2.356  -5.874  -0.086  0.00  0.00    +0.003 A 
ATOM     24  C   UNL     1      -2.022  -4.971   0.906  0.00  0.00    +0.004 A 
ATOM     25  C   UNL     1      -2.571  -3.702   0.900  0.00  0.00    -0.041 A 
ATOM     26  C   UNL     1      -3.459  -3.338  -0.095  0.00  0.00    +0.004 A 
ATOM     27  C   UNL     1      -3.790  -4.240  -1.089  0.00  0.00    +0.003 A 
ENDBRANCH  20  25
ENDBRANCH   1  20
TORSDOF 3
