REMARK  Name = ZINC00143445
REMARK  3 active torsions:
REMARK  status: ('A' for Active; 'I' for Inactive)
REMARK    1  A    between atoms: C_4  and  N_7
REMARK    2  A    between atoms: N_10  and  C_11
REMARK    3  A    between atoms: C_12  and  C_20
REMARK                            x       y       z     vdW  Elec       q    Type
REMARK                         _______ _______ _______ _____ _____    ______ ____
ROOT
ATOM      1  C   UNL     1      -0.021   1.729   0.016  0.00  0.00    +0.086 A 
ATOM      2  C   UNL     1       1.326   2.063   0.011  0.00  0.00    +0.068 A 
ATOM      3  C   UNL     1       2.288   0.975  -0.007  0.00  0.00    -0.023 A 
ATOM      4  C   UNL     1       1.753  -0.266  -0.019  0.00  0.00    -0.004 A 
ATOM      5  S   UNL     1       0.002  -0.004  -0.005  0.00  0.00    -0.077 S 
ATOM      6  C   UNL     1       2.493  -1.568  -0.040  0.00  0.00    +0.043 C 
ATOM      7  C   UNL     1       3.953  -1.289  -0.424  0.00  0.00    +0.005 C 
ATOM      8  C   UNL     1       4.472  -0.124   0.424  0.00  0.00    +0.005 C 
ATOM      9  C   UNL     1       3.798   1.178  -0.013  0.00  0.00    +0.037 C 
ENDROOT
BRANCH   1  13
ATOM     10  N   UNL     1      -3.433   2.885   0.035  0.00  0.00    -0.269 N 
ATOM     11  C   UNL     1      -2.366   2.062   0.024  0.00  0.00    +0.308 C 
ATOM     12  O   UNL     1      -2.527   0.857   0.010  0.00  0.00    -0.252 OA
ATOM     13  N   UNL     1      -1.119   2.575   0.028  0.00  0.00    -0.263 N 
ATOM     14  H   UNL     1      -3.288   3.972   0.125  0.00  0.00    +0.156 HD
ATOM     15  H   UNL     1      -0.973   3.665   0.040  0.00  0.00    +0.157 HD
BRANCH  10  19
ATOM     16  C   UNL     1      -7.279   1.313  -0.267  0.00  0.00    +0.000 A 
ATOM     17  C   UNL     1      -6.301   0.616   0.419  0.00  0.00    +0.002 A 
ATOM     18  C   UNL     1      -5.025   1.135   0.521  0.00  0.00    +0.023 A 
ATOM     19  C   UNL     1      -4.725   2.357  -0.066  0.00  0.00    +0.035 A 
ATOM     20  C   UNL     1      -5.711   3.057  -0.749  0.00  0.00    +0.023 A 
ATOM     21  C   UNL     1      -6.984   2.530  -0.852  0.00  0.00    +0.002 A 
ENDBRANCH  10  19
ENDBRANCH   1  13
BRANCH   2  22
ATOM     22  C   UNL     1       1.761   3.463   0.026  0.00  0.00    +0.244 C 
ATOM     23  O   UNL     1       1.949   4.031   1.086  0.00  0.00    -0.270 OA
ATOM     24  N   UNL     1       1.954   4.121  -1.135  0.00  0.00    -0.325 N 
ATOM     25  H   UNL     1       2.281   5.171  -1.124  0.00  0.00    +0.145 HD
ATOM     26  H   UNL     1       1.784   3.607  -2.092  0.00  0.00    +0.145 HD
ENDBRANCH   2  22
TORSDOF 3
