REMARK  Name = ZINC10818766
REMARK  14 active torsions:
REMARK  status: ('A' for Active; 'I' for Inactive)
REMARK    1  A    between atoms: C_1  and  C_2
REMARK    2  A    between atoms: C_2  and  N_64
REMARK    3  A    between atoms: C_3  and  C_4
REMARK    4  A    between atoms: C_3  and  N_64
REMARK    5  A    between atoms: C_5  and  C_6
REMARK    6  A    between atoms: C_5  and  N_64
REMARK    7  A    between atoms: C_6  and  N_7
REMARK    8  A    between atoms: C_13  and  S_17
REMARK    9  A    between atoms: S_17  and  C_20
REMARK   10  A    between atoms: C_21  and  C_23
REMARK   11  A    between atoms: C_26  and  S_29
REMARK   12  A    between atoms: S_29  and  C_30
REMARK   13  A    between atoms: C_30  and  C_31
REMARK   14  A    between atoms: C_30  and  C_32
REMARK                            x       y       z     vdW  Elec       q    Type
REMARK                         _______ _______ _______ _____ _____    ______ ____
ROOT
ATOM      1  N   UNL     1       0.282   0.809  -0.133  0.00  0.00    -0.248 N 
ATOM      2  C   UNL     1      -0.718   0.038   0.433  0.00  0.00    +0.168 A 
ATOM      3  N   UNL     1      -0.966  -1.241   0.266  0.00  0.00    -0.224 NA
ATOM      4  C   UNL     1      -1.986  -1.870   0.889  0.00  0.00    +0.080 A 
ATOM      5  C   UNL     1      -2.359  -3.231   0.797  0.00  0.00    +0.031 A 
ATOM      6  C   UNL     1      -3.431  -3.712   1.502  0.00  0.00    +0.029 A 
ATOM      7  C   UNL     1      -4.186  -2.889   2.326  0.00  0.00    +0.089 A 
ATOM      8  C   UNL     1      -3.849  -1.553   2.439  0.00  0.00    +0.044 A 
ATOM      9  C   UNL     1      -2.777  -1.062   1.737  0.00  0.00    +0.043 A 
ATOM     10  S   UNL     1      -1.996   0.527   1.582  0.00  0.00    -0.052 S 
ATOM     11  C   UNL     1       0.373   2.120   0.167  0.00  0.00    +0.252 C 
ATOM     12  O   UNL     1      -0.453   2.636   0.895  0.00  0.00    -0.270 OA
ENDROOT
BRANCH  11  13
ATOM     13  C   UNL     1       1.470   2.930  -0.394  0.00  0.00    +0.037 A 
ATOM     14  C   UNL     1       2.694   2.331  -0.708  0.00  0.00    +0.014 A 
ATOM     15  C   UNL     1       3.707   3.083  -1.232  0.00  0.00    +0.015 A 
ATOM     16  C   UNL     1       3.525   4.447  -1.444  0.00  0.00    +0.008 A 
ATOM     17  C   UNL     1       2.308   5.048  -1.128  0.00  0.00    +0.015 A 
ATOM     18  C   UNL     1       1.290   4.301  -0.608  0.00  0.00    +0.014 A 
BRANCH  16  19
ATOM     19  S   UNL     1       4.835   5.415  -2.115  0.00  0.00    -0.122 S 
BRANCH  19  20
ATOM     20  C   UNL     1       4.498   5.436  -3.897  0.00  0.00    +0.045 C 
ATOM     21  C   UNL     1       3.239   6.261  -4.169  0.00  0.00    +0.019 C 
ATOM     22  C   UNL     1       5.685   6.060  -4.634  0.00  0.00    +0.019 C 
ENDBRANCH  19  20
ENDBRANCH  16  19
ENDBRANCH  11  13
BRANCH   7  23
ATOM     23  S   UNL     1      -5.558  -3.541   3.219  0.00  0.00    -0.006 S 
ATOM     24  O   UNL     1      -5.262  -4.921   3.381  0.00  0.00    -0.170 OA
ATOM     25  O   UNL     1      -5.692  -2.690   4.349  0.00  0.00    -0.170 OA
ATOM     26  C   UNL     1      -6.978  -3.332   2.109  0.00  0.00    +0.200 C 
ENDBRANCH   7  23
BRANCH   1  27
ATOM     27  C   UNL     1       1.242   0.201  -1.057  0.00  0.00    +0.097 C 
BRANCH  27  28
ATOM     28  C   UNL     1       2.211  -0.687  -0.275  0.00  0.00    -0.059 C 
BRANCH  28  29
ATOM     29  N   UNL     1       3.219  -1.234  -1.208  0.00  0.00    +0.380 N 
ATOM     30  H   UNL     1       3.673  -0.457  -1.702  0.00  0.00    -0.082 HD
BRANCH  29  32
ATOM     31  C   UNL     1       5.385  -2.352  -1.411  0.00  0.00    -0.017 C 
ATOM     32  C   UNL     1       4.244  -1.990  -0.458  0.00  0.00    -0.082 C 
ENDBRANCH  29  32
BRANCH  29  33
ATOM     33  C   UNL     1       2.564  -2.115  -2.198  0.00  0.00    -0.082 C 
ATOM     34  C   UNL     1       1.743  -3.197  -1.494  0.00  0.00    -0.017 C 
ENDBRANCH  29  33
ENDBRANCH  28  29
ENDBRANCH  27  28
ENDBRANCH   1  27
TORSDOF 9
