REMARK  Name = ZINC20505949
REMARK  7 active torsions:
REMARK  status: ('A' for Active; 'I' for Inactive)
REMARK    1  A    between atoms: C_1  and  S_2
REMARK    2  A    between atoms: S_2  and  C_5
REMARK    3  A    between atoms: C_5  and  C_6
REMARK    4  A    between atoms: C_6  and  C_7
REMARK    5  A    between atoms: C_7  and  C_9
REMARK    6  A    between atoms: C_7  and  N_21
REMARK    7  A    between atoms: N_11  and  C_12
REMARK                            x       y       z     vdW  Elec       q    Type
REMARK                         _______ _______ _______ _____ _____    ______ ____
ROOT
ATOM      1  C   UNL     1      -1.221  -2.007  -0.396  0.00  0.00    +0.203 C 
ATOM      2  O   UNL     1      -0.184  -2.569  -0.682  0.00  0.00    -0.277 OA
ATOM      3  N   UNL     1      -1.200  -0.722   0.010  0.00  0.00    -0.285 N 
ATOM      4  H   UNL     1      -2.128  -0.238   0.349  0.00  0.00    +0.155 HD
ENDROOT
BRANCH   3   5
ATOM      5  C   UNL     1       0.002  -0.004   0.001  0.00  0.00    +0.070 A 
ATOM      6  C   UNL     1       0.384   0.700  -1.135  0.00  0.00    +0.065 A 
ATOM      7  C   UNL     1       1.571   1.408  -1.140  0.00  0.00    +0.037 A 
ATOM      8  C   UNL     1       2.378   1.417  -0.017  0.00  0.00    +0.021 A 
ATOM      9  C   UNL     1       2.001   0.718   1.116  0.00  0.00    +0.037 A 
ATOM     10  C   UNL     1       0.815   0.007   1.128  0.00  0.00    +0.065 A 
ATOM     11 CL   UNL     1       0.342  -0.870   2.549  0.00  0.00    -0.082 Cl
ATOM     12 BR   UNL     1       4.000   2.388  -0.029  0.00  0.00    -0.050 Br
ATOM     13 CL   UNL     1      -0.625   0.683  -2.547  0.00  0.00    -0.082 Cl
ENDBRANCH   3   5
BRANCH   1  14
ATOM     14  C   UNL     1      -2.530  -2.746  -0.494  0.00  0.00    +0.015 C 
BRANCH  14  15
ATOM     15  N   UNL     1      -2.279  -4.193  -0.481  0.00  0.00    +0.386 N 
ATOM     16  H   UNL     1      -1.772  -4.468   0.456  0.00  0.00    -0.089 HD
ATOM     17  H   UNL     1      -1.641  -4.463  -1.335  0.00  0.00    -0.089 HD
ATOM     18  H   UNL     1      -3.235  -4.732  -0.553  0.00  0.00    -0.089 HD
ENDBRANCH  14  15
BRANCH  14  19
ATOM     19  C   UNL     1      -3.235  -2.363  -1.798  0.00  0.00    +0.015 C 
BRANCH  19  20
ATOM     20  C   UNL     1      -4.618  -3.015  -1.840  0.00  0.00    +0.164 C 
BRANCH  20  22
ATOM     21  C   UNL     1      -7.047  -3.417  -3.246  0.00  0.00    +0.194 C 
ATOM     22  S   UNL     1      -5.454  -2.561  -3.385  0.00  0.00    -0.034 S 
ATOM     23  O   UNL     1      -5.693  -1.160  -3.372  0.00  0.00    -0.175 OA
ATOM     24  O   UNL     1      -4.732  -3.129  -4.470  0.00  0.00    -0.175 OA
ENDBRANCH  20  22
ENDBRANCH  19  20
ENDBRANCH  14  19
ENDBRANCH   1  14
TORSDOF 6
