REMARK  Name = ZINC34774628
REMARK  8 active torsions:
REMARK  status: ('A' for Active; 'I' for Inactive)
REMARK    1  A    between atoms: C_1  and  C_2
REMARK    2  A    between atoms: C_2  and  N_3
REMARK    3  A    between atoms: C_11  and  C_28
REMARK    4  A    between atoms: C_16  and  S_18
REMARK    5  A    between atoms: S_18  and  C_19
REMARK    6  A    between atoms: C_19  and  C_20
REMARK    7  A    between atoms: C_22  and  C_27
REMARK    8  A    between atoms: C_25  and  C_26
REMARK                            x       y       z     vdW  Elec       q    Type
REMARK                         _______ _______ _______ _____ _____    ______ ____
ROOT
ATOM      1  N   UNL     1       2.659   0.346   2.421  0.00  0.00    +0.382 N 
ATOM      2  C   UNL     1       3.631  -0.449   3.183  0.00  0.00    -0.060 C 
ATOM      3  C   UNL     1       3.174  -1.911   3.223  0.00  0.00    +0.088 C 
ATOM      4  N   UNL     1       1.803  -1.956   3.754  0.00  0.00    -0.318 N 
ATOM      5  C   UNL     1       0.797  -1.067   3.153  0.00  0.00    +0.088 C 
ATOM      6  C   UNL     1       1.366   0.355   3.116  0.00  0.00    -0.060 C 
ATOM      7  C   UNL     1       1.469  -2.811   4.789  0.00  0.00    +0.134 A 
ATOM      8  C   UNL     1       1.337  -4.206   4.553  0.00  0.00    +0.055 A 
ATOM      9  C   UNL     1       1.504  -4.959   3.314  0.00  0.00    +0.002 A 
ATOM     10  C   UNL     1       1.325  -6.300   3.337  0.00  0.00    +0.056 A 
ATOM     11  S   UNL     1       0.916  -6.636   5.040  0.00  0.00    -0.076 S 
ATOM     12  C   UNL     1       0.995  -4.983   5.678  0.00  0.00    +0.115 A 
ATOM     13  N   UNL     1       0.812  -4.436   6.865  0.00  0.00    -0.214 NA
ATOM     14  C   UNL     1       0.949  -3.127   7.026  0.00  0.00    +0.191 A 
ATOM     15  N   UNL     1       1.275  -2.338   6.009  0.00  0.00    -0.206 NA
ATOM     16  H   UNL     1       2.544  -0.058   1.503  0.00  0.00    -0.082 HD
ENDROOT
BRANCH   9  17
ATOM     17  C   UNL     1       1.864  -4.268   2.053  0.00  0.00    -0.017 A 
ATOM     18  C   UNL     1       1.027  -3.283   1.532  0.00  0.00    +0.008 A 
ATOM     19  C   UNL     1       1.367  -2.642   0.358  0.00  0.00    +0.001 A 
ATOM     20  C   UNL     1       2.537  -2.976  -0.301  0.00  0.00    +0.000 A 
ATOM     21  C   UNL     1       3.372  -3.953   0.211  0.00  0.00    +0.001 A 
ATOM     22  C   UNL     1       3.045  -4.596   1.387  0.00  0.00    +0.008 A 
ENDBRANCH   9  17
BRANCH   1  24
ATOM     23  C   UNL     1       4.436   1.728   1.457  0.00  0.00    -0.017 C 
ATOM     24  C   UNL     1       3.152   1.723   2.289  0.00  0.00    -0.082 C 
ENDBRANCH   1  24
BRANCH  14  25
ATOM     25  S   UNL     1       0.699  -2.421   8.621  0.00  0.00    -0.081 S 
BRANCH  25  26
ATOM     26  C   UNL     1       0.288  -3.843   9.670  0.00  0.00    +0.112 C 
BRANCH  26  27
ATOM     27  C   UNL     1       0.046  -3.373  11.082  0.00  0.00    -0.034 A 
ATOM     28  C   UNL     1       1.098  -3.303  11.977  0.00  0.00    +0.008 A 
ATOM     29  C   UNL     1       0.876  -2.872  13.271  0.00  0.00    -0.050 A 
ATOM     30  C   UNL     1      -0.396  -2.510  13.671  0.00  0.00    +0.003 A 
ATOM     31  C   UNL     1      -1.448  -2.578  12.776  0.00  0.00    +0.004 A 
ATOM     32  C   UNL     1      -1.225  -3.005  11.480  0.00  0.00    -0.046 A 
ATOM     33  C   UNL     1      -2.370  -3.075  10.503  0.00  0.00    +0.044 C 
ATOM     34  C   UNL     1       2.022  -2.798  14.247  0.00  0.00    +0.044 C 
ENDBRANCH  26  27
ENDBRANCH  25  26
ENDBRANCH  14  25
TORSDOF 5
