REMARK  Name = ZINC13129817
REMARK  8 active torsions:
REMARK  status: ('A' for Active; 'I' for Inactive)
REMARK    1  A    between atoms: C_4  and  C_7
REMARK    2  A    between atoms: C_7  and  C_9
REMARK    3  A    between atoms: C_7  and  N_20
REMARK    4  A    between atoms: C_9  and  N_10
REMARK    5  A    between atoms: N_10  and  S_11
REMARK    6  A    between atoms: S_11  and  C_14
REMARK    7  A    between atoms: N_20  and  C_21
REMARK    8  A    between atoms: C_21  and  C_22
REMARK                            x       y       z     vdW  Elec       q    Type
REMARK                         _______ _______ _______ _____ _____    ______ ____
ROOT
ATOM      1  C   UNL     1       3.711  -0.707  -0.038  0.00  0.00    +0.100 C 
ENDROOT
BRANCH   1   5
ATOM      2  C   UNL     1      -0.017   1.378   0.010  0.00  0.00    +0.000 A 
ATOM      3  C   UNL     1       1.171   2.086   0.002  0.00  0.00    +0.000 A 
ATOM      4  C   UNL     1       2.377   1.411  -0.013  0.00  0.00    +0.005 A 
ATOM      5  C   UNL     1       2.396   0.029  -0.020  0.00  0.00    -0.029 A 
ATOM      6  C   UNL     1       1.208  -0.679  -0.012  0.00  0.00    +0.005 A 
ATOM      7  C   UNL     1       0.002  -0.004   0.002  0.00  0.00    +0.000 A 
ENDBRANCH   1   5
BRANCH   1   8
ATOM      8  N   UNL     1       3.611  -1.868  -0.933  0.00  0.00    -0.304 NA
ATOM      9  H   UNL     1       4.230  -2.607  -0.636  0.00  0.00    +0.123 HD
BRANCH   8  10
ATOM     10  C   UNL     1       3.880  -1.483  -2.325  0.00  0.00    +0.118 C 
BRANCH  10  11
ATOM     11  C   UNL     1       3.768  -2.697  -3.211  0.00  0.00    -0.015 A 
ATOM     12  C   UNL     1       4.910  -3.362  -3.619  0.00  0.00    +0.008 A 
ATOM     13  C   UNL     1       4.808  -4.475  -4.432  0.00  0.00    +0.020 A 
ATOM     14  C   UNL     1       3.564  -4.925  -4.838  0.00  0.00    +0.042 A 
ATOM     15  C   UNL     1       2.422  -4.260  -4.430  0.00  0.00    +0.040 A 
ATOM     16  C   UNL     1       2.524  -3.149  -3.612  0.00  0.00    +0.047 A 
ATOM     17 CL   UNL     1       1.090  -2.317  -3.095  0.00  0.00    -0.083 Cl
ATOM     18 CL   UNL     1       3.437  -6.322  -5.860  0.00  0.00    -0.083 Cl
ENDBRANCH  10  11
ENDBRANCH   8  10
ENDBRANCH   1   8
BRANCH   1  19
ATOM     19  C   UNL     1       4.049  -1.182   1.377  0.00  0.00    +0.129 C 
BRANCH  19  20
ATOM     20  N   UNL     1       5.265  -1.998   1.341  0.00  0.00    -0.188 NA
ATOM     21  H   UNL     1       5.595  -2.340   0.495  0.00  0.00    +0.148 HD
BRANCH  20  22
ATOM     22  S   UNL     1       6.076  -2.338   2.744  0.00  0.00    +0.065 S 
ATOM     23  O   UNL     1       7.179  -3.159   2.387  0.00  0.00    -0.153 OA
ATOM     24  O   UNL     1       6.234  -1.104   3.431  0.00  0.00    -0.153 OA
BRANCH  22  25
ATOM     25  C   UNL     1       5.009  -3.332   3.735  0.00  0.00    +0.144 A 
ATOM     26  C   UNL     1       4.896  -4.682   3.777  0.00  0.00    +0.038 A 
ATOM     27  C   UNL     1       3.981  -5.252   4.642  0.00  0.00    +0.030 A 
ATOM     28  C   UNL     1       3.222  -4.442   5.422  0.00  0.00    +0.080 A 
ATOM     29  S   UNL     1       3.803  -2.822   4.948  0.00  0.00    -0.057 S 
ATOM     30 CL   UNL     1       2.007  -4.870   6.586  0.00  0.00    -0.076 Cl
ENDBRANCH  22  25
ENDBRANCH  20  22
ENDBRANCH  19  20
ENDBRANCH   1  19
TORSDOF 8
