REMARK  Name = ZINC09379450
REMARK  9 active torsions:
REMARK  status: ('A' for Active; 'I' for Inactive)
REMARK    1  A    between atoms: C_4  and  N_7
REMARK    2  A    between atoms: N_8  and  C_9
REMARK    3  A    between atoms: C_12  and  N_15
REMARK    4  A    between atoms: C_16  and  C_18
REMARK    5  A    between atoms: C_18  and  S_19
REMARK    6  A    between atoms: S_19  and  C_20
REMARK    7  A    between atoms: C_23  and  C_31
REMARK    8  A    between atoms: N_24  and  C_25
REMARK    9  A    between atoms: C_31  and  N_63
REMARK                            x       y       z     vdW  Elec       q    Type
REMARK                         _______ _______ _______ _____ _____    ______ ____
ROOT
ATOM      1  C   UNL     1      -3.005   2.830   5.299  0.00  0.00    +0.173 C 
ENDROOT
BRANCH   1   3
ATOM      2  N   UNL     1      -4.140   3.885   7.227  0.00  0.00    -0.285 N 
ATOM      3  C   UNL     1      -3.981   2.798   6.447  0.00  0.00    +0.227 C 
ATOM      4  O   UNL     1      -4.624   1.793   6.668  0.00  0.00    -0.275 OA
ATOM      5  H   UNL     1      -3.573   4.662   7.098  0.00  0.00    +0.155 HD
BRANCH   2   9
ATOM      6  C   UNL     1      -7.069   3.912  10.192  0.00  0.00    +0.086 A 
ATOM      7  C   UNL     1      -5.865   4.597  10.389  0.00  0.00    +0.031 A 
ATOM      8  C   UNL     1      -4.900   4.586   9.407  0.00  0.00    +0.025 A 
ATOM      9  C   UNL     1      -5.121   3.894   8.220  0.00  0.00    +0.034 A 
ATOM     10  C   UNL     1      -6.319   3.217   8.018  0.00  0.00    +0.025 A 
ATOM     11  C   UNL     1      -7.287   3.219   8.997  0.00  0.00    +0.031 A 
BRANCH   6  13
ATOM     12  N   UNL     1      -9.137   3.289  10.980  0.00  0.00    -0.149 NA
ATOM     13  N   UNL     1      -8.028   3.921  11.163  0.00  0.00    -0.149 NA
BRANCH  12  17
ATOM     14  C   UNL     1     -12.043   3.313  13.924  0.00  0.00    +0.000 A 
ATOM     15  C   UNL     1     -12.265   2.626  12.743  0.00  0.00    +0.002 A 
ATOM     16  C   UNL     1     -11.301   2.614  11.757  0.00  0.00    +0.029 A 
ATOM     17  C   UNL     1     -10.098   3.297  11.953  0.00  0.00    +0.086 A 
ATOM     18  C   UNL     1      -9.878   3.984  13.150  0.00  0.00    +0.029 A 
ATOM     19  C   UNL     1     -10.853   3.991  14.125  0.00  0.00    +0.002 A 
ENDBRANCH  12  17
ENDBRANCH   6  13
ENDBRANCH   2   9
ENDBRANCH   1   3
BRANCH   1  20
ATOM     20  S   UNL     1      -3.020   1.232   4.449  0.00  0.00    -0.076 S 
BRANCH  20  21
ATOM     21  C   UNL     1      -1.826   1.543   3.192  0.00  0.00    +0.197 A 
ATOM     22  N   UNL     1      -1.161   2.660   3.005  0.00  0.00    -0.122 NA
ATOM     23  N   UNL     1      -0.369   2.535   2.000  0.00  0.00    -0.135 NA
ATOM     24  C   UNL     1      -0.485   1.345   1.483  0.00  0.00    +0.122 A 
ATOM     25  N   UNL     1      -1.415   0.667   2.225  0.00  0.00    -0.276 N 
BRANCH  25  26
ATOM     26  C   UNL     1      -1.854  -0.652   2.034  0.00  0.00    +0.050 A 
ATOM     27  C   UNL     1      -2.553  -0.992   0.884  0.00  0.00    +0.026 A 
ATOM     28  C   UNL     1      -2.978  -2.293   0.696  0.00  0.00    +0.002 A 
ATOM     29  C   UNL     1      -2.720  -3.252   1.658  0.00  0.00    +0.000 A 
ATOM     30  C   UNL     1      -2.029  -2.914   2.807  0.00  0.00    +0.002 A 
ATOM     31  C   UNL     1      -1.595  -1.617   2.998  0.00  0.00    +0.026 A 
ENDBRANCH  25  26
BRANCH  24  32
ATOM     32  C   UNL     1       0.270   0.811   0.292  0.00  0.00    -0.001 C 
BRANCH  32  37
ATOM     33  C   UNL     1      -0.840   2.534  -1.022  0.00  0.00    -0.078 C 
ATOM     34  C   UNL     1      -1.130   2.737  -2.531  0.00  0.00    -0.020 C 
ATOM     35  C   UNL     1      -0.075   1.833  -3.210  0.00  0.00    -0.020 C 
ATOM     36  C   UNL     1       0.323   0.803  -2.137  0.00  0.00    -0.078 C 
ATOM     37  N   UNL     1      -0.492   1.106  -0.959  0.00  0.00    +0.384 N 
ATOM     38  H   UNL     1      -1.347   0.539  -0.974  0.00  0.00    -0.081 HD
ENDBRANCH  32  37
ENDBRANCH  24  32
ENDBRANCH  20  21
ENDBRANCH   1  20
TORSDOF 9
