REMARK  Name = ZINC37028406
REMARK  11 active torsions:
REMARK  status: ('A' for Active; 'I' for Inactive)
REMARK    1  A    between atoms: C_1  and  C_2
REMARK    2  A    between atoms: C_2  and  N_3
REMARK    3  A    between atoms: N_3  and  S_4
REMARK    4  A    between atoms: S_4  and  C_7
REMARK    5  A    between atoms: C_12  and  N_13
REMARK    6  A    between atoms: C_14  and  C_16
REMARK    7  A    between atoms: C_16  and  C_18
REMARK    8  A    between atoms: C_16  and  N_22
REMARK    9  A    between atoms: C_18  and  C_19
REMARK   10  A    between atoms: C_19  and  C_20
REMARK   11  A    between atoms: C_19  and  C_21
REMARK                            x       y       z     vdW  Elec       q    Type
REMARK                         _______ _______ _______ _____ _____    ______ ____
ROOT
ATOM      1  C   UNL     1      -0.754  -2.573   1.905  0.00  0.00    +0.126 A 
ATOM      2  C   UNL     1      -1.453  -3.418   2.745  0.00  0.00    +0.030 A 
ATOM      3  C   UNL     1      -0.837  -4.542   3.265  0.00  0.00    +0.002 A 
ATOM      4  C   UNL     1       0.479  -4.823   2.946  0.00  0.00    +0.002 A 
ATOM      5  C   UNL     1       1.182  -3.982   2.107  0.00  0.00    +0.025 A 
ATOM      6  C   UNL     1       0.565  -2.855   1.579  0.00  0.00    +0.060 A 
ENDROOT
BRANCH   6   7
ATOM      7  N   UNL     1       1.274  -2.003   0.724  0.00  0.00    -0.285 N 
ATOM      8  C   UNL     1       2.595  -1.812   0.906  0.00  0.00    +0.203 C 
ATOM      9  O   UNL     1       3.190  -2.450   1.750  0.00  0.00    -0.277 OA
ATOM     10  H   UNL     1       0.814  -1.550   0.000  0.00  0.00    +0.155 HD
BRANCH   8  11
ATOM     11  C   UNL     1       3.335  -0.806   0.063  0.00  0.00    +0.013 C 
BRANCH  11  12
ATOM     12  N   UNL     1       4.773  -1.104   0.093  0.00  0.00    +0.386 N 
ATOM     13  H   UNL     1       5.092  -1.126   1.050  0.00  0.00    -0.089 HD
ATOM     14  H   UNL     1       4.939  -2.001  -0.338  0.00  0.00    -0.089 HD
ATOM     15  H   UNL     1       5.275  -0.390  -0.413  0.00  0.00    -0.089 HD
ENDBRANCH  11  12
BRANCH  11  16
ATOM     16  C   UNL     1       3.094   0.600   0.618  0.00  0.00    -0.004 C 
BRANCH  16  17
ATOM     17  C   UNL     1       3.766   1.630  -0.292  0.00  0.00    -0.018 C 
ATOM     18  C   UNL     1       3.087   1.619  -1.663  0.00  0.00    +0.007 C 
ATOM     19  C   UNL     1       3.637   3.021   0.330  0.00  0.00    +0.007 C 
ENDBRANCH  16  17
ENDBRANCH  11  16
ENDBRANCH   8  11
ENDBRANCH   6   7
BRANCH   1  20
ATOM     20  S   UNL     1      -1.540  -1.141   1.243  0.00  0.00    +0.060 S 
ATOM     21  O   UNL     1      -0.655  -0.052   1.467  0.00  0.00    -0.153 OA
ATOM     22  O   UNL     1      -2.876  -1.150   1.728  0.00  0.00    -0.153 OA
BRANCH  20  23
ATOM     23  N   UNL     1      -1.631  -1.347  -0.398  0.00  0.00    -0.190 NA
ATOM     24  H   UNL     1      -1.140  -0.756  -0.989  0.00  0.00    +0.148 HD
BRANCH  23  26
ATOM     25  C   UNL     1      -2.715  -2.148  -2.438  0.00  0.00    +0.022 C 
ATOM     26  C   UNL     1      -2.453  -2.424  -0.956  0.00  0.00    +0.102 C 
ENDBRANCH  23  26
ENDBRANCH  20  23
ENDBRANCH   1  20
TORSDOF 8
