REMARK  Name = ZINC45244769
REMARK  10 active torsions:
REMARK  status: ('A' for Active; 'I' for Inactive)
REMARK    1  A    between atoms: C_1  and  C_2
REMARK    2  A    between atoms: C_2  and  C_4
REMARK    3  A    between atoms: C_2  and  O_15
REMARK    4  A    between atoms: N_6  and  C_7
REMARK    5  A    between atoms: C_12  and  O_13
REMARK    6  A    between atoms: O_13  and  C_14
REMARK    7  A    between atoms: O_15  and  C_16
REMARK    8  A    between atoms: C_16  and  C_18
REMARK    9  A    between atoms: C_22  and  S_24
REMARK   10  A    between atoms: S_24  and  N_27
REMARK                            x       y       z     vdW  Elec       q    Type
REMARK                         _______ _______ _______ _____ _____    ______ ____
ROOT
ATOM      1  C   UNL     1       2.007  -0.684  -1.072  0.00  0.00    +0.340 C 
ATOM      2  O   UNL     1       2.583  -0.466  -0.025  0.00  0.00    -0.245 OA
ENDROOT
BRANCH   1   3
ATOM      3  C   UNL     1       2.764  -1.166  -2.244  0.00  0.00    +0.061 A 
ATOM      4  C   UNL     1       2.106  -1.413  -3.451  0.00  0.00    +0.018 A 
ATOM      5  C   UNL     1       2.818  -1.861  -4.542  0.00  0.00    +0.041 A 
ATOM      6  C   UNL     1       4.186  -2.068  -4.444  0.00  0.00    +0.150 A 
ATOM      7  C   UNL     1       4.845  -1.824  -3.248  0.00  0.00    +0.141 A 
ATOM      8  C   UNL     1       4.143  -1.370  -2.152  0.00  0.00    +0.046 A 
ATOM      9  F   UNL     1       4.880  -2.508  -5.516  0.00  0.00    -0.203 F 
BRANCH   7  10
ATOM     10  S   UNL     1       6.583  -2.090  -3.131  0.00  0.00    +0.064 S 
ATOM     11  O   UNL     1       7.169  -1.441  -4.252  0.00  0.00    -0.153 OA
ATOM     12  O   UNL     1       6.952  -1.782  -1.794  0.00  0.00    -0.153 OA
BRANCH  10  13
ATOM     13  N   UNL     1       6.845  -3.712  -3.334  0.00  0.00    -0.176 NA
ATOM     14  C   UNL     1       6.847  -4.620  -2.179  0.00  0.00    +0.109 C 
ATOM     15  C   UNL     1       5.858  -5.759  -2.445  0.00  0.00    +0.017 C 
ATOM     16  C   UNL     1       6.206  -6.432  -3.774  0.00  0.00    +0.003 C 
ATOM     17  C   UNL     1       6.087  -5.414  -4.910  0.00  0.00    +0.017 C 
ATOM     18  C   UNL     1       7.073  -4.272  -4.673  0.00  0.00    +0.109 C 
ENDBRANCH  10  13
ENDBRANCH   7  10
ENDBRANCH   1   3
BRANCH   1  19
ATOM     19  O   UNL     1       0.677  -0.488  -1.164  0.00  0.00    -0.449 OA
BRANCH  19  21
ATOM     20  C   UNL     1      -0.001   1.508   0.017  0.00  0.00    +0.062 C 
ATOM     21  C   UNL     1       0.008  -0.021   0.009  0.00  0.00    +0.259 C 
BRANCH  21  22
ATOM     22  C   UNL     1      -1.410  -0.532   0.015  0.00  0.00    +0.258 C 
ATOM     23  O   UNL     1      -1.836  -1.151  -0.937  0.00  0.00    -0.271 OA
ATOM     24  N   UNL     1      -2.204  -0.302   1.079  0.00  0.00    -0.280 N 
ATOM     25  H   UNL     1      -1.846   0.136   1.867  0.00  0.00    +0.155 HD
BRANCH  24  26
ATOM     26  C   UNL     1      -3.549  -0.694   1.048  0.00  0.00    +0.076 A 
ATOM     27  C   UNL     1      -3.920  -1.851   0.378  0.00  0.00    +0.027 A 
ATOM     28  C   UNL     1      -5.247  -2.237   0.348  0.00  0.00    +0.002 A 
ATOM     29  C   UNL     1      -6.207  -1.472   0.984  0.00  0.00    +0.004 A 
ATOM     30  C   UNL     1      -5.845  -0.317   1.654  0.00  0.00    +0.047 A 
ATOM     31  C   UNL     1      -4.516   0.073   1.693  0.00  0.00    +0.141 A 
BRANCH  31  32
ATOM     32  O   UNL     1      -4.158   1.205   2.356  0.00  0.00    -0.493 OA
ATOM     33  C   UNL     1      -5.202   1.941   2.994  0.00  0.00    +0.277 C 
ENDBRANCH  31  32
ENDBRANCH  24  26
ENDBRANCH  21  22
ENDBRANCH  19  21
ENDBRANCH   1  19
TORSDOF 8
