REMARK  Name = ZINC39593618
REMARK  11 active torsions:
REMARK  status: ('A' for Active; 'I' for Inactive)
REMARK    1  A    between atoms: C_1  and  C_2
REMARK    2  A    between atoms: C_5  and  C_36
REMARK    3  A    between atoms: N_8  and  S_10
REMARK    4  A    between atoms: S_10  and  C_13
REMARK    5  A    between atoms: C_17  and  C_19
REMARK    6  A    between atoms: C_19  and  O_21
REMARK    7  A    between atoms: O_21  and  C_22
REMARK    8  A    between atoms: C_22  and  C_23
REMARK    9  A    between atoms: N_25  and  C_26
REMARK   10  A    between atoms: C_31  and  O_32
REMARK   11  A    between atoms: O_32  and  C_33
REMARK                            x       y       z     vdW  Elec       q    Type
REMARK                         _______ _______ _______ _____ _____    ______ ____
ROOT
ATOM      1  C   UNL     1       4.807  -1.790  -2.826  0.00  0.00    +0.340 C 
ATOM      2  O   UNL     1       5.216  -0.800  -2.253  0.00  0.00    -0.245 OA
ENDROOT
BRANCH   1   7
ATOM      3  C   UNL     1       2.499  -3.238  -0.242  0.00  0.00    +0.106 A 
ATOM      4  C   UNL     1       2.034  -4.365  -0.898  0.00  0.00    +0.028 A 
ATOM      5  C   UNL     1       2.469  -4.656  -2.179  0.00  0.00    +0.003 A 
ATOM      6  C   UNL     1       3.369  -3.824  -2.811  0.00  0.00    +0.015 A 
ATOM      7  C   UNL     1       3.842  -2.686  -2.155  0.00  0.00    +0.061 A 
ATOM      8  C   UNL     1       3.395  -2.394  -0.865  0.00  0.00    +0.043 A 
BRANCH   3   9
ATOM      9  S   UNL     1       1.939  -2.877   1.389  0.00  0.00    +0.061 S 
ATOM     10  O   UNL     1       2.934  -2.058   1.988  0.00  0.00    -0.153 OA
ATOM     11  O   UNL     1       1.523  -4.111   1.958  0.00  0.00    -0.153 OA
BRANCH   9  17
ATOM     12  C   UNL     1      -0.067   1.557  -0.054  0.00  0.00    +0.009 C 
ATOM     13  C   UNL     1      -0.046   0.028  -0.055  0.00  0.00    +0.002 C 
ATOM     14  C   UNL     1      -1.482  -0.502  -0.051  0.00  0.00    +0.009 C 
ATOM     15  C   UNL     1      -1.463  -2.032  -0.086  0.00  0.00    +0.002 C 
ATOM     16  C   UNL     1      -0.750  -2.559   1.163  0.00  0.00    +0.112 C 
ATOM     17  N   UNL     1       0.581  -1.940   1.244  0.00  0.00    -0.176 NA
ATOM     18  C   UNL     1       0.684  -0.476   1.194  0.00  0.00    +0.112 C 
ATOM     19  C   UNL     1      -0.720  -2.505  -1.337  0.00  0.00    +0.009 C 
ENDBRANCH   9  17
ENDBRANCH   3   9
ENDBRANCH   1   7
BRANCH   1  20
ATOM     20  O   UNL     1       5.232  -2.071  -4.073  0.00  0.00    -0.452 OA
BRANCH  20  21
ATOM     21  C   UNL     1       6.165  -1.162  -4.661  0.00  0.00    +0.328 C 
BRANCH  21  22
ATOM     22  C   UNL     1       6.524  -1.635  -6.046  0.00  0.00    +0.255 C 
ATOM     23  O   UNL     1       6.029  -2.652  -6.486  0.00  0.00    -0.272 OA
ATOM     24  N   UNL     1       7.394  -0.930  -6.795  0.00  0.00    -0.280 N 
ATOM     25  H   UNL     1       7.740  -0.084  -6.469  0.00  0.00    +0.155 HD
BRANCH  24  26
ATOM     26  C   UNL     1       7.799  -1.418  -8.044  0.00  0.00    +0.076 A 
ATOM     27  C   UNL     1       6.909  -2.129  -8.835  0.00  0.00    +0.027 A 
ATOM     28  C   UNL     1       7.311  -2.609 -10.067  0.00  0.00    +0.002 A 
ATOM     29  C   UNL     1       8.600  -2.382 -10.514  0.00  0.00    +0.004 A 
ATOM     30  C   UNL     1       9.493  -1.675  -9.731  0.00  0.00    +0.048 A 
ATOM     31  C   UNL     1       9.096  -1.185  -8.498  0.00  0.00    +0.148 A 
BRANCH  31  32
ATOM     32  O   UNL     1       9.971  -0.484  -7.729  0.00  0.00    -0.432 OA
BRANCH  32  33
ATOM     33  C   UNL     1      11.284  -0.284  -8.258  0.00  0.00    +0.541 C 
ATOM     34  F   UNL     1      11.890  -1.525  -8.482  0.00  0.00    -0.166 F 
ATOM     35  F   UNL     1      11.198   0.417  -9.465  0.00  0.00    -0.166 F 
ENDBRANCH  32  33
ENDBRANCH  31  32
ENDBRANCH  24  26
ENDBRANCH  21  22
ENDBRANCH  20  21
ENDBRANCH   1  20
TORSDOF 9
