REMARK  Name = ZINC38596387
REMARK  10 active torsions:
REMARK  status: ('A' for Active; 'I' for Inactive)
REMARK    1  A    between atoms: C_1  and  C_2
REMARK    2  A    between atoms: C_9  and  S_12
REMARK    3  A    between atoms: S_12  and  N_15
REMARK    4  A    between atoms: N_15  and  C_16
REMARK    5  A    between atoms: C_16  and  C_18
REMARK    6  A    between atoms: C_16  and  C_19
REMARK    7  A    between atoms: C_19  and  C_21
REMARK    8  A    between atoms: C_19  and  N_26
REMARK    9  A    between atoms: N_29  and  C_32
REMARK   10  A    between atoms: C_32  and  C_33
REMARK                            x       y       z     vdW  Elec       q    Type
REMARK                         _______ _______ _______ _____ _____    ______ ____
ROOT
ATOM      1  C   UNL     1       2.438   1.292   3.698  0.00  0.00    +0.112 C 
ENDROOT
BRANCH   1   2
ATOM      2  N   UNL     1       2.588   2.399   2.743  0.00  0.00    -0.297 NA
ATOM      3  C   UNL     1       3.187   1.932   1.485  0.00  0.00    +0.066 C 
ATOM      4  C   UNL     1       3.271   3.099   0.499  0.00  0.00    -0.063 C 
ATOM      5  N   UNL     1       4.086   4.174   1.081  0.00  0.00    +0.384 N 
ATOM      6  C   UNL     1       3.463   4.646   2.324  0.00  0.00    -0.063 C 
ATOM      7  C   UNL     1       3.381   3.492   3.325  0.00  0.00    +0.066 C 
ATOM      8  H   UNL     1       5.011   3.823   1.281  0.00  0.00    -0.081 HD
BRANCH   5   9
ATOM      9  C   UNL     1       4.181   5.287   0.127  0.00  0.00    -0.043 C 
BRANCH   9  10
ATOM     10  C   UNL     1       5.117   6.336   0.670  0.00  0.00    -0.064 A 
ATOM     11  C   UNL     1       4.626   7.355   1.464  0.00  0.00    +0.002 A 
ATOM     12  C   UNL     1       5.484   8.317   1.963  0.00  0.00    +0.000 A 
ATOM     13  C   UNL     1       6.833   8.260   1.668  0.00  0.00    +0.000 A 
ATOM     14  C   UNL     1       7.325   7.240   0.875  0.00  0.00    +0.000 A 
ATOM     15  C   UNL     1       6.467   6.275   0.380  0.00  0.00    +0.002 A 
ENDBRANCH   9  10
ENDBRANCH   5   9
ENDBRANCH   1   2
BRANCH   1  16
ATOM     16  C   UNL     1       1.841   1.812   4.980  0.00  0.00    +0.008 A 
ATOM     17  C   UNL     1       2.154   1.490   6.259  0.00  0.00    +0.013 A 
ATOM     18  C   UNL     1       1.466   2.101   7.291  0.00  0.00    +0.008 A 
ATOM     19  C   UNL     1       0.500   3.004   6.994  0.00  0.00    +0.045 A 
ATOM     20  S   UNL     1       0.545   3.017   5.209  0.00  0.00    -0.100 S 
ENDBRANCH   1  16
BRANCH   1  21
ATOM     21  C   UNL     1       1.517   0.226   3.102  0.00  0.00    +0.095 C 
ATOM     22  C   UNL     1       1.364  -0.929   4.094  0.00  0.00    +0.027 C 
BRANCH  21  23
ATOM     23  N   UNL     1       0.203   0.813   2.829  0.00  0.00    -0.185 NA
ATOM     24  H   UNL     1      -0.157   1.492   3.421  0.00  0.00    +0.148 HD
BRANCH  23  25
ATOM     25  S   UNL     1      -0.669   0.318   1.511  0.00  0.00    +0.061 S 
ATOM     26  O   UNL     1       0.217   0.356   0.401  0.00  0.00    -0.153 OA
ATOM     27  O   UNL     1      -1.891   1.042   1.536  0.00  0.00    -0.153 OA
BRANCH  25  36
ATOM     28  C   UNL     1       3.600  -2.487   1.557  0.00  0.00    +0.065 C 
ATOM     29  C   UNL     1       2.166  -2.919   1.723  0.00  0.00    +0.039 A 
ATOM     30  C   UNL     1       1.883  -4.269   1.922  0.00  0.00    +0.023 A 
ATOM     31  C   UNL     1       0.589  -4.679   2.074  0.00  0.00    +0.012 A 
ATOM     32  C   UNL     1      -0.427  -3.705   2.023  0.00  0.00    +0.002 A 
ATOM     33  C   UNL     1      -1.779  -4.051   2.172  0.00  0.00    +0.010 A 
ATOM     34  C   UNL     1      -2.732  -3.080   2.117  0.00  0.00    +0.003 A 
ATOM     35  C   UNL     1      -2.383  -1.746   1.915  0.00  0.00    +0.031 A 
ATOM     36  C   UNL     1      -1.082  -1.376   1.767  0.00  0.00    +0.131 A 
ATOM     37  C   UNL     1      -0.069  -2.350   1.818  0.00  0.00    +0.098 A 
ATOM     38  N   UNL     1       1.218  -2.014   1.681  0.00  0.00    -0.250 NA
ENDBRANCH  25  36
ENDBRANCH  23  25
ENDBRANCH  21  23
ENDBRANCH   1  21
TORSDOF 8
