REMARK  Name = ZINC01889699
REMARK  6 active torsions:
REMARK  status: ('A' for Active; 'I' for Inactive)
REMARK    1  A    between atoms: C_7  and  C_11
REMARK    2  A    between atoms: C_11  and  C_12
REMARK    3  A    between atoms: C_12  and  C_14
REMARK    4  A    between atoms: C_12  and  N_45
REMARK    5  A    between atoms: N_16  and  N_17
REMARK    6  A    between atoms: C_18  and  C_19
REMARK                            x       y       z     vdW  Elec       q    Type
REMARK                         _______ _______ _______ _____ _____    ______ ____
ROOT
ATOM      1  C   UNL     1       4.175   0.621   1.403  0.00  0.00    +0.019 C 
ENDROOT
BRANCH   1   2
ATOM      2  C   UNL     1       5.680   0.678   1.379  0.00  0.00    +0.218 C 
ATOM      3  O   UNL     1       6.329  -0.321   1.607  0.00  0.00    -0.276 OA
ATOM      4  N   UNL     1       6.306   1.840   1.106  0.00  0.00    -0.208 N 
ATOM      5  H   UNL     1       5.788   2.639   0.925  0.00  0.00    +0.177 HD
BRANCH   4   6
ATOM      6  N   UNL     1       7.706   1.893   1.085  0.00  0.00    -0.188 NA
ATOM      7  C   UNL     1       8.309   3.012   0.822  0.00  0.00    +0.138 C 
BRANCH   7   8
ATOM      8  C   UNL     1       9.782   3.068   0.799  0.00  0.00    -0.003 A 
ATOM      9  C   UNL     1      10.530   1.907   1.069  0.00  0.00    +0.011 A 
ATOM     10  C   UNL     1      11.886   1.933   1.049  0.00  0.00    +0.030 A 
ATOM     11  C   UNL     1      12.565   3.133   0.766  0.00  0.00    +0.089 A 
ATOM     12  C   UNL     1      11.823   4.312   0.498  0.00  0.00    +0.090 A 
ATOM     13  C   UNL     1      10.420   4.266   0.518  0.00  0.00    +0.039 A 
ATOM     14  N   UNL     1      12.469   5.453   0.230  0.00  0.00    -0.252 NA
ATOM     15  C   UNL     1      13.783   5.470   0.218  0.00  0.00    +0.131 A 
ATOM     16  C   UNL     1      14.512   4.310   0.482  0.00  0.00    +0.131 A 
ATOM     17  N   UNL     1      13.901   3.177   0.747  0.00  0.00    -0.252 NA
ENDBRANCH   7   8
ENDBRANCH   4   6
ENDBRANCH   1   2
BRANCH   1  20
ATOM     18  H   UNL     1       4.091  -1.407   1.747  0.00  0.00    -0.089 HD
ATOM     19  H   UNL     1       4.023  -0.487   3.131  0.00  0.00    -0.089 HD
ATOM     20  N   UNL     1       3.716  -0.556   2.162  0.00  0.00    +0.386 N 
ATOM     21  H   UNL     1       2.690  -0.594   2.138  0.00  0.00    -0.089 HD
ENDBRANCH   1  20
BRANCH   1  22
ATOM     22  C   UNL     1       3.646   0.525  -0.030  0.00  0.00    +0.030 C 
BRANCH  22  29
ATOM     23  C   UNL     1       0.593   4.082   0.018  0.00  0.00    +0.001 A 
ATOM     24  C   UNL     1      -0.730   3.659   0.029  0.00  0.00    +0.002 A 
ATOM     25  C   UNL     1      -1.038   2.317   0.029  0.00  0.00    +0.026 A 
ATOM     26  C   UNL     1      -0.017   1.373   0.010  0.00  0.00    +0.047 A 
ATOM     27  C   UNL     1       1.322   1.806  -0.001  0.00  0.00    +0.003 A 
ATOM     28  C   UNL     1       1.612   3.172   0.004  0.00  0.00    +0.010 A 
ATOM     29  C   UNL     1       2.140   0.591  -0.015  0.00  0.00    -0.023 A 
ATOM     30  C   UNL     1       1.295  -0.452  -0.013  0.00  0.00    +0.087 A 
ATOM     31  N   UNL     1       0.002  -0.004   0.002  0.00  0.00    -0.360 N 
ATOM     32  H   UNL     1      -0.784  -0.572   0.006  0.00  0.00    +0.165 HD
ENDBRANCH  22  29
ENDBRANCH   1  22
TORSDOF 6
