REMARK  Name = ZINC35945011
REMARK  17 active torsions:
REMARK  status: ('A' for Active; 'I' for Inactive)
REMARK    1  A    between atoms: C_1  and  C_2
REMARK    2  A    between atoms: C_2  and  C_3
REMARK    3  A    between atoms: C_2  and  C_4
REMARK    4  A    between atoms: C_4  and  N_5
REMARK    5  A    between atoms: N_5  and  C_6
REMARK    6  A    between atoms: C_6  and  C_7
REMARK    7  A    between atoms: C_9  and  N_22
REMARK    8  A    between atoms: C_12  and  N_13
REMARK    9  A    between atoms: N_13  and  C_14
REMARK   10  A    between atoms: N_13  and  C_15
REMARK   11  A    between atoms: N_18  and  C_21
REMARK   12  A    between atoms: C_23  and  C_25
REMARK   13  A    between atoms: C_25  and  C_26
REMARK   14  A    between atoms: C_25  and  C_27
REMARK   15  A    between atoms: C_28  and  C_30
REMARK   16  A    between atoms: C_33  and  O_36
REMARK   17  A    between atoms: O_36  and  C_37
REMARK                            x       y       z     vdW  Elec       q    Type
REMARK                         _______ _______ _______ _____ _____    ______ ____
ROOT
ATOM      1  C   UNL     1      -3.477  -3.227   1.474  0.00  0.00    -0.007 A 
ATOM      2  C   UNL     1      -4.228  -2.636   2.470  0.00  0.00    +0.030 A 
ATOM      3  C   UNL     1      -5.529  -3.062   2.704  0.00  0.00    +0.034 A 
ATOM      4  C   UNL     1      -6.074  -4.082   1.937  0.00  0.00    +0.025 A 
ATOM      5  C   UNL     1      -5.323  -4.673   0.940  0.00  0.00    +0.025 A 
ATOM      6  C   UNL     1      -4.024  -4.243   0.702  0.00  0.00    +0.035 A 
ENDROOT
BRANCH   3   7
ATOM      7  N   UNL     1      -6.291  -2.462   3.716  0.00  0.00    -0.285 N 
ATOM      8  C   UNL     1      -7.616  -2.284   3.546  0.00  0.00    +0.220 C 
ATOM      9  O   UNL     1      -8.164  -2.717   2.553  0.00  0.00    -0.275 OA
ATOM     10  H   UNL     1      -5.865  -2.175   4.539  0.00  0.00    +0.155 HD
BRANCH   8  11
ATOM     11  C   UNL     1      -8.418  -1.548   4.588  0.00  0.00    +0.069 C 
ATOM     12  C   UNL     1      -7.872  -0.128   4.742  0.00  0.00    +0.017 C 
ATOM     13  C   UNL     1      -9.884  -1.487   4.154  0.00  0.00    +0.017 C 
ENDBRANCH   8  11
ENDBRANCH   3   7
BRANCH   6  14
ATOM     14  N   UNL     1      -3.265  -4.838  -0.311  0.00  0.00    -0.330 N 
ATOM     15  C   UNL     1      -3.195  -4.215  -1.635  0.00  0.00    +0.129 C 
BRANCH  14  16
ATOM     16  C   UNL     1      -2.540  -6.084  -0.048  0.00  0.00    +0.070 C 
ATOM     17  C   UNL     1      -1.038  -5.852  -0.238  0.00  0.00    +0.004 C 
ATOM     18  C   UNL     1      -0.295  -7.175  -0.040  0.00  0.00    -0.077 C 
ATOM     19  N   UNL     1      -0.767  -8.158  -1.022  0.00  0.00    +0.378 N 
ATOM     20  C   UNL     1      -2.191  -8.439  -0.800  0.00  0.00    -0.077 C 
ATOM     21  C   UNL     1      -3.008  -7.165  -1.027  0.00  0.00    +0.004 C 
ATOM     22  C   UNL     1       0.003  -9.400  -0.879  0.00  0.00    -0.096 C 
ATOM     23  H   UNL     1      -0.639  -7.790  -1.953  0.00  0.00    -0.082 HD
ENDBRANCH  14  16
ENDBRANCH   6  14
BRANCH   1  24
ATOM     24  C   UNL     1      -2.065  -2.764   1.220  0.00  0.00    +0.145 C 
BRANCH  24  25
ATOM     25  N   UNL     1      -1.780  -1.589   2.047  0.00  0.00    -0.293 N 
ATOM     26  C   UNL     1      -2.141  -0.362   1.623  0.00  0.00    +0.247 C 
ATOM     27  O   UNL     1      -2.730  -0.233   0.568  0.00  0.00    -0.270 OA
BRANCH  26  28
ATOM     28  C   UNL     1      -1.820   0.825   2.440  0.00  0.00    +0.037 A 
ATOM     29  C   UNL     1      -0.797   0.766   3.389  0.00  0.00    +0.016 A 
ATOM     30  C   UNL     1      -0.501   1.876   4.149  0.00  0.00    +0.046 A 
ATOM     31  C   UNL     1      -1.219   3.053   3.972  0.00  0.00    +0.120 A 
ATOM     32  C   UNL     1      -2.237   3.115   3.029  0.00  0.00    +0.046 A 
ATOM     33  C   UNL     1      -2.536   2.012   2.261  0.00  0.00    +0.016 A 
BRANCH  31  34
ATOM     34  O   UNL     1      -0.924   4.144   4.723  0.00  0.00    -0.495 OA
ATOM     35  C   UNL     1      -1.701   5.321   4.491  0.00  0.00    +0.277 C 
ENDBRANCH  31  34
ENDBRANCH  26  28
BRANCH  25  36
ATOM     36  C   UNL     1      -1.102  -1.749   3.336  0.00  0.00    +0.111 C 
BRANCH  36  38
ATOM     37  C   UNL     1       1.124  -1.901   4.460  0.00  0.00    +0.009 C 
ATOM     38  C   UNL     1       0.407  -1.860   3.109  0.00  0.00    +0.000 C 
ATOM     39  C   UNL     1       0.713  -3.140   2.330  0.00  0.00    +0.009 C 
ENDBRANCH  36  38
ENDBRANCH  25  36
ENDBRANCH  24  25
ENDBRANCH   1  24
TORSDOF 10
