REMARK  Name = ZINC49544847
REMARK  7 active torsions:
REMARK  status: ('A' for Active; 'I' for Inactive)
REMARK    1  A    between atoms: C_1  and  N_2
REMARK    2  A    between atoms: C_8  and  C_14
REMARK    3  A    between atoms: C_18  and  O_29
REMARK    4  A    between atoms: C_19  and  O_20
REMARK    5  A    between atoms: O_20  and  C_21
REMARK    6  A    between atoms: C_21  and  C_22
REMARK    7  A    between atoms: O_29  and  C_30
REMARK                            x       y       z     vdW  Elec       q    Type
REMARK                         _______ _______ _______ _____ _____    ______ ____
ROOT
ATOM      1  C   UNL     1      -4.453  -3.912  -1.411  0.00  0.00    +0.006 A 
ATOM      2  C   UNL     1      -4.979  -2.996  -2.303  0.00  0.00    +0.008 A 
ATOM      3  C   UNL     1      -5.247  -3.370  -3.606  0.00  0.00    +0.004 A 
ATOM      4  C   UNL     1      -4.991  -4.663  -4.024  0.00  0.00    +0.049 A 
ATOM      5  C   UNL     1      -4.465  -5.587  -3.135  0.00  0.00    +0.162 A 
ATOM      6  C   UNL     1      -4.189  -5.208  -1.825  0.00  0.00    +0.166 A 
ENDROOT
BRANCH   1  14
ATOM      7  C   UNL     1      -0.018   1.461   0.010  0.00  0.00    +0.127 C 
ATOM      8  N   UNL     1       0.002  -0.004   0.002  0.00  0.00    -0.326 N 
ATOM      9  C   UNL     1      -1.188  -0.713   0.010  0.00  0.00    +0.160 A 
ATOM     10  N   UNL     1      -2.420  -0.244   0.018  0.00  0.00    -0.210 NA
ATOM     11  C   UNL     1      -3.474  -1.051   0.026  0.00  0.00    +0.138 A 
ATOM     12  C   UNL     1      -3.177  -2.384   0.017  0.00  0.00    +0.041 A 
ATOM     13  S   UNL     1      -1.411  -2.385   0.003  0.00  0.00    -0.055 S 
ATOM     14  C   UNL     1      -4.162  -3.501   0.009  0.00  0.00    +0.072 C 
ATOM     15  C   UNL     1      -5.452  -3.005   0.681  0.00  0.00    +0.109 C 
ATOM     16  C   UNL     1      -5.777  -1.607   0.238  0.00  0.00    +0.219 C 
ATOM     17  O   UNL     1      -6.940  -1.313   0.060  0.00  0.00    -0.275 OA
ATOM     18  N   UNL     1      -4.839  -0.665   0.029  0.00  0.00    -0.270 N 
ATOM     19  H   UNL     1       0.849  -0.478  -0.009  0.00  0.00    +0.148 HD
ATOM     20  H   UNL     1      -5.092   0.261  -0.115  0.00  0.00    +0.156 HD
ENDBRANCH   1  14
BRANCH   5  21
ATOM     21  O   UNL     1      -4.212  -6.859  -3.544  0.00  0.00    -0.491 OA
ATOM     22  C   UNL     1      -4.515  -7.175  -4.905  0.00  0.00    +0.277 C 
ENDBRANCH   5  21
BRANCH   6  23
ATOM     23  O   UNL     1      -3.667  -6.109  -0.950  0.00  0.00    -0.483 OA
BRANCH  23  24
ATOM     24  C   UNL     1      -4.593  -6.888  -0.191  0.00  0.00    +0.264 C 
BRANCH  24  25
ATOM     25  C   UNL     1      -3.837  -7.824   0.717  0.00  0.00    -0.010 A 
ATOM     26  C   UNL     1      -3.487  -9.085   0.271  0.00  0.00    +0.010 A 
ATOM     27  C   UNL     1      -2.794  -9.944   1.103  0.00  0.00    +0.039 A 
ATOM     28  C   UNL     1      -2.449  -9.541   2.381  0.00  0.00    +0.123 A 
ATOM     29  C   UNL     1      -2.799  -8.278   2.826  0.00  0.00    +0.039 A 
ATOM     30  C   UNL     1      -3.488  -7.418   1.991  0.00  0.00    +0.010 A 
ATOM     31  F   UNL     1      -1.771 -10.380   3.195  0.00  0.00    -0.205 F 
ENDBRANCH  24  25
ENDBRANCH  23  24
ENDBRANCH   6  23
TORSDOF 5
