REMARK  Name = ZINC05376862
REMARK  9 active torsions:
REMARK  status: ('A' for Active; 'I' for Inactive)
REMARK    1  A    between atoms: C_1  and  C_2
REMARK    2  A    between atoms: C_2  and  N_3
REMARK    3  A    between atoms: N_3  and  C_4
REMARK    4  A    between atoms: N_3  and  C_6
REMARK    5  A    between atoms: C_4  and  C_5
REMARK    6  A    between atoms: C_9  and  N_12
REMARK    7  A    between atoms: N_12  and  C_13
REMARK    8  A    between atoms: C_18  and  C_19
REMARK    9  A    between atoms: C_22  and  C_25
REMARK                            x       y       z     vdW  Elec       q    Type
REMARK                         _______ _______ _______ _____ _____    ______ ____
ROOT
ATOM      1  C   UNL     1      -0.614  -7.122   0.585  0.00  0.00    +0.175 C 
ATOM      2  N   UNL     1      -1.331  -6.647  -0.421  0.00  0.00    -0.152 NA
ATOM      3  C   UNL     1      -1.629  -7.368  -1.479  0.00  0.00    +0.276 C 
ATOM      4  O   UNL     1      -2.290  -6.919  -2.400  0.00  0.00    -0.267 OA
ATOM      5  C   UNL     1      -1.113  -8.762  -1.489  0.00  0.00    +0.079 C 
ATOM      6  C   UNL     1      -1.251  -9.732  -2.425  0.00  0.00    +0.028 C 
ATOM      7  S   UNL     1      -0.251  -8.796   0.078  0.00  0.00    -0.050 S 
ENDROOT
BRANCH   6   8
ATOM      8  C   UNL     1      -0.792 -11.099  -2.140  0.00  0.00    -0.024 A 
ATOM      9  C   UNL     1      -0.376 -11.443  -0.848  0.00  0.00    +0.009 A 
ATOM     10  C   UNL     1       0.051 -12.714  -0.584  0.00  0.00    +0.016 A 
ATOM     11  C   UNL     1       0.073 -13.671  -1.604  0.00  0.00    +0.063 A 
ATOM     12  C   UNL     1      -0.343 -13.328  -2.895  0.00  0.00    +0.016 A 
ATOM     13  C   UNL     1      -0.776 -12.060  -3.159  0.00  0.00    +0.009 A 
BRANCH  11  14
ATOM     14  C   UNL     1       0.534 -15.042  -1.318  0.00  0.00    +0.387 C 
ATOM     15  O   UNL     1       0.898 -15.342  -0.190  0.00  0.00    -0.241 OA
ATOM     16  O   UNL     1       0.554 -15.879  -2.210  0.00  0.00    -0.241 OA
ENDBRANCH  11  14
ENDBRANCH   6   8
BRANCH   1  17
ATOM     17  N   UNL     1      -0.237  -6.483   1.735  0.00  0.00    -0.192 NA
BRANCH  17  21
ATOM     18  C   UNL     1      -1.814  -2.738   2.650  0.00  0.00    +0.014 A 
ATOM     19  C   UNL     1      -2.494  -3.582   1.792  0.00  0.00    +0.023 A 
ATOM     20  C   UNL     1      -1.974  -4.824   1.486  0.00  0.00    +0.027 A 
ATOM     21  C   UNL     1      -0.766  -5.226   2.042  0.00  0.00    +0.056 A 
ATOM     22  C   UNL     1      -0.085  -4.375   2.904  0.00  0.00    +0.027 A 
ATOM     23  C   UNL     1      -0.609  -3.132   3.201  0.00  0.00    +0.023 A 
BRANCH  18  24
ATOM     24  N   UNL     1      -2.343  -1.481   2.957  0.00  0.00    -0.394 NA
ATOM     25  H   UNL     1      -1.721  -0.999   3.588  0.00  0.00    +0.126 HD
BRANCH  24  27
ATOM     26  C   UNL     1      -1.111  -0.418   1.127  0.00  0.00    +0.022 C 
ATOM     27  C   UNL     1      -2.492  -0.698   1.723  0.00  0.00    +0.081 C 
ENDBRANCH  24  27
BRANCH  24  28
ATOM     28  C   UNL     1      -3.657  -1.645   3.594  0.00  0.00    +0.081 C 
ATOM     29  C   UNL     1      -3.483  -2.329   4.952  0.00  0.00    +0.022 C 
ENDBRANCH  24  28
ENDBRANCH  18  24
ENDBRANCH  17  21
ENDBRANCH   1  17
TORSDOF 7
