REMARK  Name = ZINC36266818
REMARK  6 active torsions:
REMARK  status: ('A' for Active; 'I' for Inactive)
REMARK    1  A    between atoms: C_1  and  C_2
REMARK    2  A    between atoms: C_4  and  S_9
REMARK    3  A    between atoms: S_9  and  N_12
REMARK    4  A    between atoms: N_12  and  C_13
REMARK    5  A    between atoms: C_13  and  C_14
REMARK    6  A    between atoms: C_14  and  N_21
REMARK                            x       y       z     vdW  Elec       q    Type
REMARK                         _______ _______ _______ _____ _____    ______ ____
ROOT
ATOM      1  N   UNL     1       1.678  -5.213  -2.174  0.00  0.00    -0.191 NA
ATOM      2  H   UNL     1       1.859  -6.000  -2.710  0.00  0.00    +0.148 HD
ENDROOT
BRANCH   1   3
ATOM      3  S   UNL     1       0.454  -5.235  -1.058  0.00  0.00    +0.058 S 
ATOM      4  O   UNL     1       0.999  -4.729   0.153  0.00  0.00    -0.153 OA
ATOM      5  O   UNL     1      -0.151  -6.518  -1.144  0.00  0.00    -0.153 OA
BRANCH   3   9
ATOM      6  C   UNL     1      -3.855  -4.002  -3.747  0.00  0.00    +0.045 C 
ATOM      7  C   UNL     1      -2.735  -3.562  -2.840  0.00  0.00    -0.035 A 
ATOM      8  C   UNL     1      -1.785  -4.474  -2.422  0.00  0.00    +0.033 A 
ATOM      9  C   UNL     1      -0.757  -4.071  -1.590  0.00  0.00    +0.106 A 
ATOM     10  C   UNL     1      -0.680  -2.754  -1.175  0.00  0.00    +0.029 A 
ATOM     11  C   UNL     1      -1.630  -1.841  -1.592  0.00  0.00    +0.017 A 
ATOM     12  C   UNL     1      -2.655  -2.243  -2.429  0.00  0.00    +0.021 A 
ATOM     13 BR   UNL     1      -3.951  -0.993  -3.005  0.00  0.00    -0.050 Br
ENDBRANCH   3   9
ENDBRANCH   1   3
BRANCH   1  14
ATOM     14  C   UNL     1       2.486  -4.004  -2.350  0.00  0.00    +0.093 C 
BRANCH  14  15
ATOM     15  C   UNL     1       3.752  -4.348  -3.139  0.00  0.00    -0.057 C 
ATOM     16  C   UNL     1       4.441  -3.039  -3.570  0.00  0.00    -0.012 C 
ATOM     17  C   UNL     1       5.252  -2.387  -2.434  0.00  0.00    -0.001 C 
ATOM     18  C   UNL     1       4.533  -2.436  -1.113  0.00  0.00    -0.000 C 
ATOM     19  C   UNL     1       5.005  -3.688  -0.345  0.00  0.00    -0.000 C 
ATOM     20  C   UNL     1       4.343  -4.901  -0.801  0.00  0.00    -0.001 C 
ATOM     21  C   UNL     1       4.639  -5.210  -2.283  0.00  0.00    -0.012 C 
BRANCH  15  22
ATOM     22  N   UNL     1       3.372  -5.101  -4.341  0.00  0.00    +0.383 N 
ATOM     23  H   UNL     1       2.757  -4.539  -4.910  0.00  0.00    -0.089 HD
ATOM     24  H   UNL     1       4.200  -5.333  -4.868  0.00  0.00    -0.089 HD
ATOM     25  H   UNL     1       2.897  -5.950  -4.070  0.00  0.00    -0.089 HD
ENDBRANCH  15  22
ENDBRANCH  14  15
ENDBRANCH   1  14
TORSDOF 5
