REMARK  Name = ZINC49515614
REMARK  6 active torsions:
REMARK  status: ('A' for Active; 'I' for Inactive)
REMARK    1  A    between atoms: C_1  and  C_2
REMARK    2  A    between atoms: C_6  and  N_12
REMARK    3  A    between atoms: C_7  and  N_11
REMARK    4  A    between atoms: N_12  and  C_13
REMARK    5  A    between atoms: C_13  and  C_15
REMARK    6  A    between atoms: C_13  and  C_16
REMARK                            x       y       z     vdW  Elec       q    Type
REMARK                         _______ _______ _______ _____ _____    ______ ____
ROOT
ATOM      1  C   UNL     1      -0.018   1.503   0.010  0.00  0.00    +0.073 C 
ATOM      2  C   UNL     1       0.002  -0.004   0.002  0.00  0.00    +0.076 A 
ATOM      3  N   UNL     1      -1.015  -0.815   0.002  0.00  0.00    -0.244 NA
ATOM      4  C   UNL     1      -0.864  -2.157  -0.006  0.00  0.00    +0.080 A 
ATOM      5  C   UNL     1      -1.843  -3.175  -0.007  0.00  0.00    +0.053 A 
ATOM      6  C   UNL     1      -1.473  -4.499  -0.015  0.00  0.00    +0.051 A 
ATOM      7  C   UNL     1      -0.125  -4.875  -0.023  0.00  0.00    +0.047 A 
ATOM      8  C   UNL     1       0.855  -3.894  -0.022  0.00  0.00    +0.041 A 
ATOM      9  C   UNL     1       0.486  -2.570  -0.014  0.00  0.00    +0.041 A 
ATOM     10  S   UNL     1       1.346  -1.018  -0.017  0.00  0.00    -0.072 S 
ENDROOT
BRANCH   7  11
ATOM     11  N   UNL     1       0.231  -6.230  -0.030  0.00  0.00    -0.357 N 
ATOM     12  H   UNL     1      -0.458  -6.913  -0.030  0.00  0.00    +0.142 HD
ATOM     13  H   UNL     1       1.167  -6.486  -0.036  0.00  0.00    +0.142 HD
ENDBRANCH   7  11
BRANCH   6  14
ATOM     14  N   UNL     1      -2.464  -5.490  -0.014  0.00  0.00    -0.336 N 
ATOM     15  H   UNL     1      -2.213  -6.427  -0.020  0.00  0.00    +0.147 HD
BRANCH  14  16
ATOM     16  C   UNL     1      -3.879  -5.111  -0.005  0.00  0.00    +0.098 C 
ATOM     17  C   UNL     1      -4.332  -4.864   1.435  0.00  0.00    +0.033 C 
BRANCH  16  18
ATOM     18  C   UNL     1      -4.700  -6.222  -0.607  0.00  0.00    -0.027 A 
ATOM     19  C   UNL     1      -4.398  -7.540  -0.317  0.00  0.00    +0.007 A 
ATOM     20  C   UNL     1      -5.151  -8.559  -0.868  0.00  0.00    +0.020 A 
ATOM     21  C   UNL     1      -6.207  -8.261  -1.711  0.00  0.00    +0.041 A 
ATOM     22  C   UNL     1      -6.509  -6.942  -2.000  0.00  0.00    +0.020 A 
ATOM     23  C   UNL     1      -5.759  -5.924  -1.444  0.00  0.00    +0.007 A 
ATOM     24 CL   UNL     1      -7.153  -9.541  -2.404  0.00  0.00    -0.084 Cl
ENDBRANCH  16  18
ENDBRANCH  14  16
ENDBRANCH   6  14
TORSDOF 4
