REMARK  Name = ZINC48547741
REMARK  16 active torsions:
REMARK  status: ('A' for Active; 'I' for Inactive)
REMARK    1  A    between atoms: C_1  and  C_2
REMARK    2  A    between atoms: N_4  and  C_31
REMARK    3  A    between atoms: C_7  and  C_9
REMARK    4  A    between atoms: C_9  and  C_16
REMARK    5  A    between atoms: N_10  and  N_11
REMARK    6  A    between atoms: N_11  and  C_12
REMARK    7  A    between atoms: C_12  and  C_13
REMARK    8  A    between atoms: C_12  and  C_14
REMARK    9  A    between atoms: C_12  and  C_15
REMARK   10  A    between atoms: N_18  and  C_19
REMARK   11  A    between atoms: C_20  and  C_28
REMARK   12  A    between atoms: C_24  and  C_25
REMARK   13  A    between atoms: C_25  and  C_26
REMARK   14  A    between atoms: C_25  and  C_27
REMARK   15  A    between atoms: C_28  and  C_29
REMARK   16  A    between atoms: C_28  and  C_30
REMARK                            x       y       z     vdW  Elec       q    Type
REMARK                         _______ _______ _______ _____ _____    ______ ____
ROOT
ATOM      1  C   UNL     1      -2.253  -0.934   7.004  0.00  0.00    +0.138 C 
ATOM      2  N   UNL     1      -2.797  -1.034   8.184  0.00  0.00    -0.185 NA
ENDROOT
BRANCH   1   9
ATOM      3  C   UNL     1      -5.271  -2.076   6.770  0.00  0.00    +0.063 C 
ATOM      4  C   UNL     1      -4.588  -0.881   6.157  0.00  0.00    +0.052 C 
ATOM      5  N   UNL     1      -5.134   0.234   5.860  0.00  0.00    -0.181 NA
ATOM      6  N   UNL     1      -4.244   1.149   5.306  0.00  0.00    -0.160 N 
ATOM      7  C   UNL     1      -3.002   0.627   5.217  0.00  0.00    +0.254 C 
ATOM      8  O   UNL     1      -2.005   1.163   4.783  0.00  0.00    -0.272 OA
ATOM      9  C   UNL     1      -3.124  -0.775   5.785  0.00  0.00    +0.178 C 
BRANCH   6  10
ATOM     10  C   UNL     1      -4.590   2.441   4.895  0.00  0.00    +0.060 A 
ATOM     11  C   UNL     1      -3.627   3.279   4.347  0.00  0.00    +0.025 A 
ATOM     12  C   UNL     1      -3.973   4.553   3.942  0.00  0.00    +0.002 A 
ATOM     13  C   UNL     1      -5.275   4.996   4.082  0.00  0.00    +0.000 A 
ATOM     14  C   UNL     1      -6.236   4.164   4.628  0.00  0.00    +0.002 A 
ATOM     15  C   UNL     1      -5.899   2.886   5.029  0.00  0.00    +0.025 A 
ENDBRANCH   6  10
ENDBRANCH   1   9
BRANCH   1  16
ATOM     16  C   UNL     1      -0.798  -0.976   6.864  0.00  0.00    +0.265 C 
ATOM     17  O   UNL     1      -0.176   0.051   6.658  0.00  0.00    -0.268 OA
ATOM     18  N   UNL     1      -0.145  -2.151   6.961  0.00  0.00    -0.280 N 
ATOM     19  H   UNL     1      -0.622  -2.949   7.236  0.00  0.00    +0.155 HD
BRANCH  18  20
ATOM     20  C   UNL     1       1.220  -2.219   6.666  0.00  0.00    +0.041 A 
ATOM     21  C   UNL     1       2.140  -1.559   7.471  0.00  0.00    -0.023 A 
ATOM     22  C   UNL     1       3.487  -1.628   7.176  0.00  0.00    +0.006 A 
ATOM     23  C   UNL     1       3.921  -2.354   6.082  0.00  0.00    +0.001 A 
ATOM     24  C   UNL     1       3.008  -3.012   5.279  0.00  0.00    +0.006 A 
ATOM     25  C   UNL     1       1.659  -2.951   5.571  0.00  0.00    -0.023 A 
BRANCH  25  26
ATOM     26  C   UNL     1       0.666  -3.674   4.698  0.00  0.00    +0.015 C 
ATOM     27  C   UNL     1       1.058  -5.149   4.593  0.00  0.00    +0.012 C 
ATOM     28  C   UNL     1      -0.731  -3.560   5.314  0.00  0.00    +0.012 C 
ENDBRANCH  25  26
BRANCH  21  29
ATOM     29  C   UNL     1       1.668  -0.767   8.663  0.00  0.00    +0.015 C 
ATOM     30  C   UNL     1       2.176  -1.427   9.946  0.00  0.00    +0.012 C 
ATOM     31  C   UNL     1       2.210   0.661   8.574  0.00  0.00    +0.012 C 
ENDBRANCH  21  29
ENDBRANCH  18  20
ENDBRANCH   1  16
BRANCH   2  32
ATOM     32  N   UNL     1      -1.987  -1.134   9.322  0.00  0.00    -0.263 N 
ATOM     33  H   UNL     1      -1.021  -1.157   9.230  0.00  0.00    +0.169 HD
BRANCH  32  34
ATOM     34  C   UNL     1      -2.597  -1.203  10.652  0.00  0.00    +0.041 C 
ATOM     35  C   UNL     1      -3.503  -2.433  10.735  0.00  0.00    +0.032 C 
ATOM     36  C   UNL     1      -1.499  -1.306  11.713  0.00  0.00    +0.032 C 
ATOM     37  C   UNL     1      -3.427   0.059  10.899  0.00  0.00    +0.032 C 
ENDBRANCH  32  34
ENDBRANCH   2  32
TORSDOF 8
