REMARK  Name = ZINC39960896
REMARK  6 active torsions:
REMARK  status: ('A' for Active; 'I' for Inactive)
REMARK    1  A    between atoms: C_1  and  C_2
REMARK    2  A    between atoms: C_2  and  C_3
REMARK    3  A    between atoms: C_3  and  C_5
REMARK    4  A    between atoms: C_3  and  S_19
REMARK    5  A    between atoms: C_10  and  C_13
REMARK    6  A    between atoms: S_19  and  C_20
REMARK                            x       y       z     vdW  Elec       q    Type
REMARK                         _______ _______ _______ _____ _____    ______ ____
ROOT
ATOM      1  C   UNL     1      -1.412  -0.632   0.104  0.00  0.00    +0.140 C 
ENDROOT
BRANCH   1   2
ATOM      2  C   UNL     1      -1.433  -2.128   0.283  0.00  0.00    +0.232 C 
ATOM      3  O   UNL     1      -1.597  -2.852  -0.676  0.00  0.00    -0.274 OA
ATOM      4  N   UNL     1      -1.270  -2.662   1.510  0.00  0.00    -0.264 N 
ATOM      5  C   UNL     1      -1.289  -4.042   1.675  0.00  0.00    +0.165 A 
ATOM      6  N   UNL     1      -1.154  -4.752   2.779  0.00  0.00    -0.225 NA
ATOM      7  C   UNL     1      -1.199  -6.076   2.755  0.00  0.00    +0.080 A 
ATOM      8  C   UNL     1      -1.389  -6.719   1.563  0.00  0.00    +0.076 A 
ATOM      9  S   UNL     1      -1.510  -5.325   0.451  0.00  0.00    -0.060 S 
ATOM     10  H   UNL     1      -1.139  -2.083   2.277  0.00  0.00    +0.157 HD
BRANCH   7  11
ATOM     11  C   UNL     1      -1.045  -6.854   4.009  0.00  0.00    +0.001 A 
ATOM     12  C   UNL     1      -1.087  -8.246   3.978  0.00  0.00    +0.010 A 
ATOM     13  C   UNL     1      -0.943  -8.964   5.147  0.00  0.00    +0.001 A 
ATOM     14  C   UNL     1      -0.758  -8.305   6.349  0.00  0.00    +0.000 A 
ATOM     15  C   UNL     1      -0.717  -6.922   6.386  0.00  0.00    +0.001 A 
ATOM     16  C   UNL     1      -0.853  -6.194   5.221  0.00  0.00    +0.010 A 
ENDBRANCH   7  11
ENDBRANCH   1   2
BRANCH   1  18
ATOM     17  C   UNL     1       0.066   1.373  -0.083  0.00  0.00    +0.005 C 
ATOM     18  C   UNL     1       0.034  -0.156  -0.042  0.00  0.00    +0.020 C 
ENDBRANCH   1  18
BRANCH   1  19
ATOM     19  S   UNL     1      -2.348  -0.188  -1.385  0.00  0.00    -0.072 S 
BRANCH  19  20
ATOM     20  C   UNL     1      -4.016  -0.578  -0.972  0.00  0.00    +0.208 C 
ATOM     21  N   UNL     1      -4.256  -1.095   0.209  0.00  0.00    -0.227 NA
ATOM     22  C   UNL     1      -5.649  -1.341   0.573  0.00  0.00    +0.252 C 
ATOM     23  C   UNL     1      -6.394  -1.593  -0.730  0.00  0.00    +0.117 C 
ATOM     24  C   UNL     1      -7.114  -2.731  -0.525  0.00  0.00    +0.025 A 
ATOM     25  C   UNL     1      -8.076  -3.404  -1.318  0.00  0.00    +0.012 A 
ATOM     26  C   UNL     1      -8.608  -4.551  -0.817  0.00  0.00    +0.001 A 
ATOM     27  C   UNL     1      -8.266  -5.100   0.423  0.00  0.00    +0.002 A 
ATOM     28  C   UNL     1      -7.362  -4.538   1.268  0.00  0.00    +0.026 A 
ATOM     29  C   UNL     1      -6.737  -3.285   0.812  0.00  0.00    +0.046 A 
ATOM     30  N   UNL     1      -5.868  -2.520   1.399  0.00  0.00    -0.358 N 
ATOM     31  N   UNL     1      -6.165  -0.847  -1.815  0.00  0.00    -0.147 NA
ATOM     32  N   UNL     1      -4.979  -0.322  -1.892  0.00  0.00    -0.122 NA
ATOM     33  H   UNL     1      -5.435  -2.704   2.247  0.00  0.00    +0.162 HD
ENDBRANCH  19  20
ENDBRANCH   1  19
TORSDOF 5
