REMARK  Name = ZINC59145675
REMARK  8 active torsions:
REMARK  status: ('A' for Active; 'I' for Inactive)
REMARK    1  A    between atoms: C_1  and  O_2
REMARK    2  A    between atoms: O_2  and  C_3
REMARK    3  A    between atoms: C_8  and  N_9
REMARK    4  A    between atoms: N_11  and  C_25
REMARK    5  A    between atoms: C_15  and  C_16
REMARK    6  A    between atoms: C_21  and  O_22
REMARK    7  A    between atoms: C_30  and  O_31
REMARK    8  A    between atoms: O_31  and  C_32
REMARK                            x       y       z     vdW  Elec       q    Type
REMARK                         _______ _______ _______ _____ _____    ______ ____
ROOT
ATOM      1  N   UNL     1      -0.808  -2.798  -0.785  0.00  0.00    -0.222 NA
ATOM      2  C   UNL     1      -0.650  -4.102  -0.774  0.00  0.00    +0.173 C 
ATOM      3  N   UNL     1      -1.301  -5.039   0.004  0.00  0.00    -0.211 N 
ATOM      4  C   UNL     1      -1.017  -6.325  -0.115  0.00  0.00    +0.264 C 
ATOM      5  O   UNL     1      -1.581  -7.166   0.562  0.00  0.00    -0.269 OA
ATOM      6  C   UNL     1       0.012  -6.696  -1.104  0.00  0.00    +0.079 C 
ATOM      7  C   UNL     1       0.492  -7.923  -1.429  0.00  0.00    +0.032 C 
ATOM      8  S   UNL     1       0.452  -5.096  -1.767  0.00  0.00    -0.048 S 
ENDROOT
BRANCH   7   9
ATOM      9  C   UNL     1       1.348  -8.089  -2.610  0.00  0.00    +0.019 A 
ATOM     10  C   UNL     1       1.353  -7.116  -3.617  0.00  0.00    +0.031 A 
ATOM     11  C   UNL     1       2.159  -7.279  -4.724  0.00  0.00    +0.042 A 
ATOM     12  C   UNL     1       2.965  -8.401  -4.844  0.00  0.00    +0.023 A 
ATOM     13  C   UNL     1       2.968  -9.368  -3.857  0.00  0.00    +0.047 A 
ATOM     14  C   UNL     1       2.170  -9.220  -2.735  0.00  0.00    +0.124 A 
ATOM     15 CL   UNL     1       2.166  -6.073  -5.973  0.00  0.00    -0.084 Cl
BRANCH  14  16
ATOM     16  O   UNL     1       2.178 -10.168  -1.762  0.00  0.00    -0.506 OA
ATOM     17  H   UNL     1       1.527 -10.871  -1.893  0.00  0.00    +0.292 HD
ENDBRANCH  14  16
ENDBRANCH   7   9
BRANCH   1  23
ATOM     18  C   UNL     1       0.597  -0.910  -1.259  0.00  0.00    +0.145 A 
ATOM     19  C   UNL     1       1.292  -0.146  -2.180  0.00  0.00    +0.048 A 
ATOM     20  C   UNL     1       1.273  -0.487  -3.521  0.00  0.00    +0.004 A 
ATOM     21  C   UNL     1       0.560  -1.592  -3.951  0.00  0.00    +0.002 A 
ATOM     22  C   UNL     1      -0.139  -2.365  -3.045  0.00  0.00    +0.031 A 
ATOM     23  C   UNL     1      -0.121  -2.033  -1.689  0.00  0.00    +0.108 A 
BRANCH  18  25
ATOM     24  C   UNL     1       1.370   0.582   0.423  0.00  0.00    +0.277 C 
ATOM     25  O   UNL     1       0.616  -0.576   0.058  0.00  0.00    -0.493 OA
ENDBRANCH  18  25
ENDBRANCH   1  23
BRANCH   3  26
ATOM     26  C   UNL     1      -2.271  -4.623   0.927  0.00  0.00    +0.085 A 
ATOM     27  C   UNL     1      -3.601  -4.532   0.546  0.00  0.00    +0.027 A 
ATOM     28  C   UNL     1      -4.555  -4.122   1.458  0.00  0.00    +0.002 A 
ATOM     29  C   UNL     1      -4.186  -3.802   2.752  0.00  0.00    +0.004 A 
ATOM     30  C   UNL     1      -2.863  -3.890   3.139  0.00  0.00    +0.047 A 
ATOM     31  C   UNL     1      -1.901  -4.307   2.233  0.00  0.00    +0.142 A 
BRANCH  31  32
ATOM     32  O   UNL     1      -0.600  -4.400   2.614  0.00  0.00    -0.493 OA
ATOM     33  C   UNL     1      -0.294  -4.060   3.968  0.00  0.00    +0.277 C 
ENDBRANCH  31  32
ENDBRANCH   3  26
TORSDOF 6
