REMARK  Name = ZINC45756198
REMARK  9 active torsions:
REMARK  status: ('A' for Active; 'I' for Inactive)
REMARK    1  A    between atoms: C_1  and  O_2
REMARK    2  A    between atoms: O_2  and  C_3
REMARK    3  A    between atoms: C_6  and  C_9
REMARK    4  A    between atoms: C_11  and  C_14
REMARK    5  A    between atoms: C_14  and  N_15
REMARK    6  A    between atoms: C_21  and  C_23
REMARK    7  A    between atoms: C_23  and  C_24
REMARK    8  A    between atoms: C_24  and  C_25
REMARK    9  A    between atoms: C_25  and  C_26
REMARK                            x       y       z     vdW  Elec       q    Type
REMARK                         _______ _______ _______ _____ _____    ______ ____
ROOT
ATOM      1  N   UNL     1       5.006  -5.908   5.554  0.00  0.00    -0.291 NA
ATOM      2  C   UNL     1       4.952  -6.087   4.097  0.00  0.00    +0.104 C 
ATOM      3  C   UNL     1       6.366  -6.340   3.564  0.00  0.00    +0.123 C 
ATOM      4  N   UNL     1       6.951  -7.466   4.308  0.00  0.00    -0.299 N 
ATOM      5  C   UNL     1       6.918  -7.421   5.777  0.00  0.00    +0.123 C 
ATOM      6  C   UNL     1       5.482  -7.126   6.223  0.00  0.00    +0.104 C 
ATOM      7  C   UNL     1       7.503  -8.511   3.660  0.00  0.00    +0.216 C 
ATOM      8  O   UNL     1       7.522  -8.531   2.447  0.00  0.00    -0.276 OA
ENDROOT
BRANCH   1   9
ATOM      9  C   UNL     1       3.699  -5.494   6.082  0.00  0.00    +0.183 C 
BRANCH   9  12
ATOM     10  C   UNL     1       2.577  -2.541   4.295  0.00  0.00    +0.202 A 
ATOM     11  N   UNL     1       2.707  -3.870   4.457  0.00  0.00    -0.190 NA
ATOM     12  C   UNL     1       3.357  -4.123   5.557  0.00  0.00    +0.242 A 
ATOM     13  O   UNL     1       3.669  -2.960   6.144  0.00  0.00    -0.336 OA
ATOM     14  N   UNL     1       3.157  -1.937   5.303  0.00  0.00    -0.056 NA
BRANCH  10  18
ATOM     15  C   UNL     1       0.625  -0.618   1.041  0.00  0.00    +0.120 A 
ATOM     16  C   UNL     1       1.202   0.142   2.050  0.00  0.00    +0.046 A 
ATOM     17  C   UNL     1       1.835  -0.479   3.106  0.00  0.00    +0.015 A 
ATOM     18  C   UNL     1       1.896  -1.870   3.160  0.00  0.00    +0.023 A 
ATOM     19  C   UNL     1       1.317  -2.630   2.145  0.00  0.00    +0.015 A 
ATOM     20  C   UNL     1       0.680  -2.005   1.095  0.00  0.00    +0.046 A 
BRANCH  15  22
ATOM     21  C   UNL     1      -0.017   1.425   0.010  0.00  0.00    +0.277 C 
ATOM     22  O   UNL     1       0.002  -0.004   0.002  0.00  0.00    -0.495 OA
ENDBRANCH  15  22
ENDBRANCH  10  18
ENDBRANCH   9  12
ENDBRANCH   1   9
BRANCH   7  23
ATOM     23  C   UNL     1       8.098  -9.654   4.442  0.00  0.00    +0.096 C 
BRANCH  23  24
ATOM     24  C   UNL     1       8.653 -10.700   3.473  0.00  0.00    +0.014 C 
BRANCH  24  25
ATOM     25  C   UNL     1       9.256 -11.860   4.267  0.00  0.00    +0.038 C 
BRANCH  25  26
ATOM     26  C   UNL     1       9.803 -12.891   3.313  0.00  0.00    -0.022 A 
ATOM     27  C   UNL     1       9.166 -13.986   2.870  0.00  0.00    +0.087 A 
ATOM     28  N   UNL     1       9.977 -14.684   2.017  0.00  0.00    -0.360 N 
ATOM     29  H   UNL     1       9.736 -15.511   1.570  0.00  0.00    +0.165 HD
ATOM     30  C   UNL     1      11.187 -14.040   1.888  0.00  0.00    +0.047 A 
ATOM     31  C   UNL     1      11.128 -12.884   2.690  0.00  0.00    +0.003 A 
ATOM     32  C   UNL     1      12.225 -12.023   2.751  0.00  0.00    +0.010 A 
ATOM     33  C   UNL     1      13.350 -12.305   2.028  0.00  0.00    +0.001 A 
ATOM     34  C   UNL     1      13.411 -13.441   1.233  0.00  0.00    +0.002 A 
ATOM     35  C   UNL     1      12.344 -14.309   1.165  0.00  0.00    +0.026 A 
ENDBRANCH  25  26
ENDBRANCH  24  25
ENDBRANCH  23  24
ENDBRANCH   7  23
TORSDOF 8
