REMARK  Name = ZINC24173697
REMARK  8 active torsions:
REMARK  status: ('A' for Active; 'I' for Inactive)
REMARK    1  A    between atoms: C_1  and  C_2
REMARK    2  A    between atoms: C_5  and  N_8
REMARK    3  A    between atoms: C_12  and  S_13
REMARK    4  A    between atoms: S_13  and  C_14
REMARK    5  A    between atoms: C_14  and  C_15
REMARK    6  A    between atoms: N_17  and  C_18
REMARK    7  A    between atoms: N_22  and  C_24
REMARK    8  A    between atoms: C_24  and  C_25
REMARK                            x       y       z     vdW  Elec       q    Type
REMARK                         _______ _______ _______ _____ _____    ______ ____
ROOT
ATOM      1  S   UNL     1       1.787  -2.073   0.030  0.00  0.00    -0.076 S 
ENDROOT
BRANCH   1   6
ATOM      2  N   UNL     1       2.029   0.704  -0.185  0.00  0.00    -0.259 N 
ATOM      3  C   UNL     1       1.227   1.812  -0.128  0.00  0.00    +0.225 A 
ATOM      4  N   UNL     1      -0.001   1.411   0.093  0.00  0.00    -0.112 NA
ATOM      5  N   UNL     1       0.007   0.013   0.180  0.00  0.00    -0.120 NA
ATOM      6  C   UNL     1       1.240  -0.398   0.010  0.00  0.00    +0.198 A 
ATOM      7  N   UNL     1       1.642   3.129  -0.278  0.00  0.00    -0.299 N 
ATOM      8  C   UNL     1       1.344   3.915   0.926  0.00  0.00    +0.108 C 
ATOM      9  C   UNL     1       1.942   5.316   0.783  0.00  0.00    +0.019 C 
ATOM     10  C   UNL     1       1.348   5.996  -0.454  0.00  0.00    +0.003 C 
ATOM     11  C   UNL     1       1.631   5.133  -1.686  0.00  0.00    +0.019 C 
ATOM     12  C   UNL     1       1.041   3.737  -1.472  0.00  0.00    +0.108 C 
BRANCH   2  17
ATOM     13  C   UNL     1       7.635   0.683  -1.076  0.00  0.00    +0.044 C 
ATOM     14  C   UNL     1       6.147   0.688  -0.840  0.00  0.00    -0.050 A 
ATOM     15  C   UNL     1       5.296   0.149  -1.786  0.00  0.00    +0.005 A 
ATOM     16  C   UNL     1       3.931   0.152  -1.572  0.00  0.00    +0.026 A 
ATOM     17  C   UNL     1       3.414   0.699  -0.405  0.00  0.00    +0.052 A 
ATOM     18  C   UNL     1       4.271   1.245   0.541  0.00  0.00    +0.026 A 
ATOM     19  C   UNL     1       5.635   1.233   0.324  0.00  0.00    +0.005 A 
ENDBRANCH   2  17
ENDBRANCH   1   6
BRANCH   1  20
ATOM     20  C   UNL     1       0.272  -3.025   0.332  0.00  0.00    +0.173 C 
BRANCH  20  21
ATOM     21  C   UNL     1       0.602  -4.494   0.373  0.00  0.00    +0.223 C 
ATOM     22  O   UNL     1       1.747  -4.864   0.214  0.00  0.00    -0.275 OA
ATOM     23  N   UNL     1      -0.374  -5.399   0.585  0.00  0.00    -0.314 N 
ATOM     24  H   UNL     1      -1.412  -5.064   0.729  0.00  0.00    +0.149 HD
BRANCH  23  25
ATOM     25  C   UNL     1      -0.053  -6.828   0.625  0.00  0.00    +0.055 C 
ATOM     26  C   UNL     1       0.345  -7.248   2.059  0.00  0.00    +0.002 C 
ATOM     27  C   UNL     1      -0.977  -7.829   2.627  0.00  0.00    -0.077 C 
ATOM     28  N   UNL     1      -1.570  -8.530   1.460  0.00  0.00    +0.384 N 
ATOM     29  C   UNL     1      -1.301  -7.665   0.290  0.00  0.00    -0.056 C 
ATOM     30  H   UNL     1      -1.142  -9.534   1.325  0.00  0.00    -0.081 HD
BRANCH  28  31
ATOM     31  C   UNL     1      -3.013  -8.732   1.644  0.00  0.00    -0.043 C 
BRANCH  31  32
ATOM     32  C   UNL     1      -3.261  -9.405   2.970  0.00  0.00    -0.064 A 
ATOM     33  C   UNL     1      -3.298 -10.784   3.049  0.00  0.00    +0.002 A 
ATOM     34  C   UNL     1      -3.521 -11.401   4.266  0.00  0.00    +0.000 A 
ATOM     35  C   UNL     1      -3.716 -10.638   5.402  0.00  0.00    +0.000 A 
ATOM     36  C   UNL     1      -3.685  -9.258   5.322  0.00  0.00    +0.000 A 
ATOM     37  C   UNL     1      -3.457  -8.642   4.106  0.00  0.00    +0.002 A 
ENDBRANCH  31  32
ENDBRANCH  28  31
ENDBRANCH  23  25
ENDBRANCH  20  21
ENDBRANCH   1  20
TORSDOF 7
