REMARK  Name = ZINC09308142
REMARK  7 active torsions:
REMARK  status: ('A' for Active; 'I' for Inactive)
REMARK    1  A    between atoms: C_1  and  N_2
REMARK    2  A    between atoms: N_2  and  C_3
REMARK    3  A    between atoms: N_2  and  C_28
REMARK    4  A    between atoms: C_3  and  C_4
REMARK    5  A    between atoms: C_5  and  C_15
REMARK    6  A    between atoms: N_17  and  N_18
REMARK    7  A    between atoms: C_19  and  C_20
REMARK                            x       y       z     vdW  Elec       q    Type
REMARK                         _______ _______ _______ _____ _____    ______ ____
ROOT
ATOM      1  C   UNL     1       3.121  -2.200  -0.045  0.00  0.00    +0.063 A 
ATOM      2  C   UNL     1       3.084  -3.566  -0.048  0.00  0.00    +0.170 A 
ATOM      3  N   UNL     1       1.798  -3.957  -0.038  0.00  0.00    -0.124 NA
ATOM      4  N   UNL     1       1.032  -2.922  -0.025  0.00  0.00    -0.058 NA
ATOM      5  N   UNL     1       1.838  -1.775  -0.025  0.00  0.00    -0.194 N 
ATOM      6  C   UNL     1       1.399  -0.446  -0.014  0.00  0.00    +0.240 A 
ATOM      7  C   UNL     1       0.002  -0.004   0.002  0.00  0.00    +0.206 A 
ATOM      8  N   UNL     1      -0.016   1.300   0.009  0.00  0.00    -0.032 NA
ATOM      9  O   UNL     1       1.327   1.753  -0.001  0.00  0.00    -0.239 OA
ATOM     10  N   UNL     1       2.164   0.609  -0.015  0.00  0.00    -0.027 NA
ATOM     11  N   UNL     1      -1.114  -0.833   0.008  0.00  0.00    -0.337 N 
ATOM     12  H   UNL     1      -2.123  -0.397   0.020  0.00  0.00    +0.144 HD
ATOM     13  H   UNL     1      -0.987  -1.926   0.001  0.00  0.00    +0.144 HD
ENDROOT
BRANCH   2  14
ATOM     14  C   UNL     1       4.256  -4.460  -0.065  0.00  0.00    +0.285 C 
ATOM     15  O   UNL     1       5.379  -3.991  -0.073  0.00  0.00    -0.267 OA
ATOM     16  N   UNL     1       4.085  -5.797  -0.071  0.00  0.00    -0.202 N 
ATOM     17  H   UNL     1       3.070  -6.221  -0.064  0.00  0.00    +0.178 HD
BRANCH  16  18
ATOM     18  N   UNL     1       5.199  -6.646  -0.087  0.00  0.00    -0.187 NA
ATOM     19  C   UNL     1       5.033  -7.933  -0.093  0.00  0.00    +0.141 C 
BRANCH  19  20
ATOM     20  C   UNL     1       6.205  -8.827  -0.110  0.00  0.00    +0.031 A 
ATOM     21  C   UNL     1       7.497  -8.292  -0.125  0.00  0.00    +0.051 A 
ATOM     22  C   UNL     1       8.590  -9.136  -0.137  0.00  0.00    +0.021 A 
ATOM     23  C   UNL     1       8.409 -10.508  -0.143  0.00  0.00    +0.003 A 
ATOM     24  C   UNL     1       7.134 -11.045  -0.133  0.00  0.00    +0.021 A 
ATOM     25  C   UNL     1       6.031 -10.214  -0.117  0.00  0.00    +0.051 A 
ATOM     26 CL   UNL     1       4.433 -10.891  -0.105  0.00  0.00    -0.083 Cl
ATOM     27 CL   UNL     1       7.726  -6.571  -0.124  0.00  0.00    -0.083 Cl
ENDBRANCH  19  20
ENDBRANCH  16  18
ENDBRANCH   2  14
BRANCH   1  28
ATOM     28  C   UNL     1       4.355  -1.335  -0.059  0.00  0.00    -0.020 C 
BRANCH  28  30
ATOM     29  C   UNL     1       5.218  -2.289   1.992  0.00  0.00    -0.095 C 
ATOM     30  N   UNL     1       4.775  -1.060   1.321  0.00  0.00    +0.383 N 
ATOM     31  H   UNL     1       3.904  -0.671   1.869  0.00  0.00    -0.081 HD
BRANCH  30  32
ATOM     32  C   UNL     1       5.825  -0.033   1.357  0.00  0.00    -0.068 C 
ATOM     33  C   UNL     1       7.083  -0.566   0.669  0.00  0.00    -0.015 C 
ATOM     34  C   UNL     1       8.177   0.504   0.707  0.00  0.00    -0.002 C 
ATOM     35  C   UNL     1       8.500   0.852   2.161  0.00  0.00    -0.000 C 
ATOM     36  C   UNL     1       7.241   1.385   2.849  0.00  0.00    -0.002 C 
ATOM     37  C   UNL     1       6.148   0.316   2.812  0.00  0.00    -0.015 C 
ENDBRANCH  30  32
ENDBRANCH  28  30
ENDBRANCH   1  28
TORSDOF 6
