REMARK  Name = ZINC38825829
REMARK  10 active torsions:
REMARK  status: ('A' for Active; 'I' for Inactive)
REMARK    1  A    between atoms: C_1  and  C_2
REMARK    2  A    between atoms: C_2  and  C_3
REMARK    3  A    between atoms: C_6  and  N_9
REMARK    4  A    between atoms: N_9  and  C_10
REMARK    5  A    between atoms: N_9  and  C_18
REMARK    6  A    between atoms: C_10  and  C_11
REMARK    7  A    between atoms: C_14  and  C_17
REMARK    8  A    between atoms: C_18  and  C_19
REMARK    9  A    between atoms: C_25  and  O_31
REMARK   10  A    between atoms: O_31  and  C_32
REMARK                            x       y       z     vdW  Elec       q    Type
REMARK                         _______ _______ _______ _____ _____    ______ ____
ROOT
ATOM      1  N   UNL     1       2.656  -1.833  -4.663  0.00  0.00    -0.325 N 
ENDROOT
BRANCH   1   5
ATOM      2  C   UNL     1       0.707  -0.490  -1.238  0.00  0.00    -0.048 A 
ATOM      3  C   UNL     1      -0.012  -0.718  -2.396  0.00  0.00    +0.005 A 
ATOM      4  C   UNL     1       0.631  -1.163  -3.534  0.00  0.00    +0.023 A 
ATOM      5  C   UNL     1       2.003  -1.382  -3.514  0.00  0.00    +0.030 A 
ATOM      6  C   UNL     1       2.723  -1.152  -2.349  0.00  0.00    +0.023 A 
ATOM      7  C   UNL     1       2.074  -0.702  -1.216  0.00  0.00    +0.005 A 
BRANCH   2   9
ATOM      8  C   UNL     1      -0.019   1.526   0.010  0.00  0.00    +0.009 C 
ATOM      9  C   UNL     1       0.002  -0.004   0.002  0.00  0.00    +0.032 C 
ENDBRANCH   2   9
ENDBRANCH   1   5
BRANCH   1  10
ATOM     10  C   UNL     1       1.895  -2.076  -5.892  0.00  0.00    +0.140 C 
BRANCH  10  11
ATOM     11  C   UNL     1       1.855  -0.814  -6.715  0.00  0.00    -0.030 A 
ATOM     12  C   UNL     1       0.834   0.099  -6.531  0.00  0.00    +0.005 A 
ATOM     13  C   UNL     1       0.796   1.256  -7.286  0.00  0.00    +0.003 A 
ATOM     14  C   UNL     1       1.781   1.500  -8.225  0.00  0.00    -0.050 A 
ATOM     15  C   UNL     1       2.803   0.588  -8.409  0.00  0.00    +0.003 A 
ATOM     16  C   UNL     1       2.842  -0.568  -7.650  0.00  0.00    +0.005 A 
ATOM     17  C   UNL     1       1.740   2.761  -9.049  0.00  0.00    +0.044 C 
ENDBRANCH  10  11
ENDBRANCH   1  10
BRANCH   1  18
ATOM     18  C   UNL     1       4.103  -2.064  -4.641  0.00  0.00    +0.122 C 
BRANCH  18  19
ATOM     19  C   UNL     1       4.383  -3.509  -4.224  0.00  0.00    +0.116 C 
ATOM     20  C   UNL     1       5.862  -3.772  -4.424  0.00  0.00    -0.003 C 
ATOM     21  C   UNL     1       6.579  -4.169  -3.338  0.00  0.00    -0.007 A 
ATOM     22  C   UNL     1       8.014  -4.443  -3.448  0.00  0.00    +0.013 A 
ATOM     23  C   UNL     1       8.695  -4.836  -2.345  0.00  0.00    +0.046 A 
ATOM     24  C   UNL     1       8.053  -4.984  -1.106  0.00  0.00    +0.122 A 
ATOM     25  C   UNL     1       6.707  -4.740  -0.941  0.00  0.00    +0.069 A 
ATOM     26  C   UNL     1       5.923  -4.330  -2.027  0.00  0.00    +0.044 A 
ATOM     27  N   UNL     1       4.619  -4.098  -1.855  0.00  0.00    -0.284 N 
ATOM     28  C   UNL     1       3.822  -3.708  -2.834  0.00  0.00    +0.226 C 
ATOM     29  O   UNL     1       2.642  -3.510  -2.617  0.00  0.00    -0.275 OA
ATOM     30  H   UNL     1       4.240  -4.221  -0.971  0.00  0.00    +0.155 HD
BRANCH  24  31
ATOM     31  O   UNL     1       8.782  -5.379  -0.035  0.00  0.00    -0.495 OA
ATOM     32  C   UNL     1      10.174  -5.620  -0.251  0.00  0.00    +0.277 C 
ENDBRANCH  24  31
ENDBRANCH  18  19
ENDBRANCH   1  18
TORSDOF 7
