REMARK  Name = ZINC66395034
REMARK  9 active torsions:
REMARK  status: ('A' for Active; 'I' for Inactive)
REMARK    1  A    between atoms: C_1  and  C_2
REMARK    2  A    between atoms: C_2  and  N_3
REMARK    3  A    between atoms: N_3  and  C_4
REMARK    4  A    between atoms: N_3  and  C_6
REMARK    5  A    between atoms: C_4  and  C_5
REMARK    6  A    between atoms: C_12  and  C_14
REMARK    7  A    between atoms: C_14  and  C_16
REMARK    8  A    between atoms: C_14  and  N_27
REMARK    9  A    between atoms: C_16  and  C_17
REMARK                            x       y       z     vdW  Elec       q    Type
REMARK                         _______ _______ _______ _____ _____    ______ ____
ROOT
ATOM      1  C   UNL     1       4.659  -5.264   1.411  0.00  0.00    +0.165 C 
ENDROOT
BRANCH   1   8
ATOM      2  C   UNL     1       1.038  -1.840   0.879  0.00  0.00    -0.066 C 
ATOM      3  C   UNL     1       1.716  -2.037  -0.479  0.00  0.00    +0.004 C 
ATOM      4  C   UNL     1       1.969  -3.531  -0.706  0.00  0.00    +0.106 C 
ATOM      5  N   UNL     1       2.733  -4.059   0.432  0.00  0.00    -0.300 N 
ATOM      6  C   UNL     1       2.217  -3.845   1.791  0.00  0.00    +0.106 C 
ATOM      7  C   UNL     1       1.960  -2.348   1.990  0.00  0.00    +0.004 C 
ATOM      8  C   UNL     1       3.886  -4.729   0.234  0.00  0.00    +0.236 C 
ATOM      9  O   UNL     1       4.302  -4.900  -0.893  0.00  0.00    -0.274 OA
BRANCH   2  10
ATOM     10  N   UNL     1       0.763  -0.412   1.086  0.00  0.00    +0.381 N 
ATOM     11  H   UNL     1       1.630   0.104   1.065  0.00  0.00    -0.081 HD
BRANCH  10  13
ATOM     12  C   UNL     1      -0.321   1.585   0.172  0.00  0.00    -0.017 C 
ATOM     13  C   UNL     1      -0.122   0.076   0.020  0.00  0.00    -0.082 C 
ENDBRANCH  10  13
BRANCH  10  14
ATOM     14  C   UNL     1       0.111  -0.222   2.389  0.00  0.00    -0.082 C 
ATOM     15  C   UNL     1      -1.179  -1.043   2.437  0.00  0.00    -0.017 C 
ENDBRANCH  10  14
ENDBRANCH   2  10
ENDBRANCH   1   8
BRANCH   1  16
ATOM     16  N   UNL     1       5.567  -6.322   0.960  0.00  0.00    -0.288 N 
ATOM     17  C   UNL     1       6.517  -6.048   0.044  0.00  0.00    +0.298 C 
ATOM     18  O   UNL     1       6.621  -4.924  -0.407  0.00  0.00    -0.253 OA
ATOM     19  N   UNL     1       7.353  -7.021  -0.371  0.00  0.00    -0.313 N 
ATOM     20  H   UNL     1       5.484  -7.219   1.319  0.00  0.00    +0.151 HD
ATOM     21  H   UNL     1       7.270  -7.918  -0.011  0.00  0.00    +0.146 HD
ATOM     22  H   UNL     1       8.037  -6.824  -1.030  0.00  0.00    +0.146 HD
ENDBRANCH   1  16
BRANCH   1  23
ATOM     23  C   UNL     1       5.469  -4.133   2.047  0.00  0.00    +0.069 C 
BRANCH  23  24
ATOM     24  C   UNL     1       6.144  -4.639   3.296  0.00  0.00    -0.020 A 
ATOM     25  C   UNL     1       5.680  -4.539   4.551  0.00  0.00    +0.087 A 
ATOM     26  N   UNL     1       6.565  -5.113   5.423  0.00  0.00    -0.360 N 
ATOM     27  H   UNL     1       6.446  -5.163   6.385  0.00  0.00    +0.165 HD
ATOM     28  C   UNL     1       7.648  -5.608   4.733  0.00  0.00    +0.047 A 
ATOM     29  C   UNL     1       7.429  -5.339   3.369  0.00  0.00    +0.003 A 
ATOM     30  C   UNL     1       8.372  -5.738   2.420  0.00  0.00    +0.010 A 
ATOM     31  C   UNL     1       9.503  -6.392   2.821  0.00  0.00    +0.001 A 
ATOM     32  C   UNL     1       9.722  -6.663   4.165  0.00  0.00    +0.002 A 
ATOM     33  C   UNL     1       8.808  -6.271   5.119  0.00  0.00    +0.026 A 
ENDBRANCH  23  24
ENDBRANCH   1  23
TORSDOF 7
