REMARK  Name = ZINC00143346
REMARK  6 active torsions:
REMARK  status: ('A' for Active; 'I' for Inactive)
REMARK    1  A    between atoms: C_6  and  N_7
REMARK    2  A    between atoms: N_7  and  C_8
REMARK    3  A    between atoms: C_8  and  N_10
REMARK    4  A    between atoms: N_10  and  C_11
REMARK    5  A    between atoms: C_14  and  S_17
REMARK    6  A    between atoms: S_17  and  N_20
REMARK                            x       y       z     vdW  Elec       q    Type
REMARK                         _______ _______ _______ _____ _____    ______ ____
ROOT
ATOM      1  N   UNL     1      -0.077   1.082   0.394  0.00  0.00    -0.297 N 
ATOM      2  H   UNL     1       0.089   0.128   0.455  0.00  0.00    +0.154 HD
ENDROOT
BRANCH   1   3
ATOM      3  C   UNL     1       0.934   1.990   0.727  0.00  0.00    +0.033 A 
ATOM      4  C   UNL     1       1.196   3.074  -0.101  0.00  0.00    +0.025 A 
ATOM      5  C   UNL     1       2.191   3.971   0.234  0.00  0.00    +0.030 A 
ATOM      6  C   UNL     1       2.934   3.785   1.384  0.00  0.00    +0.105 A 
ATOM      7  C   UNL     1       2.681   2.703   2.207  0.00  0.00    +0.030 A 
ATOM      8  C   UNL     1       1.683   1.805   1.882  0.00  0.00    +0.025 A 
BRANCH   6   9
ATOM      9  S   UNL     1       4.207   4.929   1.804  0.00  0.00    +0.056 S 
ATOM     10  O   UNL     1       3.883   6.152   1.158  0.00  0.00    -0.153 OA
ATOM     11  O   UNL     1       4.391   4.834   3.210  0.00  0.00    -0.153 OA
BRANCH   9  12
ATOM     12  N   UNL     1       5.606   4.382   1.106  0.00  0.00    -0.204 NA
ATOM     13  H   UNL     1       6.290   5.013   0.832  0.00  0.00    +0.144 HD
ATOM     14  H   UNL     1       5.741   3.431   0.971  0.00  0.00    +0.144 HD
ENDBRANCH   9  12
ENDBRANCH   6   9
ENDBRANCH   1   3
BRANCH   1  15
ATOM     15  C   UNL     1      -1.278   1.532  -0.017  0.00  0.00    +0.139 C 
ATOM     16  S   UNL     1      -1.536   3.211  -0.229  0.00  0.00    -0.018 S 
BRANCH  15  17
ATOM     17  N   UNL     1      -2.277   0.661  -0.261  0.00  0.00    -0.297 N 
ATOM     18  H   UNL     1      -2.151  -0.284  -0.082  0.00  0.00    +0.154 HD
BRANCH  17  24
ATOM     19  C   UNL     1      -4.098   2.248  -0.229  0.00  0.00    +0.026 A 
ATOM     20  C   UNL     1      -5.299   2.703  -0.739  0.00  0.00    +0.040 A 
ATOM     21  C   UNL     1      -5.909   2.027  -1.783  0.00  0.00    +0.124 A 
ATOM     22  C   UNL     1      -5.314   0.899  -2.322  0.00  0.00    +0.040 A 
ATOM     23  C   UNL     1      -4.111   0.445  -1.819  0.00  0.00    +0.026 A 
ATOM     24  C   UNL     1      -3.497   1.120  -0.772  0.00  0.00    +0.033 A 
ATOM     25  F   UNL     1      -7.086   2.470  -2.276  0.00  0.00    -0.205 F 
ENDBRANCH  17  24
ENDBRANCH  15  17
ENDBRANCH   1  15
TORSDOF 6
