REMARK  Name = ZINC62843866
REMARK  6 active torsions:
REMARK  status: ('A' for Active; 'I' for Inactive)
REMARK    1  A    between atoms: C_1  and  C_2
REMARK    2  A    between atoms: C_2  and  C_17
REMARK    3  A    between atoms: N_10  and  C_11
REMARK    4  A    between atoms: C_11  and  C_12
REMARK    5  A    between atoms: C_11  and  C_13
REMARK    6  A    between atoms: C_11  and  C_14
REMARK                            x       y       z     vdW  Elec       q    Type
REMARK                         _______ _______ _______ _____ _____    ______ ____
ROOT
ATOM      1  C   UNL     1      -0.021   1.521   0.012  0.00  0.00    +0.023 C 
ATOM      2  C   UNL     1       0.001  -0.009  -0.003  0.00  0.00    +0.072 C 
ATOM      3  C   UNL     1       0.719  -0.496  -1.263  0.00  0.00    +0.037 C 
ATOM      4  C   UNL     1       2.144   0.066  -1.283  0.00  0.00    +0.110 C 
ATOM      5  N   UNL     1       2.814  -0.300  -0.028  0.00  0.00    -0.286 N 
ATOM      6  C   UNL     1       2.164   0.041   1.245  0.00  0.00    +0.110 C 
ATOM      7  C   UNL     1       0.739  -0.520   1.237  0.00  0.00    +0.037 C 
ATOM      8  C   UNL     1       4.002  -0.936  -0.044  0.00  0.00    +0.303 C 
ATOM      9  O   UNL     1       4.484  -1.298  -1.099  0.00  0.00    -0.253 OA
ATOM     10  N   UNL     1       4.656  -1.171   1.111  0.00  0.00    -0.286 N 
ATOM     11  H   UNL     1       4.240  -0.947   1.958  0.00  0.00    +0.151 HD
ENDROOT
BRANCH  10  12
ATOM     12  C   UNL     1       5.995  -1.765   1.087  0.00  0.00    +0.106 C 
ATOM     13  C   UNL     1       5.932  -3.137   0.412  0.00  0.00    +0.041 C 
ATOM     14  C   UNL     1       6.943  -0.854   0.305  0.00  0.00    +0.041 C 
BRANCH  12  15
ATOM     15  C   UNL     1       6.500  -1.923   2.498  0.00  0.00    +0.233 C 
ATOM     16  O   UNL     1       7.192  -2.875   2.792  0.00  0.00    -0.274 OA
ATOM     17  N   UNL     1       6.183  -1.006   3.434  0.00  0.00    -0.328 N 
ATOM     18  H   UNL     1       5.630  -0.244   3.199  0.00  0.00    +0.145 HD
ATOM     19  H   UNL     1       6.508  -1.107   4.342  0.00  0.00    +0.145 HD
ENDBRANCH  12  15
ENDBRANCH  10  12
BRANCH   2  20
ATOM     20  C   UNL     1      -1.412  -0.532   0.003  0.00  0.00    +0.362 C 
ATOM     21  O   UNL     1      -2.175  -0.239  -0.902  0.00  0.00    -0.246 OA
ATOM     22  O   UNL     1      -1.794  -1.247   0.914  0.00  0.00    -0.246 OA
ENDBRANCH   2  20
TORSDOF 3
