REMARK  Name = ZINC64020220
REMARK  3 active torsions:
REMARK  status: ('A' for Active; 'I' for Inactive)
REMARK    1  A    between atoms: C_8  and  C_16
REMARK    2  A    between atoms: N_20  and  C_23
REMARK    3  A    between atoms: C_26  and  C_29
REMARK                            x       y       z     vdW  Elec       q    Type
REMARK                         _______ _______ _______ _____ _____    ______ ____
ROOT
ATOM      1  C   UNL     1       5.384  -2.566  -0.669  0.00  0.00    +0.101 A 
ATOM      2  C   UNL     1       6.005  -2.661  -1.880  0.00  0.00    +0.263 A 
ATOM      3  N   UNL     1       7.099  -3.477  -2.015  0.00  0.00    -0.274 N 
ATOM      4  C   UNL     1       7.559  -4.180  -0.964  0.00  0.00    +0.337 A 
ATOM      5  N   UNL     1       6.960  -4.100   0.238  0.00  0.00    -0.229 N 
ATOM      6  C   UNL     1       5.886  -3.306   0.415  0.00  0.00    +0.270 A 
ATOM      7  O   UNL     1       5.350  -3.233   1.508  0.00  0.00    -0.267 OA
ATOM      8  O   UNL     1       8.530  -4.899  -1.103  0.00  0.00    -0.246 OA
ATOM      9  O   UNL     1       5.546  -1.958  -2.937  0.00  0.00    -0.267 OA
ATOM     10  H   UNL     1       7.545  -3.548  -2.874  0.00  0.00    +0.173 HD
ENDROOT
BRANCH   1  17
ATOM     11  C   UNL     1       3.190   3.911   0.290  0.00  0.00    +0.001 A 
ATOM     12  C   UNL     1       4.490   4.010  -0.224  0.00  0.00    +0.002 A 
ATOM     13  C   UNL     1       5.291   2.936  -0.388  0.00  0.00    +0.026 A 
ATOM     14  C   UNL     1       4.835   1.637  -0.037  0.00  0.00    +0.043 A 
ATOM     15  N   UNL     1       5.408   0.457  -0.126  0.00  0.00    -0.376 N 
ATOM     16  C   UNL     1       4.517  -0.535   0.468  0.00  0.00    +0.128 C 
ATOM     17  C   UNL     1       4.180  -1.676  -0.496  0.00  0.00    +0.121 C 
ATOM     18  N   UNL     1       3.068  -2.451   0.075  0.00  0.00    -0.307 NA
ATOM     19  C   UNL     1       1.810  -1.700   0.135  0.00  0.00    +0.086 C 
ATOM     20  C   UNL     1       1.947  -0.519   1.114  0.00  0.00    +0.048 C 
ATOM     21  C   UNL     1       3.222   0.209   0.753  0.00  0.00    -0.035 C 
ATOM     22  C   UNL     1       3.459   1.502   0.502  0.00  0.00    -0.001 A 
ATOM     23  C   UNL     1       2.656   2.723   0.652  0.00  0.00    +0.010 A 
ATOM     24  H   UNL     1       2.945  -3.324  -0.416  0.00  0.00    +0.123 HD
ATOM     25  H   UNL     1       6.276   0.276  -0.519  0.00  0.00    +0.160 HD
ENDBRANCH   1  17
BRANCH   5  26
ATOM     26  C   UNL     1       7.459  -4.841   1.312  0.00  0.00    +0.054 A 
ATOM     27  C   UNL     1       8.429  -4.290   2.143  0.00  0.00    +0.027 A 
ATOM     28  C   UNL     1       8.923  -5.017   3.203  0.00  0.00    +0.017 A 
ATOM     29  C   UNL     1       8.448  -6.311   3.442  0.00  0.00    +0.063 A 
ATOM     30  C   UNL     1       7.473  -6.861   2.603  0.00  0.00    +0.017 A 
ATOM     31  C   UNL     1       6.980  -6.125   1.550  0.00  0.00    +0.027 A 
BRANCH  29  32
ATOM     32  C   UNL     1       8.974  -7.093   4.574  0.00  0.00    +0.387 C 
ATOM     33  O   UNL     1       9.828  -6.611   5.306  0.00  0.00    -0.241 OA
ATOM     34  O   UNL     1       8.558  -8.225   4.782  0.00  0.00    -0.241 OA
ENDBRANCH  29  32
ENDBRANCH   5  26
TORSDOF 3
