REMARK  Name = ZINC10226355
REMARK  7 active torsions:
REMARK  status: ('A' for Active; 'I' for Inactive)
REMARK    1  A    between atoms: C_1  and  C_2
REMARK    2  A    between atoms: C_2  and  C_3
REMARK    3  A    between atoms: C_2  and  N_4
REMARK    4  A    between atoms: C_9  and  C_18
REMARK    5  A    between atoms: C_11  and  C_13
REMARK    6  A    between atoms: N_20  and  C_21
REMARK    7  A    between atoms: C_24  and  N_28
REMARK                            x       y       z     vdW  Elec       q    Type
REMARK                         _______ _______ _______ _____ _____    ______ ____
ROOT
ATOM      1  N   UNL     1      -1.155   1.590   0.982  0.00  0.00    -0.244 N 
ATOM      2  C   UNL     1      -1.528   0.798   2.038  0.00  0.00    +0.160 A 
ATOM      3  C   UNL     1      -2.093   1.661   2.999  0.00  0.00    +0.051 A 
ATOM      4  C   UNL     1      -2.036   2.967   2.470  0.00  0.00    +0.145 A 
ATOM      5  N   UNL     1      -1.481   2.915   1.293  0.00  0.00    -0.177 NA
ATOM      6  C   UNL     1      -2.575   1.118   4.214  0.00  0.00    +0.051 A 
ATOM      7  C   UNL     1      -2.466  -0.254   4.403  0.00  0.00    +0.045 A 
ATOM      8  C   UNL     1      -1.891  -1.041   3.397  0.00  0.00    +0.109 A 
ATOM      9  N   UNL     1      -1.448  -0.503   2.270  0.00  0.00    -0.224 NA
ENDROOT
BRANCH   8  10
ATOM     10  C   UNL     1      -1.775  -2.498   3.597  0.00  0.00    +0.153 A 
ATOM     11  C   UNL     1      -1.246  -3.386   2.711  0.00  0.00    +0.051 A 
ATOM     12  C   UNL     1      -1.334  -4.657   3.310  0.00  0.00    +0.042 A 
ATOM     13  C   UNL     1      -1.914  -4.487   4.516  0.00  0.00    +0.196 A 
ATOM     14  O   UNL     1      -2.179  -3.182   4.685  0.00  0.00    -0.461 OA
ENDBRANCH   8  10
BRANCH   6  15
ATOM     15  C   UNL     1      -3.175   1.984   5.250  0.00  0.00    +0.249 C 
ATOM     16  O   UNL     1      -3.260   3.183   5.066  0.00  0.00    -0.270 OA
ATOM     17  N   UNL     1      -3.627   1.446   6.400  0.00  0.00    -0.281 N 
ATOM     18  H   UNL     1      -3.630   0.483   6.517  0.00  0.00    +0.155 HD
BRANCH  17  19
ATOM     19  C   UNL     1      -4.094   2.276   7.427  0.00  0.00    +0.037 A 
ATOM     20  C   UNL     1      -3.517   3.524   7.627  0.00  0.00    +0.045 A 
ATOM     21  C   UNL     1      -3.981   4.346   8.636  0.00  0.00    +0.065 A 
ATOM     22  C   UNL     1      -5.016   3.920   9.458  0.00  0.00    +0.062 A 
ATOM     23  C   UNL     1      -5.590   2.669   9.261  0.00  0.00    +0.065 A 
ATOM     24  C   UNL     1      -5.130   1.850   8.248  0.00  0.00    +0.045 A 
ATOM     25 CL   UNL     1      -6.884   2.136  10.287  0.00  0.00    -0.082 Cl
ATOM     26 CL   UNL     1      -3.264   5.908   8.881  0.00  0.00    -0.082 Cl
BRANCH  22  27
ATOM     27  N   UNL     1      -5.483   4.750  10.484  0.00  0.00    -0.356 N 
ATOM     28  H   UNL     1      -6.207   4.453  11.058  0.00  0.00    +0.142 HD
ATOM     29  H   UNL     1      -5.083   5.623  10.622  0.00  0.00    +0.142 HD
ENDBRANCH  22  27
ENDBRANCH  17  19
ENDBRANCH   6  15
BRANCH   1  31
ATOM     30  C   UNL     1       0.842   1.807  -0.413  0.00  0.00    +0.032 C 
ATOM     31  C   UNL     1      -0.520   1.129  -0.256  0.00  0.00    +0.103 C 
ATOM     32  C   UNL     1      -1.409   1.486  -1.449  0.00  0.00    +0.032 C 
ENDBRANCH   1  31
TORSDOF 5
