REMARK  Name = ZINC06284090
REMARK  9 active torsions:
REMARK  status: ('A' for Active; 'I' for Inactive)
REMARK    1  A    between atoms: C_1  and  C_2
REMARK    2  A    between atoms: C_2  and  C_3
REMARK    3  A    between atoms: C_6  and  C_8
REMARK    4  A    between atoms: C_10  and  C_33
REMARK    5  A    between atoms: C_11  and  N_32
REMARK    6  A    between atoms: N_12  and  C_22
REMARK    7  A    between atoms: C_18  and  C_20
REMARK    8  A    between atoms: C_18  and  C_21
REMARK    9  A    between atoms: C_27  and  C_28
REMARK                            x       y       z     vdW  Elec       q    Type
REMARK                         _______ _______ _______ _____ _____    ______ ____
ROOT
ATOM      1  C   UNL     1      -3.700   1.646   0.038  0.00  0.00    +0.104 C 
ATOM      2  C   UNL     1      -2.377   0.941   0.018  0.00  0.00    +0.077 C 
ATOM      3  C   UNL     1      -1.210   1.637   0.017  0.00  0.00    +0.107 C 
ATOM      4  N   UNL     1      -1.228   3.013   0.030  0.00  0.00    -0.260 N 
ATOM      5  C   UNL     1      -2.351   3.698  -0.360  0.00  0.00    +0.025 C 
ATOM      6  C   UNL     1      -3.555   3.088  -0.379  0.00  0.00    +0.026 C 
ATOM      7  C   UNL     1      -4.710   3.778  -0.789  0.00  0.00    +0.162 C 
ATOM      8  O   UNL     1      -5.781   3.203  -0.784  0.00  0.00    -0.292 OA
ATOM      9  C   UNL     1      -4.645   5.213  -1.234  0.00  0.00    +0.086 C 
ATOM     10  C   UNL     1      -3.257   5.491  -1.821  0.00  0.00    -0.023 C 
ATOM     11  C   UNL     1      -2.205   5.144  -0.764  0.00  0.00    +0.058 C 
ATOM     12  C   UNL     1      -3.042   4.625  -3.064  0.00  0.00    +0.011 C 
ATOM     13  C   UNL     1      -3.145   6.969  -2.199  0.00  0.00    +0.011 C 
ENDROOT
BRANCH   4  14
ATOM     14  C   UNL     1      -0.090   3.718   0.440  0.00  0.00    +0.051 A 
ATOM     15  C   UNL     1       0.875   4.084  -0.490  0.00  0.00    +0.024 A 
ATOM     16  C   UNL     1       1.996   4.779  -0.083  0.00  0.00    +0.002 A 
ATOM     17  C   UNL     1       2.159   5.111   1.250  0.00  0.00    +0.001 A 
ATOM     18  C   UNL     1       1.201   4.748   2.179  0.00  0.00    +0.014 A 
ATOM     19  C   UNL     1       0.074   4.057   1.776  0.00  0.00    +0.076 A 
BRANCH  19  20
ATOM     20  C   UNL     1      -0.972   3.667   2.788  0.00  0.00    +0.419 C 
ATOM     21  F   UNL     1      -0.586   4.116   4.055  0.00  0.00    -0.166 F 
ATOM     22  F   UNL     1      -2.196   4.248   2.440  0.00  0.00    -0.166 F 
ATOM     23  F   UNL     1      -1.106   2.275   2.807  0.00  0.00    -0.166 F 
ENDBRANCH  19  20
ENDBRANCH   4  14
BRANCH   1  27
ATOM     24  C   UNL     1      -4.899   1.721   4.051  0.00  0.00    -0.010 A 
ATOM     25  C   UNL     1      -5.758   1.111   3.199  0.00  0.00    +0.011 A 
ATOM     26  C   UNL     1      -5.439   1.049   1.855  0.00  0.00    +0.012 A 
ATOM     27  C   UNL     1      -4.270   1.590   1.432  0.00  0.00    +0.003 A 
ATOM     28  S   UNL     1      -3.585   2.226   2.953  0.00  0.00    -0.097 S 
BRANCH  24  30
ATOM     29  C   UNL     1      -4.391   0.731   6.267  0.00  0.00    +0.009 C 
ATOM     30  C   UNL     1      -5.020   1.921   5.540  0.00  0.00    +0.039 C 
ENDBRANCH  24  30
ENDBRANCH   1  27
BRANCH   3  31
ATOM     31  N   UNL     1      -0.011   0.966   0.007  0.00  0.00    -0.345 N 
ATOM     32  H   UNL     1       0.002  -0.004   0.002  0.00  0.00    +0.144 HD
ATOM     33  H   UNL     1       0.822   1.462   0.002  0.00  0.00    +0.144 HD
ENDBRANCH   3  31
BRANCH   2  34
ATOM     34  C   UNL     1      -2.342  -0.491   0.002  0.00  0.00    +0.099 C 
ATOM     35  N   UNL     1      -2.315  -1.627  -0.011  0.00  0.00    -0.191 NA
ENDBRANCH   2  34
TORSDOF 6
