REMARK  Name = ZINC21626379
REMARK  9 active torsions:
REMARK  status: ('A' for Active; 'I' for Inactive)
REMARK    1  A    between atoms: C_1  and  C_2
REMARK    2  A    between atoms: C_6  and  N_9
REMARK    3  A    between atoms: C_7  and  C_8
REMARK    4  A    between atoms: C_22  and  S_23
REMARK    5  A    between atoms: S_23  and  C_24
REMARK    6  A    between atoms: C_24  and  C_25
REMARK    7  A    between atoms: N_27  and  C_28
REMARK    8  A    between atoms: C_29  and  C_35
REMARK    9  A    between atoms: C_33  and  C_34
REMARK                            x       y       z     vdW  Elec       q    Type
REMARK                         _______ _______ _______ _____ _____    ______ ____
ROOT
ATOM      1  N   UNL     1      -7.156   3.084  -2.394  0.00  0.00    -0.245 N 
ATOM      2  C   UNL     1      -7.586   2.208  -3.325  0.00  0.00    +0.268 A 
ATOM      3  O   UNL     1      -8.722   2.271  -3.755  0.00  0.00    -0.267 OA
ATOM      4  C   UNL     1      -6.661   1.166  -3.807  0.00  0.00    +0.064 A 
ATOM      5  C   UNL     1      -7.057   0.232  -4.762  0.00  0.00    +0.015 A 
ATOM      6  C   UNL     1      -6.163  -0.728  -5.189  0.00  0.00    +0.001 A 
ATOM      7  C   UNL     1      -4.877  -0.766  -4.673  0.00  0.00    +0.002 A 
ATOM      8  C   UNL     1      -4.473   0.154  -3.726  0.00  0.00    +0.027 A 
ATOM      9  C   UNL     1      -5.358   1.127  -3.285  0.00  0.00    +0.064 A 
ATOM     10  N   UNL     1      -4.981   2.066  -2.334  0.00  0.00    -0.255 N 
ATOM     11  C   UNL     1      -5.862   3.023  -1.901  0.00  0.00    +0.245 A 
ATOM     12  N   UNL     1      -5.224   3.757  -1.022  0.00  0.00    -0.109 NA
ATOM     13  N   UNL     1      -4.022   3.327  -0.875  0.00  0.00    -0.120 NA
ATOM     14  C   UNL     1      -3.816   2.290  -1.651  0.00  0.00    +0.198 A 
ENDROOT
BRANCH   1  20
ATOM     15  C   UNL     1     -10.551   4.568   0.839  0.00  0.00    +0.044 C 
ATOM     16  C   UNL     1      -9.681   4.825  -0.365  0.00  0.00    -0.046 A 
ATOM     17  C   UNL     1      -9.741   6.046  -1.012  0.00  0.00    +0.004 A 
ATOM     18  C   UNL     1      -8.945   6.286  -2.117  0.00  0.00    +0.002 A 
ATOM     19  C   UNL     1      -8.083   5.308  -2.574  0.00  0.00    +0.026 A 
ATOM     20  C   UNL     1      -8.024   4.079  -1.930  0.00  0.00    +0.056 A 
ATOM     21  C   UNL     1      -8.825   3.842  -0.820  0.00  0.00    -0.024 A 
ATOM     22  C   UNL     1      -8.761   2.512  -0.114  0.00  0.00    +0.046 C 
ENDBRANCH   1  20
BRANCH  14  23
ATOM     23  S   UNL     1      -2.322   1.367  -1.794  0.00  0.00    -0.076 S 
BRANCH  23  24
ATOM     24  C   UNL     1      -1.189   2.184  -0.637  0.00  0.00    +0.173 C 
BRANCH  24  25
ATOM     25  C   UNL     1       0.145   1.483  -0.661  0.00  0.00    +0.228 C 
ATOM     26  O   UNL     1       0.315   0.526  -1.387  0.00  0.00    -0.275 OA
ATOM     27  N   UNL     1       1.152   1.923   0.120  0.00  0.00    -0.284 N 
ATOM     28  H   UNL     1       1.017   2.826   0.734  0.00  0.00    +0.155 HD
BRANCH  27  29
ATOM     29  C   UNL     1       2.367   1.231   0.151  0.00  0.00    +0.039 A 
ATOM     30  C   UNL     1       2.384  -0.135   0.402  0.00  0.00    -0.029 A 
ATOM     31  C   UNL     1       3.586  -0.816   0.425  0.00  0.00    +0.005 A 
ATOM     32  C   UNL     1       4.771  -0.138   0.211  0.00  0.00    +0.001 A 
ATOM     33  C   UNL     1       4.758   1.224  -0.033  0.00  0.00    +0.005 A 
ATOM     34  C   UNL     1       3.560   1.909  -0.064  0.00  0.00    -0.029 A 
ATOM     35  C   UNL     1       3.546   3.393  -0.331  0.00  0.00    +0.045 C 
ATOM     36  C   UNL     1       1.093  -0.874   0.642  0.00  0.00    +0.045 C 
ENDBRANCH  27  29
ENDBRANCH  24  25
ENDBRANCH  23  24
ENDBRANCH  14  23
TORSDOF 5
