REMARK  Name = ZINC31091275
REMARK  4 active torsions:
REMARK  status: ('A' for Active; 'I' for Inactive)
REMARK    1  A    between atoms: C_1  and  C_2
REMARK    2  A    between atoms: C_7  and  N_8
REMARK    3  A    between atoms: N_11  and  N_12
REMARK    4  A    between atoms: N_15  and  C_16
REMARK                            x       y       z     vdW  Elec       q    Type
REMARK                         _______ _______ _______ _____ _____    ______ ____
ROOT
ATOM      1  N   UNL     1      -3.676   7.273  -0.109  0.00  0.00    -0.217 N 
ATOM      2  C   UNL     1      -3.660   5.929  -0.005  0.00  0.00    +0.320 C 
ATOM      3  O   UNL     1      -4.705   5.308   0.004  0.00  0.00    -0.251 OA
ATOM      4  N   UNL     1      -2.486   5.274   0.088  0.00  0.00    -0.268 N 
ATOM      5  H   UNL     1      -4.634   7.808  -0.186  0.00  0.00    +0.174 HD
ATOM      6  H   UNL     1      -1.545   5.839   0.155  0.00  0.00    +0.156 HD
ENDROOT
BRANCH   4   7
ATOM      7  C   UNL     1      -2.465   3.878   0.101  0.00  0.00    +0.043 A 
ATOM      8  C   UNL     1      -3.480   3.172   0.709  0.00  0.00    +0.024 A 
ATOM      9  C   UNL     1      -3.469   1.781   0.727  0.00  0.00    +0.002 A 
ATOM     10  C   UNL     1      -2.462   1.079   0.137  0.00  0.00    +0.008 A 
ATOM     11  C   UNL     1      -1.413   1.760  -0.503  0.00  0.00    -0.016 A 
ATOM     12  C   UNL     1      -1.411   3.177  -0.523  0.00  0.00    +0.003 A 
ATOM     13  C   UNL     1      -0.366   3.856  -1.169  0.00  0.00    +0.010 A 
ATOM     14  C   UNL     1       0.634   3.146  -1.761  0.00  0.00    +0.001 A 
ATOM     15  C   UNL     1       0.636   1.753  -1.737  0.00  0.00    +0.001 A 
ATOM     16  C   UNL     1      -0.361   1.061  -1.121  0.00  0.00    +0.008 A 
ENDBRANCH   4   7
BRANCH   1  20
ATOM     17  N   UNL     1      -3.661   9.987  -0.317  0.00  0.00    -0.268 N 
ATOM     18  C   UNL     1      -2.487   9.332  -0.224  0.00  0.00    +0.320 C 
ATOM     19  O   UNL     1      -1.442   9.953  -0.233  0.00  0.00    -0.251 OA
ATOM     20  N   UNL     1      -2.471   7.989  -0.120  0.00  0.00    -0.217 N 
ATOM     21  H   UNL     1      -4.608   9.434  -0.234  0.00  0.00    +0.156 HD
ATOM     22  H   UNL     1      -1.513   7.454  -0.043  0.00  0.00    +0.174 HD
BRANCH  17  29
ATOM     23  C   UNL     1      -5.746  11.091  -1.908  0.00  0.00    +0.045 C 
ATOM     24  C   UNL     1      -4.675  11.952  -1.290  0.00  0.00    -0.029 A 
ATOM     25  C   UNL     1      -4.686  13.319  -1.488  0.00  0.00    +0.005 A 
ATOM     26  C   UNL     1      -3.704  14.110  -0.921  0.00  0.00    +0.000 A 
ATOM     27  C   UNL     1      -2.707  13.535  -0.153  0.00  0.00    +0.002 A 
ATOM     28  C   UNL     1      -2.693  12.170   0.053  0.00  0.00    +0.023 A 
ATOM     29  C   UNL     1      -3.675  11.372  -0.520  0.00  0.00    +0.038 A 
ENDBRANCH  17  29
ENDBRANCH   1  20
TORSDOF 3
