REMARK  Name = ZINC02764767
REMARK  6 active torsions:
REMARK  status: ('A' for Active; 'I' for Inactive)
REMARK    1  A    between atoms: C_1  and  C_2
REMARK    2  A    between atoms: C_3  and  C_17
REMARK    3  A    between atoms: C_4  and  C_14
REMARK    4  A    between atoms: C_5  and  N_7
REMARK    5  A    between atoms: C_8  and  C_10
REMARK    6  A    between atoms: C_11  and  C_12
REMARK                            x       y       z     vdW  Elec       q    Type
REMARK                         _______ _______ _______ _____ _____    ______ ____
ROOT
ATOM      1  C   UNL     1      -4.029   3.451   2.256  0.00  0.00    +0.052 C 
ATOM      2  C   UNL     1      -3.132   2.954   1.151  0.00  0.00    -0.003 A 
ATOM      3  C   UNL     1      -1.950   2.293   1.258  0.00  0.00    +0.006 A 
ATOM      4  C   UNL     1      -1.293   1.928   0.019  0.00  0.00    +0.073 A 
ATOM      5  C   UNL     1      -1.931   2.295  -1.159  0.00  0.00    +0.085 A 
ATOM      6  S   UNL     1      -3.367   3.090  -0.608  0.00  0.00    -0.077 S 
ENDROOT
BRANCH   3   7
ATOM      7  C   UNL     1      -1.362   1.960   2.578  0.00  0.00    -0.016 A 
ATOM      8  C   UNL     1      -1.226   0.629   2.968  0.00  0.00    +0.008 A 
ATOM      9  C   UNL     1      -0.673   0.325   4.196  0.00  0.00    +0.001 A 
ATOM     10  C   UNL     1      -0.264   1.340   5.042  0.00  0.00    +0.000 A 
ATOM     11  C   UNL     1      -0.400   2.663   4.662  0.00  0.00    +0.001 A 
ATOM     12  C   UNL     1      -0.947   2.978   3.435  0.00  0.00    +0.008 A 
ENDBRANCH   3   7
BRANCH   4  13
ATOM     13  C   UNL     1      -0.014   1.213   0.009  0.00  0.00    +0.244 C 
ATOM     14  O   UNL     1       0.002  -0.004   0.002  0.00  0.00    -0.270 OA
ATOM     15  N   UNL     1       1.143   1.903   0.001  0.00  0.00    -0.325 N 
ATOM     16  H   UNL     1       1.990   1.429  -0.009  0.00  0.00    +0.145 HD
ATOM     17  H   UNL     1       1.130   2.873   0.007  0.00  0.00    +0.145 HD
ENDBRANCH   4  13
BRANCH   5  18
ATOM     18  N   UNL     1      -1.518   2.076  -2.461  0.00  0.00    -0.276 N 
ATOM     19  C   UNL     1      -2.275   2.508  -3.489  0.00  0.00    +0.242 C 
ATOM     20  O   UNL     1      -3.320   3.090  -3.273  0.00  0.00    -0.270 OA
ATOM     21  H   UNL     1      -0.685   1.611  -2.634  0.00  0.00    +0.156 HD
BRANCH  19  22
ATOM     22  C   UNL     1      -1.835   2.274  -4.878  0.00  0.00    +0.075 C 
ATOM     23  C   UNL     1      -2.589   2.704  -5.903  0.00  0.00    +0.101 C 
BRANCH  23  24
ATOM     24  C   UNL     1      -2.150   2.470  -7.291  0.00  0.00    +0.380 C 
ATOM     25  O   UNL     1      -1.106   1.889  -7.508  0.00  0.00    -0.241 OA
ATOM     26  O   UNL     1      -2.906   2.902  -8.319  0.00  0.00    -0.241 OA
ENDBRANCH  23  24
ENDBRANCH  19  22
ENDBRANCH   5  18
TORSDOF 5
