REMARK  Name = ZINC05205950
REMARK  7 active torsions:
REMARK  status: ('A' for Active; 'I' for Inactive)
REMARK    1  A    between atoms: C_1  and  C_2
REMARK    2  A    between atoms: C_2  and  C_3
REMARK    3  A    between atoms: C_3  and  C_4
REMARK    4  A    between atoms: C_4  and  C_5
REMARK    5  A    between atoms: C_8  and  C_11
REMARK    6  A    between atoms: N_13  and  N_14
REMARK    7  A    between atoms: C_24  and  C_25
REMARK                            x       y       z     vdW  Elec       q    Type
REMARK                         _______ _______ _______ _____ _____    ______ ____
ROOT
ATOM      1  N   UNL     1      -0.058   4.159   0.026  0.00  0.00    -0.204 N 
ATOM      2  C   UNL     1       1.161   3.572   0.011  0.00  0.00    +0.279 A 
ATOM      3  O   UNL     1       2.182   4.235   0.005  0.00  0.00    -0.265 OA
ATOM      4  C   UNL     1       1.207   2.103   0.002  0.00  0.00    +0.066 A 
ATOM      5  C   UNL     1       2.414   1.405  -0.014  0.00  0.00    +0.015 A 
ATOM      6  C   UNL     1       2.399   0.028  -0.021  0.00  0.00    +0.001 A 
ATOM      7  C   UNL     1       1.196  -0.667  -0.013  0.00  0.00    +0.002 A 
ATOM      8  C   UNL     1       0.002  -0.004   0.002  0.00  0.00    +0.028 A 
ATOM      9  C   UNL     1      -0.017   1.394   0.010  0.00  0.00    +0.079 A 
ATOM     10  N   UNL     1      -1.175   2.082   0.030  0.00  0.00    -0.227 NA
ATOM     11  C   UNL     1      -1.196   3.395   0.032  0.00  0.00    +0.168 A 
ENDROOT
BRANCH  11  12
ATOM     12  C   UNL     1      -2.497   4.074   0.048  0.00  0.00    +0.056 A 
ATOM     13  C   UNL     1      -3.768   3.526   0.057  0.00  0.00    +0.019 A 
ATOM     14  C   UNL     1      -4.827   4.401   0.072  0.00  0.00    +0.008 A 
ATOM     15  C   UNL     1      -4.583   5.737   0.077  0.00  0.00    +0.046 A 
ATOM     16  S   UNL     1      -2.852   5.822   0.069  0.00  0.00    -0.094 S 
ENDBRANCH  11  12
BRANCH   1  19
ATOM     17  C   UNL     1       0.085   6.257  -1.091  0.00  0.00    +0.262 C 
ATOM     18  O   UNL     1       0.390   5.676  -2.114  0.00  0.00    -0.268 OA
ATOM     19  N   UNL     1      -0.158   5.557   0.035  0.00  0.00    -0.214 N 
ATOM     20  H   UNL     1      -0.401   6.021   0.851  0.00  0.00    +0.176 HD
BRANCH  17  24
ATOM     21  C   UNL     1      -0.218  10.494  -1.065  0.00  0.00    -0.047 A 
ATOM     22  C   UNL     1       0.130   9.835  -2.231  0.00  0.00    +0.004 A 
ATOM     23  C   UNL     1       0.230   8.459  -2.246  0.00  0.00    +0.013 A 
ATOM     24  C   UNL     1      -0.020   7.731  -1.082  0.00  0.00    +0.038 A 
ATOM     25  C   UNL     1      -0.376   8.401   0.090  0.00  0.00    +0.013 A 
ATOM     26  C   UNL     1      -0.467   9.778   0.093  0.00  0.00    +0.004 A 
BRANCH  21  27
ATOM     27  C   UNL     1      -0.324  11.997  -1.055  0.00  0.00    +0.035 C 
BRANCH  27  28
ATOM     28  C   UNL     1      -1.754  12.409  -1.412  0.00  0.00    +0.004 C 
BRANCH  28  30
ATOM     29  C   UNL     1      -3.292  14.347  -1.760  0.00  0.00    +0.004 C 
ATOM     30  C   UNL     1      -1.862  13.935  -1.402  0.00  0.00    -0.003 C 
ENDBRANCH  28  30
ENDBRANCH  27  28
ENDBRANCH  21  27
ENDBRANCH  17  24
ENDBRANCH   1  19
TORSDOF 6
