REMARK  Name = ZINC61499710
REMARK  10 active torsions:
REMARK  status: ('A' for Active; 'I' for Inactive)
REMARK    1  A    between atoms: C_1  and  C_2
REMARK    2  A    between atoms: N_6  and  C_8
REMARK    3  A    between atoms: C_8  and  C_9
REMARK    4  A    between atoms: C_9  and  C_10
REMARK    5  A    between atoms: C_10  and  N_11
REMARK    6  A    between atoms: N_14  and  C_15
REMARK    7  A    between atoms: C_15  and  C_16
REMARK    8  A    between atoms: C_15  and  C_17
REMARK    9  A    between atoms: C_21  and  S_23
REMARK   10  A    between atoms: S_23  and  N_26
REMARK                            x       y       z     vdW  Elec       q    Type
REMARK                         _______ _______ _______ _____ _____    ______ ____
ROOT
ATOM      1  N   UNL     1       2.612  -5.942   3.434  0.00  0.00    -0.299 N 
ATOM      2  C   UNL     1       3.290  -6.608   4.390  0.00  0.00    +0.300 C 
ATOM      3  O   UNL     1       3.796  -5.998   5.313  0.00  0.00    -0.253 OA
ATOM      4  N   UNL     1       3.409  -7.949   4.322  0.00  0.00    -0.293 N 
ATOM      5  H   UNL     1       2.209  -6.428   2.698  0.00  0.00    +0.150 HD
ATOM      6  H   UNL     1       3.006  -8.434   3.586  0.00  0.00    +0.151 HD
ENDROOT
BRANCH   4   7
ATOM      7  C   UNL     1       4.146  -8.672   5.361  0.00  0.00    +0.102 C 
ATOM      8  C   UNL     1       5.638  -8.670   5.022  0.00  0.00    +0.033 C 
BRANCH   7   9
ATOM      9  C   UNL     1       3.649 -10.093   5.433  0.00  0.00    -0.026 A 
ATOM     10  C   UNL     1       3.356 -10.782   4.271  0.00  0.00    +0.005 A 
ATOM     11  C   UNL     1       2.900 -12.085   4.336  0.00  0.00    +0.002 A 
ATOM     12  C   UNL     1       2.737 -12.700   5.564  0.00  0.00    +0.028 A 
ATOM     13  C   UNL     1       3.031 -12.011   6.726  0.00  0.00    +0.105 A 
ATOM     14  C   UNL     1       3.491 -10.709   6.660  0.00  0.00    +0.034 A 
BRANCH  13  15
ATOM     15  S   UNL     1       2.823 -12.793   8.291  0.00  0.00    +0.056 S 
ATOM     16  O   UNL     1       2.646 -11.754   9.244  0.00  0.00    -0.153 OA
ATOM     17  O   UNL     1       1.865 -13.827   8.104  0.00  0.00    -0.153 OA
BRANCH  15  18
ATOM     18  N   UNL     1       4.255 -13.537   8.661  0.00  0.00    -0.204 NA
ATOM     19  H   UNL     1       5.004 -13.480   8.046  0.00  0.00    +0.144 HD
ATOM     20  H   UNL     1       4.346 -14.028   9.492  0.00  0.00    +0.144 HD
ENDBRANCH  15  18
ENDBRANCH  13  15
ENDBRANCH   7   9
ENDBRANCH   4   7
BRANCH   1  21
ATOM     21  C   UNL     1       2.483  -4.484   3.507  0.00  0.00    +0.104 C 
BRANCH  21  22
ATOM     22  C   UNL     1       1.673  -3.983   2.310  0.00  0.00    +0.000 C 
BRANCH  22  23
ATOM     23  C   UNL     1       1.539  -2.461   2.387  0.00  0.00    -0.077 C 
BRANCH  23  29
ATOM     24  C   UNL     1      -0.019   1.526   0.010  0.00  0.00    +0.005 C 
ATOM     25  C   UNL     1       0.002  -0.004   0.002  0.00  0.00    -0.031 C 
ATOM     26  C   UNL     1      -1.434  -0.535   0.018  0.00  0.00    -0.001 C 
ATOM     27  C   UNL     1      -1.402  -2.064   0.089  0.00  0.00    -0.018 C 
ATOM     28  C   UNL     1      -0.610  -2.496   1.325  0.00  0.00    -0.079 C 
ATOM     29  N   UNL     1       0.761  -1.980   1.237  0.00  0.00    +0.380 N 
ATOM     30  C   UNL     1       0.742  -0.512   1.241  0.00  0.00    -0.076 C 
ATOM     31  H   UNL     1       1.189  -2.307   0.384  0.00  0.00    -0.082 HD
ENDBRANCH  23  29
ENDBRANCH  22  23
ENDBRANCH  21  22
ENDBRANCH   1  21
TORSDOF 8
