REMARK  Name = ZINC06474034
REMARK  9 active torsions:
REMARK  status: ('A' for Active; 'I' for Inactive)
REMARK    1  A    between atoms: C_4  and  C_7
REMARK    2  A    between atoms: C_7  and  C_8
REMARK    3  A    between atoms: C_7  and  C_26
REMARK    4  A    between atoms: C_7  and  O_33
REMARK    5  A    between atoms: C_8  and  C_9
REMARK    6  A    between atoms: C_10  and  C_11
REMARK    7  A    between atoms: C_11  and  N_60
REMARK    8  A    between atoms: N_14  and  C_17
REMARK    9  A    between atoms: C_20  and  N_23
REMARK                            x       y       z     vdW  Elec       q    Type
REMARK                         _______ _______ _______ _____ _____    ______ ____
ROOT
ATOM      1  C   UNL     1       0.259   8.132  -2.898  0.00  0.00    -0.101 C 
ATOM      2  C   UNL     1       0.374   7.955  -1.743  0.00  0.00    -0.121 C 
ENDROOT
BRANCH   1   3
ATOM      3  C   UNL     1       0.115   8.354  -4.346  0.00  0.00    +0.133 C 
BRANCH   3   4
ATOM      4  C   UNL     1      -1.371   8.392  -4.710  0.00  0.00    +0.128 C 
BRANCH   4   5
ATOM      5  C   UNL     1      -1.998   7.057  -4.404  0.00  0.00    +0.003 A 
ATOM      6  C   UNL     1      -1.199   5.973  -4.093  0.00  0.00    +0.008 A 
ATOM      7  C   UNL     1      -1.775   4.749  -3.806  0.00  0.00    +0.000 A 
ATOM      8  C   UNL     1      -3.150   4.607  -3.841  0.00  0.00    +0.001 A 
ATOM      9  C   UNL     1      -3.949   5.689  -4.157  0.00  0.00    +0.015 A 
ATOM     10  C   UNL     1      -3.373   6.915  -4.438  0.00  0.00    +0.024 A 
ATOM     11 BR   UNL     1      -4.467   8.396  -4.870  0.00  0.00    -0.050 Br
ENDBRANCH   4   5
BRANCH   4  15
ATOM     12  C   UNL     1      -1.793   9.241  -8.876  0.00  0.00    +0.000 A 
ATOM     13  C   UNL     1      -2.234  10.154  -7.936  0.00  0.00    +0.000 A 
ATOM     14  C   UNL     1      -2.097   9.880  -6.588  0.00  0.00    +0.007 A 
ATOM     15  C   UNL     1      -1.520   8.692  -6.180  0.00  0.00    -0.011 A 
ATOM     16  C   UNL     1      -1.075   7.781  -7.120  0.00  0.00    +0.007 A 
ATOM     17  C   UNL     1      -1.215   8.053  -8.467  0.00  0.00    +0.000 A 
ENDBRANCH   4  15
BRANCH   4  18
ATOM     18  O   UNL     1      -2.022   9.411  -3.948  0.00  0.00    -0.378 OA
ATOM     19  H   UNL     1      -1.668  10.299  -4.096  0.00  0.00    +0.211 HD
ENDBRANCH   4  18
ENDBRANCH   3   4
ENDBRANCH   1   3
BRANCH   2  20
ATOM     20  C   UNL     1       0.519   7.734  -0.295  0.00  0.00    +0.012 C 
BRANCH  20  26
ATOM     21  C   UNL     1       0.218   6.086   1.454  0.00  0.00    -0.058 C 
ATOM     22  C   UNL     1      -0.386   4.716   1.768  0.00  0.00    +0.086 C 
ATOM     23  N   UNL     1      -1.841   4.768   1.569  0.00  0.00    -0.333 N 
ATOM     24  C   UNL     1      -2.168   5.138   0.185  0.00  0.00    +0.086 C 
ATOM     25  C   UNL     1      -1.563   6.509  -0.129  0.00  0.00    -0.058 C 
ATOM     26  N   UNL     1      -0.099   6.437   0.053  0.00  0.00    +0.389 N 
ATOM     27  H   UNL     1       0.280   5.710  -0.566  0.00  0.00    -0.080 HD
BRANCH  23  28
ATOM     28  C   UNL     1      -2.438   3.553   1.916  0.00  0.00    +0.030 A 
ATOM     29  C   UNL     1      -3.813   3.395   1.800  0.00  0.00    +0.025 A 
ATOM     30  C   UNL     1      -4.399   2.193   2.144  0.00  0.00    +0.034 A 
ATOM     31  C   UNL     1      -3.619   1.147   2.603  0.00  0.00    +0.126 A 
ATOM     32  C   UNL     1      -2.250   1.302   2.720  0.00  0.00    +0.034 A 
ATOM     33  C   UNL     1      -1.657   2.502   2.379  0.00  0.00    +0.025 A 
BRANCH  31  34
ATOM     34  N   UNL     1      -4.251  -0.140   2.969  0.00  0.00    +0.056 N 
ATOM     35  O   UNL     1      -5.457  -0.278   2.867  0.00  0.00    -0.126 OA
ATOM     36  O   UNL     1      -3.565  -1.062   3.374  0.00  0.00    -0.126 OA
ENDBRANCH  31  34
ENDBRANCH  23  28
ENDBRANCH  20  26
ENDBRANCH   2  20
TORSDOF 9
