REMARK  Name = ZINC35704031
REMARK  12 active torsions:
REMARK  status: ('A' for Active; 'I' for Inactive)
REMARK    1  A    between atoms: C_1  and  C_2
REMARK    2  A    between atoms: C_2  and  C_4
REMARK    3  A    between atoms: C_2  and  N_26
REMARK    4  A    between atoms: C_7  and  S_18
REMARK    5  A    between atoms: N_8  and  C_9
REMARK    6  A    between atoms: C_12  and  N_15
REMARK    7  A    between atoms: S_18  and  C_19
REMARK    8  A    between atoms: C_19  and  C_20
REMARK    9  A    between atoms: C_27  and  C_29
REMARK   10  A    between atoms: C_29  and  O_30
REMARK   11  A    between atoms: O_30  and  C_31
REMARK   12  A    between atoms: C_31  and  C_32
REMARK                            x       y       z     vdW  Elec       q    Type
REMARK                         _______ _______ _______ _____ _____    ______ ____
ROOT
ATOM      1  C   UNL     1      -1.412  -0.526   0.013  0.00  0.00    +0.159 A 
ATOM      2  N   UNL     1      -2.223  -0.538   1.033  0.00  0.00    -0.131 NA
ATOM      3  N   UNL     1      -3.351  -1.053   0.695  0.00  0.00    -0.122 NA
ATOM      4  C   UNL     1      -3.323  -1.400  -0.571  0.00  0.00    +0.196 A 
ATOM      5  N   UNL     1      -2.085  -1.069  -1.049  0.00  0.00    -0.273 N 
ENDROOT
BRANCH   5   6
ATOM      6  C   UNL     1      -1.604  -1.251  -2.354  0.00  0.00    +0.050 A 
ATOM      7  C   UNL     1      -1.281  -0.150  -3.136  0.00  0.00    +0.028 A 
ATOM      8  C   UNL     1      -0.808  -0.333  -4.421  0.00  0.00    +0.035 A 
ATOM      9  C   UNL     1      -0.655  -1.610  -4.928  0.00  0.00    +0.126 A 
ATOM     10  C   UNL     1      -0.975  -2.708  -4.151  0.00  0.00    +0.035 A 
ATOM     11  C   UNL     1      -1.444  -2.532  -2.864  0.00  0.00    +0.028 A 
BRANCH   9  12
ATOM     12  N   UNL     1      -0.148  -1.802  -6.306  0.00  0.00    +0.056 N 
ATOM     13  O   UNL     1       0.132  -0.843  -6.986  0.00  0.00    -0.126 OA
ATOM     14  O   UNL     1      -0.014  -2.918  -6.750  0.00  0.00    -0.126 OA
ENDBRANCH   9  12
ENDBRANCH   5   6
BRANCH   1  16
ATOM     15  C   UNL     1      -0.019   1.526   0.010  0.00  0.00    +0.036 C 
ATOM     16  C   UNL     1       0.002  -0.004   0.002  0.00  0.00    +0.138 C 
BRANCH  16  17
ATOM     17  N   UNL     1       0.711  -0.489   1.189  0.00  0.00    -0.304 N 
ATOM     18  C   UNL     1       2.054  -0.600   1.174  0.00  0.00    +0.239 C 
ATOM     19  O   UNL     1       2.676  -0.297   0.177  0.00  0.00    -0.273 OA
ATOM     20  H   UNL     1       0.213  -0.731   1.986  0.00  0.00    +0.149 HD
BRANCH  18  21
ATOM     21  C   UNL     1       2.783  -1.099   2.395  0.00  0.00    +0.255 C 
BRANCH  21  22
ATOM     22  O   UNL     1       4.187  -1.127   2.133  0.00  0.00    -0.366 OA
BRANCH  22  23
ATOM     23  C   UNL     1       4.974  -1.588   3.233  0.00  0.00    +0.195 C 
BRANCH  23  24
ATOM     24  C   UNL     1       6.431  -1.576   2.847  0.00  0.00    -0.022 A 
ATOM     25  C   UNL     1       7.001  -2.692   2.264  0.00  0.00    +0.006 A 
ATOM     26  C   UNL     1       8.338  -2.681   1.911  0.00  0.00    +0.000 A 
ATOM     27  C   UNL     1       9.104  -1.554   2.140  0.00  0.00    +0.000 A 
ATOM     28  C   UNL     1       8.534  -0.437   2.723  0.00  0.00    +0.000 A 
ATOM     29  C   UNL     1       7.197  -0.447   3.072  0.00  0.00    +0.006 A 
ENDBRANCH  23  24
ENDBRANCH  22  23
ENDBRANCH  21  22
ENDBRANCH  18  21
ENDBRANCH  16  17
ENDBRANCH   1  16
BRANCH   4  30
ATOM     30  S   UNL     1      -4.634  -2.144  -1.483  0.00  0.00    -0.081 S 
BRANCH  30  31
ATOM     31  C   UNL     1      -5.977  -2.300  -0.273  0.00  0.00    +0.112 C 
BRANCH  31  32
ATOM     32  C   UNL     1      -7.176  -2.931  -0.932  0.00  0.00    -0.037 A 
ATOM     33  C   UNL     1      -8.126  -2.136  -1.546  0.00  0.00    +0.004 A 
ATOM     34  C   UNL     1      -9.226  -2.715  -2.151  0.00  0.00    +0.000 A 
ATOM     35  C   UNL     1      -9.376  -4.089  -2.142  0.00  0.00    +0.000 A 
ATOM     36  C   UNL     1      -8.426  -4.884  -1.528  0.00  0.00    +0.000 A 
ATOM     37  C   UNL     1      -7.324  -4.305  -0.927  0.00  0.00    +0.004 A 
ENDBRANCH  31  32
ENDBRANCH  30  31
ENDBRANCH   4  30
TORSDOF 11
