REMARK  Name = ZINC04765602
REMARK  18 active torsions:
REMARK  status: ('A' for Active; 'I' for Inactive)
REMARK    1  A    between atoms: C_1  and  C_2
REMARK    2  A    between atoms: C_7  and  C_22
REMARK    3  A    between atoms: C_9  and  C_13
REMARK    4  A    between atoms: C_10  and  C_12
REMARK    5  A    between atoms: C_13  and  O_15
REMARK    6  A    between atoms: O_15  and  C_16
REMARK    7  A    between atoms: C_16  and  C_17
REMARK    8  A    between atoms: C_17  and  O_18
REMARK    9  A    between atoms: O_18  and  C_19
REMARK   10  A    between atoms: C_19  and  C_20
REMARK   11  A    between atoms: C_19  and  C_21
REMARK   12  A    between atoms: C_27  and  O_28
REMARK   13  A    between atoms: O_28  and  C_29
REMARK   14  A    between atoms: C_29  and  C_30
REMARK   15  A    between atoms: C_29  and  C_31
REMARK   16  A    between atoms: C_34  and  C_36
REMARK   17  A    between atoms: C_36  and  O_38
REMARK   18  A    between atoms: O_38  and  C_39
REMARK                            x       y       z     vdW  Elec       q    Type
REMARK                         _______ _______ _______ _____ _____    ______ ____
ROOT
ATOM      1  C   UNL     1      -5.636   4.464  -2.250  0.00  0.00    +0.009 C 
ATOM      2  C   UNL     1      -4.970   3.171  -2.723  0.00  0.00    +0.013 C 
ATOM      3  C   UNL     1      -5.034   2.123  -1.610  0.00  0.00    +0.055 C 
ATOM      4  C   UNL     1      -4.279   2.620  -0.402  0.00  0.00    +0.016 C 
ATOM      5  C   UNL     1      -3.215   3.439  -0.536  0.00  0.00    +0.025 C 
ATOM      6  C   UNL     1      -2.457   3.921   0.676  0.00  0.00    +0.096 C 
ATOM      7  C   UNL     1      -3.271   3.746   1.924  0.00  0.00    +0.065 C 
ATOM      8  C   UNL     1      -4.331   2.922   1.956  0.00  0.00    +0.016 C 
ATOM      9  N   UNL     1      -4.699   2.224   0.840  0.00  0.00    -0.321 N 
ATOM     10  C   UNL     1      -5.120   2.766   3.230  0.00  0.00    +0.061 C 
ATOM     11  C   UNL     1      -2.783   3.867  -1.804  0.00  0.00    +0.176 C 
ATOM     12  O   UNL     1      -1.815   4.596  -1.889  0.00  0.00    -0.291 OA
ATOM     13  C   UNL     1      -3.498   3.437  -3.056  0.00  0.00    +0.171 C 
ATOM     14  H   UNL     1      -5.339   1.335   0.946  0.00  0.00    +0.152 HD
ENDROOT
BRANCH   6  15
ATOM     15  C   UNL     1      -1.178   3.135   0.805  0.00  0.00    +0.006 A 
ATOM     16  C   UNL     1      -1.219   1.756   0.877  0.00  0.00    +0.008 A 
ATOM     17  C   UNL     1      -0.046   1.034   1.002  0.00  0.00    +0.001 A 
ATOM     18  C   UNL     1       1.171   1.689   1.044  0.00  0.00    +0.004 A 
ATOM     19  C   UNL     1       1.217   3.067   0.966  0.00  0.00    +0.046 A 
ATOM     20  C   UNL     1       0.042   3.794   0.846  0.00  0.00    +0.125 A 
BRANCH  20  21
ATOM     21  O   UNL     1       0.085   5.151   0.769  0.00  0.00    -0.489 OA
BRANCH  21  22
ATOM     22  C   UNL     1       1.369   5.766   0.890  0.00  0.00    +0.167 C 
ATOM     23  C   UNL     1       1.335   7.147   0.231  0.00  0.00    +0.051 C 
ATOM     24  C   UNL     1       1.726   5.916   2.370  0.00  0.00    +0.051 C 
ENDBRANCH  21  22
ENDBRANCH  20  21
ENDBRANCH   6  15
BRANCH   7  25
ATOM     25  C   UNL     1      -2.916   4.463   3.090  0.00  0.00    +0.338 C 
ATOM     26  O   UNL     1      -2.032   5.298   3.046  0.00  0.00    -0.245 OA
BRANCH  25  27
ATOM     27  O   UNL     1      -3.558   4.221   4.253  0.00  0.00    -0.459 OA
BRANCH  27  28
ATOM     28  C   UNL     1      -3.227   5.057   5.363  0.00  0.00    +0.260 C 
BRANCH  28  29
ATOM     29  C   UNL     1      -3.957   4.559   6.612  0.00  0.00    +0.201 C 
BRANCH  29  30
ATOM     30  O   UNL     1      -3.477   3.258   6.957  0.00  0.00    -0.374 OA
BRANCH  30  31
ATOM     31  C   UNL     1      -4.174   2.652   8.048  0.00  0.00    +0.112 C 
ATOM     32  C   UNL     1      -5.292   1.760   7.506  0.00  0.00    +0.037 C 
ATOM     33  C   UNL     1      -3.199   1.806   8.869  0.00  0.00    +0.037 C 
ENDBRANCH  30  31
ENDBRANCH  29  30
ENDBRANCH  28  29
ENDBRANCH  27  28
ENDBRANCH  25  27
ENDBRANCH   7  25
BRANCH  13  34
ATOM     34  C   UNL     1      -3.404   4.530  -4.090  0.00  0.00    +0.318 C 
ATOM     35  O   UNL     1      -4.410   5.044  -4.518  0.00  0.00    -0.250 OA
BRANCH  34  36
ATOM     36  O   UNL     1      -2.203   4.931  -4.535  0.00  0.00    -0.467 OA
ATOM     37  C   UNL     1      -2.189   5.988  -5.531  0.00  0.00    +0.280 C 
ENDBRANCH  34  36
ENDBRANCH  13  34
TORSDOF 11
