REMARK  Name = ZINC40003732
REMARK  18 active torsions:
REMARK  status: ('A' for Active; 'I' for Inactive)
REMARK    1  A    between atoms: C_1  and  C_2
REMARK    2  A    between atoms: C_2  and  C_3
REMARK    3  A    between atoms: C_3  and  C_4
REMARK    4  A    between atoms: C_4  and  O_5
REMARK    5  A    between atoms: O_5  and  C_6
REMARK    6  A    between atoms: C_9  and  C_15
REMARK    7  A    between atoms: C_11  and  O_12
REMARK    8  A    between atoms: O_12  and  C_13
REMARK    9  A    between atoms: C_13  and  C_14
REMARK   10  A    between atoms: C_17  and  C_28
REMARK   11  A    between atoms: N_21  and  C_22
REMARK   12  A    between atoms: C_22  and  C_23
REMARK   13  A    between atoms: C_23  and  N_24
REMARK   14  A    between atoms: N_24  and  C_25
REMARK   15  A    between atoms: N_24  and  C_26
REMARK   16  A    between atoms: C_28  and  C_30
REMARK   17  A    between atoms: C_31  and  C_40
REMARK   18  A    between atoms: C_38  and  C_39
REMARK                            x       y       z     vdW  Elec       q    Type
REMARK                         _______ _______ _______ _____ _____    ______ ____
ROOT
ATOM      1  C   UNL     1       1.601  -8.156  -4.316  0.00  0.00    +0.145 C 
ATOM      2  C   UNL     1       2.293  -8.059  -2.976  0.00  0.00    +0.078 C 
ATOM      3  C   UNL     1       1.324  -8.089  -2.034  0.00  0.00    +0.249 C 
ATOM      4  C   UNL     1       0.009  -8.204  -2.692  0.00  0.00    +0.288 C 
ATOM      5  O   UNL     1      -1.059  -8.254  -2.113  0.00  0.00    -0.266 OA
ATOM      6  N   UNL     1       0.164  -8.243  -4.029  0.00  0.00    -0.285 N 
ATOM      7  O   UNL     1       1.528  -8.026  -0.696  0.00  0.00    -0.282 OA
ENDROOT
BRANCH   1  11
ATOM      8  C   UNL     1       2.421  -4.666  -6.649  0.00  0.00    +0.162 A 
ATOM      9  C   UNL     1       1.577  -4.588  -5.553  0.00  0.00    +0.050 A 
ATOM     10  C   UNL     1       1.314  -5.718  -4.801  0.00  0.00    +0.009 A 
ATOM     11  C   UNL     1       1.891  -6.927  -5.139  0.00  0.00    -0.019 A 
ATOM     12  C   UNL     1       2.735  -7.012  -6.231  0.00  0.00    +0.055 A 
ATOM     13  C   UNL     1       2.998  -5.885  -6.993  0.00  0.00    +0.162 A 
BRANCH   8  14
ATOM     14  O   UNL     1       2.681  -3.556  -7.390  0.00  0.00    -0.488 OA
BRANCH  14  15
ATOM     15  C   UNL     1       2.054  -2.340  -6.977  0.00  0.00    +0.229 C 
BRANCH  15  16
ATOM     16  C   UNL     1       2.462  -1.209  -7.924  0.00  0.00    +0.041 C 
BRANCH  16  18
ATOM     17  C   UNL     1       2.199   1.223  -8.430  0.00  0.00    +0.004 C 
ATOM     18  C   UNL     1       1.791   0.093  -7.483  0.00  0.00    -0.000 C 
ENDBRANCH  16  18
ENDBRANCH  15  16
ENDBRANCH  14  15
ENDBRANCH   8  14
BRANCH  13  19
ATOM     19  O   UNL     1       3.823  -5.968  -8.071  0.00  0.00    -0.489 OA
BRANCH  19  20
ATOM     20  C   UNL     1       4.293  -7.269  -8.429  0.00  0.00    +0.226 C 
ATOM     21  C   UNL     1       5.196  -7.164  -9.660  0.00  0.00    +0.048 C 
ENDBRANCH  19  20
ENDBRANCH  13  19
ENDBRANCH   1  11
BRANCH   2  22
ATOM     22  C   UNL     1       3.739  -7.952  -2.743  0.00  0.00    +0.213 C 
ATOM     23  O   UNL     1       4.219  -6.897  -2.364  0.00  0.00    -0.285 OA
BRANCH  22  24
ATOM     24  C   UNL     1       4.576  -9.075  -2.958  0.00  0.00    +0.116 A 
ATOM     25  C   UNL     1       4.171 -10.367  -3.267  0.00  0.00    +0.068 A 
ATOM     26  N   UNL     1       5.251 -11.120  -3.388  0.00  0.00    -0.232 NA
ATOM     27  C   UNL     1       6.342 -10.384  -3.174  0.00  0.00    +0.141 A 
ATOM     28  N   UNL     1       5.958  -9.100  -2.907  0.00  0.00    -0.296 N 
ATOM     29  C   UNL     1       6.883  -8.137  -2.656  0.00  0.00    +0.093 A 
ATOM     30  C   UNL     1       8.204  -8.430  -2.668  0.00  0.00    +0.018 A 
ATOM     31  C   UNL     1       8.632  -9.736  -2.940  0.00  0.00    +0.008 A 
ATOM     32  C   UNL     1       7.709 -10.710  -3.186  0.00  0.00    -0.008 A 
ATOM     33  C   UNL     1       8.152 -12.120  -3.483  0.00  0.00    +0.047 C 
ATOM     34  C   UNL     1       2.747 -10.832  -3.435  0.00  0.00    +0.068 C 
ENDBRANCH  22  24
ENDBRANCH   2  22
BRANCH   6  35
ATOM     35  C   UNL     1      -0.908  -8.355  -5.021  0.00  0.00    +0.090 C 
BRANCH  35  36
ATOM     36  C   UNL     1      -1.183  -9.832  -5.312  0.00  0.00    -0.060 C 
BRANCH  36  37
ATOM     37  N   UNL     1      -2.258  -9.943  -6.307  0.00  0.00    +0.377 N 
ATOM     38  C   UNL     1      -2.440 -11.354  -6.675  0.00  0.00    -0.097 C 
ATOM     39  C   UNL     1      -3.507  -9.420  -5.738  0.00  0.00    -0.097 C 
ATOM     40  H   UNL     1      -2.013  -9.410  -7.128  0.00  0.00    -0.083 HD
ENDBRANCH  36  37
ENDBRANCH  35  36
ENDBRANCH   6  35
TORSDOF 12
