REMARK  Name = ZINC20411170
REMARK  7 active torsions:
REMARK  status: ('A' for Active; 'I' for Inactive)
REMARK    1  A    between atoms: C_1  and  C_2
REMARK    2  A    between atoms: C_2  and  C_3
REMARK    3  A    between atoms: C_3  and  C_4
REMARK    4  A    between atoms: C_4  and  C_5
REMARK    5  A    between atoms: C_5  and  C_6
REMARK    6  A    between atoms: C_6  and  N_7
REMARK    7  A    between atoms: C_9  and  C_16
REMARK                            x       y       z     vdW  Elec       q    Type
REMARK                         _______ _______ _______ _____ _____    ______ ____
ROOT
ATOM      1  N   UNL     1      -4.202  -4.630   0.017  0.00  0.00    -0.261 N 
ATOM      2  C   UNL     1      -4.852  -4.859  -1.169  0.00  0.00    +0.262 A 
ATOM      3  C   UNL     1      -6.131  -5.332  -1.152  0.00  0.00    +0.073 A 
ATOM      4  C   UNL     1      -6.754  -5.573   0.086  0.00  0.00    +0.260 A 
ATOM      5  O   UNL     1      -7.897  -5.996   0.125  0.00  0.00    -0.267 OA
ATOM      6  N   UNL     1      -6.079  -5.334   1.228  0.00  0.00    -0.275 N 
ATOM      7  H   UNL     1      -6.506  -5.500   2.083  0.00  0.00    +0.173 HD
ATOM      8  C   UNL     1      -4.816  -4.873   1.190  0.00  0.00    +0.332 A 
ATOM      9  O   UNL     1      -4.221  -4.668   2.231  0.00  0.00    -0.246 OA
ATOM     10  O   UNL     1      -4.231  -4.619  -2.343  0.00  0.00    -0.267 OA
ENDROOT
BRANCH   3  11
ATOM     11  C   UNL     1      -6.867  -5.591  -2.441  0.00  0.00    +0.018 C 
ATOM     12  C   UNL     1      -8.047  -4.656  -2.548  0.00  0.00    +0.011 A 
ATOM     13  C   UNL     1      -9.265  -5.055  -2.982  0.00  0.00    -0.022 A 
ATOM     14  C   UNL     1     -10.133  -3.900  -2.946  0.00  0.00    +0.003 A 
ATOM     15  C   UNL     1     -11.479  -3.710  -3.272  0.00  0.00    +0.010 A 
ATOM     16  C   UNL     1     -11.986  -2.445  -3.109  0.00  0.00    +0.001 A 
ATOM     17  C   UNL     1     -11.210  -1.395  -2.643  0.00  0.00    +0.002 A 
ATOM     18  C   UNL     1      -9.876  -1.554  -2.313  0.00  0.00    +0.026 A 
ATOM     19  C   UNL     1      -9.334  -2.828  -2.468  0.00  0.00    +0.047 A 
ATOM     20  N   UNL     1      -8.081  -3.323  -2.240  0.00  0.00    -0.359 N 
ATOM     21  H   UNL     1      -7.329  -2.808  -1.910  0.00  0.00    +0.166 HD
ATOM     22  C   UNL     1      -9.566  -6.470  -3.409  0.00  0.00    +0.018 C 
ATOM     23  C   UNL     1      -8.228  -7.191  -3.624  0.00  0.00    -0.076 C 
ATOM     24  N   UNL     1      -7.359  -6.978  -2.459  0.00  0.00    +0.388 N 
ATOM     25  H   UNL     1      -6.574  -7.610  -2.503  0.00  0.00    -0.084 HD
ATOM     26  H   UNL     1      -7.883  -7.157  -1.615  0.00  0.00    -0.084 HD
ENDBRANCH   3  11
BRANCH   1  27
ATOM     27  C   UNL     1      -2.827  -4.123   0.007  0.00  0.00    +0.130 C 
BRANCH  27  28
ATOM     28  C   UNL     1      -2.848  -2.593   0.015  0.00  0.00    +0.022 C 
BRANCH  28  29
ATOM     29  C   UNL     1      -1.413  -2.063   0.004  0.00  0.00    +0.002 C 
BRANCH  29  30
ATOM     30  C   UNL     1      -1.433  -0.534   0.013  0.00  0.00    -0.000 C 
BRANCH  30  32
ATOM     31  C   UNL     1      -0.019   1.526   0.010  0.00  0.00    +0.004 C 
ATOM     32  C   UNL     1       0.002  -0.004   0.002  0.00  0.00    -0.003 C 
ENDBRANCH  30  32
ENDBRANCH  29  30
ENDBRANCH  28  29
ENDBRANCH  27  28
ENDBRANCH   1  27
TORSDOF 6
