REMARK  Name = ZINC59418928
REMARK  6 active torsions:
REMARK  status: ('A' for Active; 'I' for Inactive)
REMARK    1  A    between atoms: C_1  and  O_2
REMARK    2  A    between atoms: O_2  and  C_3
REMARK    3  A    between atoms: C_6  and  C_10
REMARK    4  A    between atoms: N_11  and  N_12
REMARK    5  A    between atoms: C_13  and  C_15
REMARK    6  A    between atoms: C_18  and  N_21
REMARK                            x       y       z     vdW  Elec       q    Type
REMARK                         _______ _______ _______ _____ _____    ______ ____
ROOT
ATOM      1  N   UNL     1       0.560  -2.473   5.474  0.00  0.00    -0.203 N 
ATOM      2  C   UNL     1      -0.089  -2.613   6.647  0.00  0.00    +0.263 C 
ATOM      3  O   UNL     1       0.512  -2.994   7.633  0.00  0.00    -0.268 OA
ATOM      4  H   UNL     1       0.081  -2.169   4.688  0.00  0.00    +0.178 HD
ENDROOT
BRANCH   2   5
ATOM      5  C   UNL     1      -1.531  -2.304   6.735  0.00  0.00    +0.038 A 
ATOM      6  C   UNL     1      -2.226  -1.872   5.604  0.00  0.00    +0.015 A 
ATOM      7  C   UNL     1      -3.572  -1.586   5.692  0.00  0.00    +0.033 A 
ATOM      8  C   UNL     1      -4.234  -1.725   6.899  0.00  0.00    +0.126 A 
ATOM      9  C   UNL     1      -3.552  -2.153   8.024  0.00  0.00    +0.033 A 
ATOM     10  C   UNL     1      -2.207  -2.448   7.948  0.00  0.00    +0.015 A 
BRANCH   8  11
ATOM     11  N   UNL     1      -5.679  -1.416   6.987  0.00  0.00    +0.056 N 
ATOM     12  O   UNL     1      -6.278  -1.042   6.006  0.00  0.00    -0.126 OA
ATOM     13  O   UNL     1      -6.261  -1.537   8.040  0.00  0.00    -0.126 OA
ENDBRANCH   8  11
ENDBRANCH   2   5
BRANCH   1  15
ATOM     14  C   UNL     1       2.581  -2.511   4.299  0.00  0.00    +0.138 C 
ATOM     15  N   UNL     1       1.928  -2.766   5.391  0.00  0.00    -0.187 NA
BRANCH  14  19
ATOM     16  C   UNL     1       1.223   0.538   1.675  0.00  0.00    +0.148 A 
ATOM     17  C   UNL     1       0.724   0.466   2.969  0.00  0.00    +0.061 A 
ATOM     18  C   UNL     1       1.162  -0.523   3.825  0.00  0.00    +0.028 A 
ATOM     19  C   UNL     1       2.109  -1.453   3.388  0.00  0.00    -0.003 A 
ATOM     20  C   UNL     1       2.608  -1.377   2.084  0.00  0.00    +0.028 A 
ATOM     21  C   UNL     1       2.160  -0.388   1.234  0.00  0.00    +0.061 A 
ATOM     22 BR   UNL     1       2.829  -0.288  -0.532  0.00  0.00    -0.046 Br
ATOM     23 BR   UNL     1      -0.557   1.725   3.559  0.00  0.00    -0.046 Br
BRANCH  16  25
ATOM     24  C   UNL     1      -0.358   1.220   0.035  0.00  0.00    +0.277 C 
ATOM     25  O   UNL     1       0.789   1.515   0.835  0.00  0.00    -0.493 OA
ENDBRANCH  16  25
ENDBRANCH  14  19
ENDBRANCH   1  15
TORSDOF 5
