REMARK  Name = ZINC65887981
REMARK  1 active torsions:
REMARK  status: ('A' for Active; 'I' for Inactive)
REMARK    1  A    between atoms: C_6  and  C_7
REMARK                            x       y       z     vdW  Elec       q    Type
REMARK                         _______ _______ _______ _____ _____    ______ ____
ROOT
ATOM      1  C   UNL     1      -1.293  -0.775   0.011  0.00  0.00    +0.209 C 
ATOM      2  N   UNL     1      -1.154  -1.986   0.840  0.00  0.00    -0.294 N 
ATOM      3  C   UNL     1      -0.584  -3.114   0.311  0.00  0.00    +0.160 C 
ATOM      4  N   UNL     1      -0.675  -3.392  -0.978  0.00  0.00    -0.302 N 
ATOM      5  C   UNL     1      -1.294  -2.500  -1.788  0.00  0.00    +0.213 A 
ATOM      6  N   UNL     1      -1.616  -1.230  -1.346  0.00  0.00    -0.286 N 
ATOM      7  C   UNL     1      -2.239  -0.572  -2.381  0.00  0.00    +0.076 A 
ATOM      8  C   UNL     1      -2.790   0.693  -2.533  0.00  0.00    +0.077 A 
ATOM      9  C   UNL     1      -3.356   1.057  -3.740  0.00  0.00    +0.164 A 
ATOM     10  C   UNL     1      -3.380   0.162  -4.806  0.00  0.00    +0.164 A 
ATOM     11  C   UNL     1      -2.838  -1.099  -4.672  0.00  0.00    +0.079 A 
ATOM     12  C   UNL     1      -2.261  -1.480  -3.456  0.00  0.00    +0.095 A 
ATOM     13  N   UNL     1      -1.663  -2.628  -3.035  0.00  0.00    -0.212 NA
ATOM     14  O   UNL     1      -3.943   0.541  -5.991  0.00  0.00    -0.488 OA
ATOM     15  C   UNL     1      -5.360   0.728  -5.979  0.00  0.00    +0.232 C 
ATOM     16  C   UNL     1      -5.716   2.124  -5.494  0.00  0.00    +0.082 C 
ATOM     17  C   UNL     1      -5.318   2.352  -4.044  0.00  0.00    +0.232 C 
ATOM     18  O   UNL     1      -3.898   2.301  -3.894  0.00  0.00    -0.488 OA
ATOM     19  N   UNL     1       0.094  -3.971   1.135  0.00  0.00    -0.332 N 
ATOM     20  H   UNL     1      -1.466  -1.984   1.758  0.00  0.00    +0.151 HD
ATOM     21  H   UNL     1       0.167  -3.777   2.082  0.00  0.00    +0.145 HD
ATOM     22  H   UNL     1       0.501  -4.772   0.771  0.00  0.00    +0.145 HD
ATOM     23  H   UNL     1      -0.306  -4.215  -1.336  0.00  0.00    +0.171 HD
ENDROOT
BRANCH   1  29
ATOM     24  C   UNL     1      -0.017   1.378   0.010  0.00  0.00    +0.009 A 
ATOM     25  C   UNL     1       1.170   2.087   0.002  0.00  0.00    +0.023 A 
ATOM     26  C   UNL     1       2.378   1.413  -0.013  0.00  0.00    +0.076 A 
ATOM     27  C   UNL     1       2.397   0.028  -0.021  0.00  0.00    +0.142 A 
ATOM     28  C   UNL     1       1.208  -0.680  -0.013  0.00  0.00    +0.047 A 
ATOM     29  C   UNL     1       0.002  -0.004   0.002  0.00  0.00    -0.004 A 
ATOM     30  F   UNL     1       3.576  -0.632  -0.036  0.00  0.00    -0.204 F 
ATOM     31 CL   UNL     1       3.869   2.303  -0.023  0.00  0.00    -0.081 Cl
ENDBRANCH   1  29
TORSDOF 1
