REMARK  Name = ZINC67239537
REMARK  5 active torsions:
REMARK  status: ('A' for Active; 'I' for Inactive)
REMARK    1  A    between atoms: C_3  and  N_12
REMARK    2  A    between atoms: C_6  and  C_7
REMARK    3  A    between atoms: C_7  and  N_8
REMARK    4  A    between atoms: C_13  and  C_15
REMARK    5  A    between atoms: C_20  and  C_23
REMARK                            x       y       z     vdW  Elec       q    Type
REMARK                         _______ _______ _______ _____ _____    ______ ____
ROOT
ATOM      1  C   UNL     1       1.084  -0.460   0.750  0.00  0.00    +0.007 A 
ATOM      2  C   UNL     1       2.273   0.242   0.738  0.00  0.00    +0.023 A 
ATOM      3  C   UNL     1       2.381   1.409  -0.007  0.00  0.00    +0.033 A 
ATOM      4  C   UNL     1       1.292   1.866  -0.738  0.00  0.00    +0.023 A 
ATOM      5  C   UNL     1       0.105   1.159  -0.722  0.00  0.00    +0.007 A 
ATOM      6  C   UNL     1       0.001  -0.002   0.021  0.00  0.00    -0.030 A 
ENDROOT
BRANCH   3   7
ATOM      7  N   UNL     1       3.584   2.123  -0.021  0.00  0.00    -0.285 N 
ATOM      8  C   UNL     1       4.758   1.467   0.066  0.00  0.00    +0.220 C 
ATOM      9  O   UNL     1       4.777   0.255   0.060  0.00  0.00    -0.275 OA
ATOM     10  H   UNL     1       3.573   3.091  -0.093  0.00  0.00    +0.155 HD
BRANCH   8  11
ATOM     11  C   UNL     1       6.047   2.241   0.171  0.00  0.00    +0.076 C 
ATOM     12  C   UNL     1       6.018   3.114   1.427  0.00  0.00    +0.013 C 
ATOM     13  C   UNL     1       7.327   3.899   1.533  0.00  0.00    +0.001 C 
ATOM     14  C   UNL     1       8.501   2.922   1.619  0.00  0.00    +0.012 C 
ATOM     15  C   UNL     1       8.531   2.049   0.362  0.00  0.00    +0.094 C 
ATOM     16  C   UNL     1       7.222   1.264   0.256  0.00  0.00    +0.025 C 
BRANCH  15  17
ATOM     17  C   UNL     1       9.706   1.073   0.448  0.00  0.00    +0.393 C 
ATOM     18  F   UNL     1       9.556   0.260   1.577  0.00  0.00    -0.170 F 
ATOM     19  F   UNL     1       9.733   0.275  -0.701  0.00  0.00    -0.170 F 
ATOM     20  F   UNL     1      10.903   1.791   0.545  0.00  0.00    -0.170 F 
ENDBRANCH  15  17
ENDBRANCH   8  11
ENDBRANCH   3   7
BRANCH   6  21
ATOM     21  C   UNL     1      -1.295  -0.771   0.037  0.00  0.00    +0.141 C 
BRANCH  21  22
ATOM     22  N   UNL     1      -2.138  -0.285   1.132  0.00  0.00    -0.295 N 
ATOM     23  C   UNL     1      -3.353  -0.830   1.340  0.00  0.00    +0.297 C 
ATOM     24  O   UNL     1      -3.749  -1.725   0.619  0.00  0.00    -0.253 OA
ATOM     25  N   UNL     1      -4.128  -0.383   2.347  0.00  0.00    -0.313 N 
ATOM     26  H   UNL     1      -1.822   0.429   1.707  0.00  0.00    +0.151 HD
ATOM     27  H   UNL     1      -3.812   0.331   2.923  0.00  0.00    +0.146 HD
ATOM     28  H   UNL     1      -5.003  -0.775   2.497  0.00  0.00    +0.146 HD
ENDBRANCH  21  22
ENDBRANCH   6  21
TORSDOF 5
