REMARK  Name = ZINC37136345
REMARK  5 active torsions:
REMARK  status: ('A' for Active; 'I' for Inactive)
REMARK    1  A    between atoms: C_1  and  C_2
REMARK    2  A    between atoms: C_5  and  C_8
REMARK    3  A    between atoms: C_8  and  N_9
REMARK    4  A    between atoms: N_9  and  C_10
REMARK    5  A    between atoms: C_13  and  N_16
REMARK                            x       y       z     vdW  Elec       q    Type
REMARK                         _______ _______ _______ _____ _____    ______ ____
ROOT
ATOM      1  C   UNL     1       1.712  -6.120  -0.023  0.00  0.00    +0.027 A 
ATOM      2  C   UNL     1       0.683  -7.037   0.146  0.00  0.00    +0.025 A 
ATOM      3  C   UNL     1       0.956  -8.391   0.131  0.00  0.00    +0.025 A 
ATOM      4  C   UNL     1       2.259  -8.834  -0.052  0.00  0.00    +0.035 A 
ATOM      5  C   UNL     1       3.287  -7.918  -0.221  0.00  0.00    +0.025 A 
ATOM      6  C   UNL     1       3.014  -6.564  -0.212  0.00  0.00    +0.025 A 
ENDROOT
BRANCH   4   7
ATOM      7  N   UNL     1       2.535 -10.209  -0.067  0.00  0.00    -0.270 N 
ATOM      8  C   UNL     1       1.629 -11.073  -0.564  0.00  0.00    +0.301 C 
ATOM      9  O   UNL     1       0.614 -10.656  -1.088  0.00  0.00    -0.253 OA
ATOM     10  N   UNL     1       1.847 -12.401  -0.481  0.00  0.00    -0.313 N 
ATOM     11  H   UNL     1       3.379 -10.537   0.281  0.00  0.00    +0.156 HD
ATOM     12  H   UNL     1       2.657 -12.734  -0.063  0.00  0.00    +0.146 HD
ATOM     13  H   UNL     1       1.195 -13.023  -0.839  0.00  0.00    +0.146 HD
ENDBRANCH   4   7
BRANCH   1  14
ATOM     14  N   UNL     1       1.436  -4.748  -0.008  0.00  0.00    -0.340 N 
ATOM     15  H   UNL     1       2.154  -4.107  -0.129  0.00  0.00    +0.146 HD
BRANCH  14  16
ATOM     16  C   UNL     1       0.062  -4.279   0.192  0.00  0.00    +0.136 C 
BRANCH  16  21
ATOM     17  C   UNL     1      -0.039   1.497   0.094  0.00  0.00    +0.044 C 
ATOM     18  C   UNL     1      -0.012  -0.009   0.119  0.00  0.00    -0.050 A 
ATOM     19  C   UNL     1      -0.179  -0.723  -1.052  0.00  0.00    +0.003 A 
ATOM     20  C   UNL     1      -0.155  -2.105  -1.029  0.00  0.00    +0.005 A 
ATOM     21  C   UNL     1       0.037  -2.773   0.166  0.00  0.00    -0.030 A 
ATOM     22  C   UNL     1       0.204  -2.059   1.338  0.00  0.00    +0.005 A 
ATOM     23  C   UNL     1       0.184  -0.677   1.314  0.00  0.00    +0.003 A 
ENDBRANCH  16  21
ENDBRANCH  14  16
ENDBRANCH   1  14
TORSDOF 4
