REMARK  Name = ZINC37006612
REMARK  10 active torsions:
REMARK  status: ('A' for Active; 'I' for Inactive)
REMARK    1  A    between atoms: C_1  and  C_2
REMARK    2  A    between atoms: C_5  and  C_41
REMARK    3  A    between atoms: N_8  and  C_10
REMARK    4  A    between atoms: C_10  and  C_11
REMARK    5  A    between atoms: C_11  and  C_12
REMARK    6  A    between atoms: C_12  and  N_13
REMARK    7  A    between atoms: C_14  and  C_16
REMARK    8  A    between atoms: C_16  and  C_40
REMARK    9  A    between atoms: N_29  and  C_30
REMARK   10  A    between atoms: C_30  and  C_31
REMARK                            x       y       z     vdW  Elec       q    Type
REMARK                         _______ _______ _______ _____ _____    ______ ____
ROOT
ATOM      1  C   UNL     1       2.265   1.166   7.873  0.00  0.00    +0.129 C 
ATOM      2  C   UNL     1       3.074   0.622   9.049  0.00  0.00    +0.157 C 
ATOM      3  N   UNL     1       2.633  -0.745   9.350  0.00  0.00    -0.334 N 
ATOM      4  C   UNL     1       3.318  -1.789   9.873  0.00  0.00    +0.050 A 
ATOM      5  C   UNL     1       4.645  -1.930  10.280  0.00  0.00    +0.026 A 
ATOM      6  C   UNL     1       5.022  -3.162  10.783  0.00  0.00    +0.002 A 
ATOM      7  C   UNL     1       4.134  -4.223  10.886  0.00  0.00    +0.001 A 
ATOM      8  C   UNL     1       2.825  -4.118  10.494  0.00  0.00    +0.010 A 
ATOM      9  C   UNL     1       2.412  -2.880   9.979  0.00  0.00    +0.001 A 
ATOM     10  C   UNL     1       1.169  -2.439   9.491  0.00  0.00    +0.041 A 
ATOM     11  C   UNL     1       1.319  -1.154   9.109  0.00  0.00    +0.106 A 
ATOM     12  C   UNL     1       0.342  -0.227   8.508  0.00  0.00    +0.264 C 
ATOM     13  O   UNL     1      -0.843  -0.496   8.449  0.00  0.00    -0.268 OA
ATOM     14  N   UNL     1       0.832   0.938   8.025  0.00  0.00    -0.276 N 
ATOM     15  C   UNL     1       2.516   2.671   7.756  0.00  0.00    +0.043 C 
ENDROOT
BRANCH   1  17
ATOM     16  N   UNL     1       2.162  -0.657   6.204  0.00  0.00    -0.314 N 
ATOM     17  C   UNL     1       2.733   0.495   6.607  0.00  0.00    +0.238 C 
ATOM     18  O   UNL     1       3.625   0.992   5.952  0.00  0.00    -0.273 OA
ATOM     19  H   UNL     1       1.406  -1.020   6.692  0.00  0.00    +0.149 HD
BRANCH  16  20
ATOM     20  C   UNL     1       2.681  -1.360   5.028  0.00  0.00    +0.102 C 
BRANCH  20  21
ATOM     21  C   UNL     1       1.786  -2.561   4.716  0.00  0.00    +0.000 C 
BRANCH  21  22
ATOM     22  C   UNL     1       2.255  -3.222   3.418  0.00  0.00    -0.077 C 
BRANCH  22  28
ATOM     23  C   UNL     1      -1.041  -5.839   3.721  0.00  0.00    +0.005 C 
ATOM     24  C   UNL     1       0.362  -6.448   3.729  0.00  0.00    -0.031 C 
ATOM     25  C   UNL     1       0.674  -7.032   2.348  0.00  0.00    +0.003 C 
ATOM     26  C   UNL     1       0.677  -5.901   1.315  0.00  0.00    -0.031 C 
ATOM     27  C   UNL     1       1.692  -4.835   1.737  0.00  0.00    -0.076 C 
ATOM     28  N   UNL     1       1.324  -4.298   3.053  0.00  0.00    +0.380 N 
ATOM     29  C   UNL     1       1.388  -5.363   4.062  0.00  0.00    -0.076 C 
ATOM     30  C   UNL     1       1.063  -6.461  -0.055  0.00  0.00    +0.005 C 
ATOM     31  H   UNL     1       0.386  -3.929   3.014  0.00  0.00    -0.082 HD
ENDBRANCH  22  28
ENDBRANCH  21  22
ENDBRANCH  20  21
ENDBRANCH  16  20
ENDBRANCH   1  17
BRANCH  14  32
ATOM     32  C   UNL     1      -0.102   2.000   7.644  0.00  0.00    +0.144 C 
BRANCH  32  33
ATOM     33  C   UNL     1      -0.573   1.772   6.231  0.00  0.00    -0.026 A 
ATOM     34  C   UNL     1       0.183   2.233   5.169  0.00  0.00    +0.009 A 
ATOM     35  C   UNL     1      -0.245   2.026   3.871  0.00  0.00    +0.050 A 
ATOM     36  C   UNL     1      -1.434   1.356   3.631  0.00  0.00    +0.166 A 
ATOM     37  C   UNL     1      -2.195   0.892   4.701  0.00  0.00    +0.167 A 
ATOM     38  C   UNL     1      -1.758   1.098   5.999  0.00  0.00    +0.054 A 
ATOM     39  O   UNL     1      -3.308   0.274   4.208  0.00  0.00    -0.453 OA
ATOM     40  C   UNL     1      -3.424   0.720   2.844  0.00  0.00    +0.466 C 
ATOM     41  O   UNL     1      -2.069   1.028   2.468  0.00  0.00    -0.453 OA
ENDBRANCH  32  33
ENDBRANCH  14  32
TORSDOF 7
