REMARK  Name = ZINC00733393
REMARK  16 active torsions:
REMARK  status: ('A' for Active; 'I' for Inactive)
REMARK    1  A    between atoms: C_1  and  C_2
REMARK    2  A    between atoms: C_2  and  N_3
REMARK    3  A    between atoms: N_3  and  C_4
REMARK    4  A    between atoms: C_4  and  C_5
REMARK    5  A    between atoms: N_7  and  C_8
REMARK    6  A    between atoms: C_10  and  C_21
REMARK    7  A    between atoms: N_12  and  C_13
REMARK    8  A    between atoms: C_16  and  O_19
REMARK    9  A    between atoms: O_19  and  C_20
REMARK   10  A    between atoms: C_21  and  C_22
REMARK   11  A    between atoms: C_21  and  C_23
REMARK   12  A    between atoms: C_21  and  C_24
REMARK   13  A    between atoms: C_25  and  C_27
REMARK   14  A    between atoms: C_27  and  C_28
REMARK   15  A    between atoms: C_31  and  O_34
REMARK   16  A    between atoms: O_34  and  C_35
REMARK                            x       y       z     vdW  Elec       q    Type
REMARK                         _______ _______ _______ _____ _____    ______ ____
ROOT
ATOM      1  C   UNL     1       2.641  -4.636  -3.569  0.00  0.00    +0.236 C 
ATOM      2  O   UNL     1       3.567  -4.366  -2.834  0.00  0.00    -0.274 OA
ATOM      3  N   UNL     1       2.880  -5.068  -4.823  0.00  0.00    -0.269 N 
ATOM      4  H   UNL     1       2.139  -5.284  -5.411  0.00  0.00    +0.156 HD
ENDROOT
BRANCH   3   5
ATOM      5  C   UNL     1       4.192  -5.206  -5.275  0.00  0.00    +0.129 A 
ATOM      6  C   UNL     1       5.321  -4.941  -4.562  0.00  0.00    +0.069 A 
ATOM      7  C   UNL     1       6.420  -5.210  -5.383  0.00  0.00    +0.071 A 
ATOM      8  N   UNL     1       5.979  -5.621  -6.545  0.00  0.00    -0.169 NA
ATOM      9  N   UNL     1       4.579  -5.634  -6.507  0.00  0.00    -0.218 N 
BRANCH   9  10
ATOM     10  C   UNL     1       3.727  -6.018  -7.554  0.00  0.00    +0.068 A 
ATOM     11  C   UNL     1       2.537  -6.675  -7.275  0.00  0.00    +0.031 A 
ATOM     12  C   UNL     1       1.696  -7.048  -8.305  0.00  0.00    +0.048 A 
ATOM     13  C   UNL     1       2.046  -6.774  -9.619  0.00  0.00    +0.120 A 
ATOM     14  C   UNL     1       3.239  -6.122  -9.899  0.00  0.00    +0.048 A 
ATOM     15  C   UNL     1       4.077  -5.745  -8.869  0.00  0.00    +0.031 A 
BRANCH  13  16
ATOM     16  O   UNL     1       1.221  -7.146 -10.634  0.00  0.00    -0.495 OA
ATOM     17  C   UNL     1       0.010  -7.813 -10.273  0.00  0.00    +0.277 C 
ENDBRANCH  13  16
ENDBRANCH   9  10
BRANCH   7  18
ATOM     18  C   UNL     1       7.868  -5.055  -4.995  0.00  0.00    +0.006 C 
ATOM     19  C   UNL     1       8.273  -6.203  -4.068  0.00  0.00    +0.017 C 
ATOM     20  C   UNL     1       8.739  -5.084  -6.253  0.00  0.00    +0.017 C 
ATOM     21  C   UNL     1       8.062  -3.721  -4.271  0.00  0.00    +0.017 C 
ENDBRANCH   7  18
ENDBRANCH   3   5
BRANCH   1  22
ATOM     22  C   UNL     1       1.223  -4.487  -3.081  0.00  0.00    +0.203 C 
BRANCH  22  23
ATOM     23  N   UNL     1       1.231  -4.006  -1.697  0.00  0.00    -0.293 N 
ATOM     24  C   UNL     1       1.218  -2.682  -1.444  0.00  0.00    +0.220 C 
ATOM     25  O   UNL     1       1.199  -1.889  -2.362  0.00  0.00    -0.275 OA
BRANCH  23  27
ATOM     26  C   UNL     1      -0.182  -5.314  -0.189  0.00  0.00    +0.024 C 
ATOM     27  C   UNL     1       1.252  -4.963  -0.589  0.00  0.00    +0.105 C 
ENDBRANCH  23  27
BRANCH  24  28
ATOM     28  C   UNL     1       1.226  -2.187  -0.021  0.00  0.00    +0.131 C 
BRANCH  28  29
ATOM     29  C   UNL     1       1.208  -0.680  -0.013  0.00  0.00    -0.038 A 
ATOM     30  C   UNL     1       0.002  -0.004   0.002  0.00  0.00    +0.007 A 
ATOM     31  C   UNL     1      -0.017   1.377   0.010  0.00  0.00    +0.046 A 
ATOM     32  C   UNL     1       1.176   2.086   0.002  0.00  0.00    +0.120 A 
ATOM     33  C   UNL     1       2.385   1.405  -0.013  0.00  0.00    +0.046 A 
ATOM     34  C   UNL     1       2.398   0.024  -0.021  0.00  0.00    +0.007 A 
BRANCH  32  35
ATOM     35  O   UNL     1       1.160   3.445   0.009  0.00  0.00    -0.495 OA
ATOM     36  C   UNL     1       2.426   4.108   0.001  0.00  0.00    +0.277 C 
ENDBRANCH  32  35
ENDBRANCH  28  29
ENDBRANCH  24  28
ENDBRANCH  22  23
ENDBRANCH   1  22
TORSDOF 10
