REMARK  Name = ZINC39710519
REMARK  13 active torsions:
REMARK  status: ('A' for Active; 'I' for Inactive)
REMARK    1  A    between atoms: C_1  and  C_2
REMARK    2  A    between atoms: C_2  and  C_3
REMARK    3  A    between atoms: C_10  and  C_15
REMARK    4  A    between atoms: C_15  and  C_17
REMARK    5  A    between atoms: C_15  and  N_26
REMARK    6  A    between atoms: N_21  and  C_22
REMARK    7  A    between atoms: C_22  and  C_23
REMARK    8  A    between atoms: C_23  and  O_24
REMARK    9  A    between atoms: O_24  and  C_25
REMARK   10  A    between atoms: N_26  and  C_27
REMARK   11  A    between atoms: N_26  and  C_34
REMARK   12  A    between atoms: C_27  and  C_28
REMARK   13  A    between atoms: C_34  and  C_35
REMARK                            x       y       z     vdW  Elec       q    Type
REMARK                         _______ _______ _______ _____ _____    ______ ____
ROOT
ATOM      1  C   UNL     1       6.046  -0.615  -4.529  0.00  0.00    +0.019 C 
ENDROOT
BRANCH   1   9
ATOM      2  C   UNL     1       1.402   1.526  -1.719  0.00  0.00    -0.047 A 
ATOM      3  C   UNL     1       0.578   1.320  -2.825  0.00  0.00    +0.005 A 
ATOM      4  C   UNL     1       0.959   0.573  -3.894  0.00  0.00    +0.024 A 
ATOM      5  C   UNL     1       2.228  -0.033  -3.926  0.00  0.00    +0.040 A 
ATOM      6  N   UNL     1       2.591  -0.763  -4.980  0.00  0.00    -0.285 N 
ATOM      7  C   UNL     1       3.767  -1.360  -5.074  0.00  0.00    +0.223 C 
ATOM      8  O   UNL     1       4.043  -2.014  -6.063  0.00  0.00    -0.275 OA
ATOM      9  C   UNL     1       4.769  -1.226  -3.950  0.00  0.00    +0.092 C 
ATOM     10  C   UNL     1       4.361  -0.396  -2.748  0.00  0.00    -0.006 C 
ATOM     11  C   UNL     1       3.120   0.168  -2.771  0.00  0.00    -0.007 A 
ATOM     12  C   UNL     1       2.648   0.989  -1.655  0.00  0.00    +0.013 A 
ATOM     13  H   UNL     1       1.963  -0.862  -5.713  0.00  0.00    +0.155 HD
BRANCH   2  15
ATOM     14  C   UNL     1       1.276   3.833  -0.817  0.00  0.00    +0.009 C 
ATOM     15  C   UNL     1       0.903   2.369  -0.574  0.00  0.00    +0.032 C 
ENDBRANCH   2  15
ENDBRANCH   1   9
BRANCH   1  16
ATOM     16  C   UNL     1       5.712   0.673  -5.236  0.00  0.00    +0.139 A 
ATOM     17  N   UNL     1       5.123   0.797  -6.400  0.00  0.00    -0.115 NA
ATOM     18  N   UNL     1       5.015   2.054  -6.660  0.00  0.00    -0.023 NA
ATOM     19  N   UNL     1       5.518   2.736  -5.690  0.00  0.00    -0.044 NA
ATOM     20  N   UNL     1       5.954   1.920  -4.790  0.00  0.00    -0.229 N 
BRANCH  20  21
ATOM     21  C   UNL     1       6.594   2.283  -3.524  0.00  0.00    +0.175 C 
BRANCH  21  22
ATOM     22  C   UNL     1       8.107   2.390  -3.730  0.00  0.00    +0.183 C 
BRANCH  22  23
ATOM     23  O   UNL     1       8.732   2.744  -2.494  0.00  0.00    -0.381 OA
ATOM     24  C   UNL     1      10.153   2.871  -2.577  0.00  0.00    +0.194 C 
ENDBRANCH  22  23
ENDBRANCH  21  22
ENDBRANCH  20  21
ENDBRANCH   1  16
BRANCH   1  25
ATOM     25  N   UNL     1       6.649  -1.555  -5.483  0.00  0.00    +0.394 N 
ATOM     26  H   UNL     1       5.960  -1.827  -6.168  0.00  0.00    -0.080 HD
BRANCH  25  27
ATOM     27  C   UNL     1       7.782  -0.908  -6.159  0.00  0.00    -0.041 C 
BRANCH  27  28
ATOM     28  C   UNL     1       8.323  -1.827  -7.224  0.00  0.00    -0.064 A 
ATOM     29  C   UNL     1       9.319  -2.734  -6.913  0.00  0.00    +0.002 A 
ATOM     30  C   UNL     1       9.816  -3.576  -7.890  0.00  0.00    +0.000 A 
ATOM     31  C   UNL     1       9.316  -3.512  -9.177  0.00  0.00    +0.000 A 
ATOM     32  C   UNL     1       8.320  -2.606  -9.488  0.00  0.00    +0.000 A 
ATOM     33  C   UNL     1       7.820  -1.766  -8.510  0.00  0.00    +0.002 A 
ENDBRANCH  27  28
ENDBRANCH  25  27
BRANCH  25  34
ATOM     34  C   UNL     1       7.123  -2.746  -4.765  0.00  0.00    -0.002 C 
BRANCH  34  35
ATOM     35  C   UNL     1       6.008  -3.756  -4.677  0.00  0.00    +0.089 A 
ATOM     36  C   UNL     1       5.540  -4.502  -5.694  0.00  0.00    +0.042 A 
ATOM     37  C   UNL     1       4.503  -5.306  -5.168  0.00  0.00    +0.041 A 
ATOM     38  C   UNL     1       4.399  -5.003  -3.861  0.00  0.00    +0.195 A 
ATOM     39  O   UNL     1       5.317  -4.068  -3.568  0.00  0.00    -0.470 OA
ENDBRANCH  34  35
ENDBRANCH  25  34
ENDBRANCH   1  25
TORSDOF 11
