REMARK  Name = ZINC01407683
REMARK  15 active torsions:
REMARK  status: ('A' for Active; 'I' for Inactive)
REMARK    1  A    between atoms: C_1  and  C_2
REMARK    2  A    between atoms: C_5  and  C_8
REMARK    3  A    between atoms: C_8  and  N_9
REMARK    4  A    between atoms: N_9  and  C_10
REMARK    5  A    between atoms: C_10  and  C_12
REMARK    6  A    between atoms: C_10  and  C_21
REMARK    7  A    between atoms: N_23  and  C_24
REMARK    8  A    between atoms: C_27  and  N_30
REMARK    9  A    between atoms: N_30  and  C_31
REMARK   10  A    between atoms: N_30  and  C_32
REMARK   11  A    between atoms: C_33  and  C_35
REMARK   12  A    between atoms: C_35  and  S_36
REMARK   13  A    between atoms: S_36  and  C_37
REMARK   14  A    between atoms: C_39  and  C_44
REMARK   15  A    between atoms: C_41  and  C_43
REMARK                            x       y       z     vdW  Elec       q    Type
REMARK                         _______ _______ _______ _____ _____    ______ ____
ROOT
ATOM      1  C   UNL     1       0.238   3.795  -0.256  0.00  0.00    +0.193 C 
ENDROOT
BRANCH   1   2
ATOM      2  C   UNL     1       1.539   4.433  -0.672  0.00  0.00    -0.014 A 
ATOM      3  C   UNL     1       2.372   3.784  -1.564  0.00  0.00    +0.010 A 
ATOM      4  C   UNL     1       3.563   4.367  -1.952  0.00  0.00    +0.050 A 
ATOM      5  C   UNL     1       3.930   5.601  -1.439  0.00  0.00    +0.166 A 
ATOM      6  C   UNL     1       3.094   6.253  -0.537  0.00  0.00    +0.167 A 
ATOM      7  C   UNL     1       1.899   5.664  -0.156  0.00  0.00    +0.055 A 
ATOM      8  O   UNL     1       3.673   7.437  -0.183  0.00  0.00    -0.453 OA
ATOM      9  C   UNL     1       4.673   7.691  -1.186  0.00  0.00    +0.466 C 
ATOM     10  O   UNL     1       5.033   6.377  -1.651  0.00  0.00    -0.453 OA
ENDBRANCH   1   2
BRANCH   1  11
ATOM     11  C   UNL     1       0.508   2.735   0.781  0.00  0.00    +0.242 C 
ATOM     12  O   UNL     1       1.027   1.688   0.457  0.00  0.00    -0.273 OA
ATOM     13  N   UNL     1       0.172   2.951   2.068  0.00  0.00    -0.284 N 
ATOM     14  H   UNL     1      -0.323   3.748   2.313  0.00  0.00    +0.155 HD
BRANCH  13  15
ATOM     15  C   UNL     1       0.538   2.023   3.053  0.00  0.00    +0.034 A 
ATOM     16  C   UNL     1      -0.280   1.823   4.157  0.00  0.00    +0.025 A 
ATOM     17  C   UNL     1       0.078   0.905   5.124  0.00  0.00    +0.025 A 
ATOM     18  C   UNL     1       1.262   0.190   4.998  0.00  0.00    +0.029 A 
ATOM     19  C   UNL     1       2.083   0.394   3.897  0.00  0.00    +0.025 A 
ATOM     20  C   UNL     1       1.722   1.308   2.927  0.00  0.00    +0.025 A 
BRANCH  18  21
ATOM     21  N   UNL     1       1.627  -0.737   5.980  0.00  0.00    -0.336 N 
ATOM     22  C   UNL     1       2.875  -1.492   5.848  0.00  0.00    +0.129 C 
ATOM     23  C   UNL     1       0.760  -0.953   7.142  0.00  0.00    +0.129 C 
ENDBRANCH  18  21
ENDBRANCH  13  15
ENDBRANCH   1  11
BRANCH   1  24
ATOM     24  N   UNL     1      -0.402   3.184  -1.424  0.00  0.00    -0.281 N 
ATOM     25  C   UNL     1      -1.491   3.758  -1.972  0.00  0.00    +0.227 C 
ATOM     26  O   UNL     1      -1.889   4.825  -1.556  0.00  0.00    -0.275 OA
BRANCH  24  27
ATOM     27  C   UNL     1       0.143   1.950  -1.996  0.00  0.00    +0.144 C 
BRANCH  27  32
ATOM     28  C   UNL     1      -3.711  -2.314  -1.398  0.00  0.00    +0.044 C 
ATOM     29  C   UNL     1      -2.705  -1.202  -1.554  0.00  0.00    -0.050 A 
ATOM     30  C   UNL     1      -1.696  -1.309  -2.493  0.00  0.00    +0.003 A 
ATOM     31  C   UNL     1      -0.774  -0.289  -2.635  0.00  0.00    +0.005 A 
ATOM     32  C   UNL     1      -0.862   0.838  -1.840  0.00  0.00    -0.030 A 
ATOM     33  C   UNL     1      -1.868   0.943  -0.898  0.00  0.00    +0.005 A 
ATOM     34  C   UNL     1      -2.793  -0.075  -0.758  0.00  0.00    +0.003 A 
ENDBRANCH  27  32
ENDBRANCH  24  27
BRANCH  25  35
ATOM     35  C   UNL     1      -2.212   3.075  -3.106  0.00  0.00    +0.173 C 
BRANCH  35  36
ATOM     36  S   UNL     1      -3.506   4.168  -3.743  0.00  0.00    -0.077 S 
BRANCH  36  37
ATOM     37  C   UNL     1      -4.166   3.149  -5.020  0.00  0.00    +0.189 A 
ATOM     38  N   UNL     1      -3.641   1.949  -5.227  0.00  0.00    -0.227 NA
ATOM     39  C   UNL     1      -4.117   1.157  -6.173  0.00  0.00    +0.043 A 
ATOM     40  C   UNL     1      -5.169   1.600  -6.960  0.00  0.00    +0.046 A 
ATOM     41  C   UNL     1      -5.691   2.862  -6.721  0.00  0.00    +0.043 A 
ATOM     42  N   UNL     1      -5.172   3.602  -5.755  0.00  0.00    -0.227 NA
ATOM     43  C   UNL     1      -6.835   3.384  -7.551  0.00  0.00    +0.066 C 
ATOM     44  C   UNL     1      -3.519  -0.208  -6.397  0.00  0.00    +0.066 C 
ENDBRANCH  36  37
ENDBRANCH  35  36
ENDBRANCH  25  35
ENDBRANCH   1  24
TORSDOF 10
