REMARK  Name = ZINC40370946
REMARK  8 active torsions:
REMARK  status: ('A' for Active; 'I' for Inactive)
REMARK    1  A    between atoms: C_1  and  C_2
REMARK    2  A    between atoms: C_2  and  C_3
REMARK    3  A    between atoms: C_3  and  C_4
REMARK    4  A    between atoms: C_3  and  C_6
REMARK    5  A    between atoms: C_3  and  N_10
REMARK    6  A    between atoms: C_4  and  C_5
REMARK    7  A    between atoms: N_7  and  O_8
REMARK    8  A    between atoms: C_11  and  C_13
REMARK                            x       y       z     vdW  Elec       q    Type
REMARK                         _______ _______ _______ _____ _____    ______ ____
ROOT
ATOM      1  C   UNL     1       0.765  -0.600  -1.195  0.00  0.00    +0.093 C 
ENDROOT
BRANCH   1   2
ATOM      2  C   UNL     1       0.138  -0.101  -2.472  0.00  0.00    +0.155 C 
ATOM      3  N   UNL     1      -0.533  -0.912  -3.222  0.00  0.00    -0.075 NA
ATOM      4  N   UNL     1       0.281   1.218  -2.840  0.00  0.00    -0.342 N 
ATOM      5  H   UNL     1       0.715   1.844  -2.240  0.00  0.00    +0.144 HD
ATOM      6  H   UNL     1      -0.054   1.521  -3.698  0.00  0.00    +0.144 HD
BRANCH   3   7
ATOM      7  O   UNL     1      -1.122  -0.444  -4.421  0.00  0.00    -0.408 OA
ATOM      8  H   UNL     1      -1.603  -1.122  -4.914  0.00  0.00    +0.328 HD
ENDBRANCH   3   7
ENDBRANCH   1   2
BRANCH   1   9
ATOM      9  N   UNL     1       2.194  -0.278  -1.195  0.00  0.00    -0.299 N 
ATOM     10  C   UNL     1       2.964  -0.630  -0.146  0.00  0.00    +0.251 C 
ATOM     11  O   UNL     1       2.471  -1.216   0.801  0.00  0.00    -0.270 OA
ATOM     12  H   UNL     1       2.586   0.188  -1.950  0.00  0.00    +0.150 HD
BRANCH  10  13
ATOM     13  C   UNL     1       4.393  -0.309  -0.146  0.00  0.00    +0.075 A 
ATOM     14  C   UNL     1       5.350  -0.583   0.820  0.00  0.00    +0.022 A 
ATOM     15  C   UNL     1       6.624  -0.153   0.537  0.00  0.00    +0.024 A 
ATOM     16  C   UNL     1       6.856   0.494  -0.634  0.00  0.00    +0.056 A 
ATOM     17  S   UNL     1       5.356   0.530  -1.389  0.00  0.00    -0.077 S 
ATOM     18 BR   UNL     1       8.495   1.188  -1.273  0.00  0.00    -0.043 Br
ENDBRANCH  10  13
ENDBRANCH   1   9
BRANCH   1  20
ATOM     19  C   UNL     1      -1.421  -0.154  -0.071  0.00  0.00    +0.006 C 
ATOM     20  C   UNL     1       0.090   0.074   0.001  0.00  0.00    +0.030 C 
ENDBRANCH   1  20
BRANCH   1  21
ATOM     21  C   UNL     1       0.583  -2.116  -1.096  0.00  0.00    +0.030 C 
ATOM     22  C   UNL     1       1.362  -2.798  -2.223  0.00  0.00    +0.006 C 
ENDBRANCH   1  21
TORSDOF 6
