REMARK  Name = ZINC05551009
REMARK  7 active torsions:
REMARK  status: ('A' for Active; 'I' for Inactive)
REMARK    1  A    between atoms: C_1  and  C_2
REMARK    2  A    between atoms: C_4  and  O_23
REMARK    3  A    between atoms: C_6  and  O_22
REMARK    4  A    between atoms: C_8  and  C_10
REMARK    5  A    between atoms: C_8  and  N_12
REMARK    6  A    between atoms: C_10  and  O_11
REMARK    7  A    between atoms: C_20  and  N_21
REMARK                            x       y       z     vdW  Elec       q    Type
REMARK                         _______ _______ _______ _____ _____    ______ ____
ROOT
ATOM      1  C   UNL     1       1.770   4.133   0.268  0.00  0.00    +0.041 C 
ATOM      2  C   UNL     1       1.369   2.841   0.983  0.00  0.00    +0.149 C 
ATOM      3  C   UNL     1       1.426   1.658  -0.003  0.00  0.00    +0.176 C 
ATOM      4  C   UNL     1      -0.013   1.086   0.008  0.00  0.00    +0.201 C 
ATOM      5  C   UNL     1      -0.566   1.624   1.352  0.00  0.00    +0.201 C 
ATOM      6  O   UNL     1       0.014   2.942   1.451  0.00  0.00    -0.343 OA
ENDROOT
BRANCH   5   7
ATOM      7  N   UNL     1      -0.125   0.781   2.466  0.00  0.00    -0.281 N 
ATOM      8  C   UNL     1       0.626   1.180   3.531  0.00  0.00    +0.204 A 
ATOM      9  N   UNL     1       0.831   0.175   4.332  0.00  0.00    -0.231 NA
ATOM     10  C   UNL     1       0.233  -0.931   3.830  0.00  0.00    +0.147 A 
ATOM     11  C   UNL     1      -0.388  -0.556   2.626  0.00  0.00    +0.168 A 
ATOM     12  N   UNL     1      -1.052  -1.472   1.929  0.00  0.00    -0.216 NA
ATOM     13  C   UNL     1      -1.130  -2.714   2.357  0.00  0.00    +0.225 A 
ATOM     14  N   UNL     1      -0.564  -3.114   3.480  0.00  0.00    -0.219 NA
ATOM     15  C   UNL     1       0.121  -2.269   4.244  0.00  0.00    +0.147 A 
BRANCH  15  16
ATOM     16  N   UNL     1       0.712  -2.698   5.420  0.00  0.00    -0.341 N 
ATOM     17  H   UNL     1       1.700  -2.549   5.370  0.00  0.00    +0.144 HD
ATOM     18  H   UNL     1       0.628  -3.624   5.696  0.00  0.00    +0.144 HD
ENDBRANCH  15  16
ENDBRANCH   5   7
BRANCH   4  19
ATOM     19  O   UNL     1      -0.770   1.589  -1.094  0.00  0.00    -0.384 OA
ATOM     20  H   UNL     1      -0.434   1.317  -1.959  0.00  0.00    +0.210 HD
ENDBRANCH   4  19
BRANCH   3  21
ATOM     21  O   UNL     1       2.358   0.674   0.450  0.00  0.00    -0.387 OA
ATOM     22  H   UNL     1       3.276   0.979   0.463  0.00  0.00    +0.210 HD
ENDBRANCH   3  21
BRANCH   5  23
ATOM     23  C   UNL     1      -2.093   1.709   1.310  0.00  0.00    +0.216 C 
BRANCH  23  24
ATOM     24  O   UNL     1      -2.577   2.207   2.559  0.00  0.00    -0.390 OA
ATOM     25  H   UNL     1      -3.539   2.288   2.605  0.00  0.00    +0.210 HD
ENDBRANCH  23  24
ENDBRANCH   5  23
TORSDOF 6
