REMARK  Name = ZINC37378584
REMARK  11 active torsions:
REMARK  status: ('A' for Active; 'I' for Inactive)
REMARK    1  A    between atoms: C_1  and  C_2
REMARK    2  A    between atoms: C_2  and  C_3
REMARK    3  A    between atoms: C_3  and  C_4
REMARK    4  A    between atoms: C_8  and  C_18
REMARK    5  A    between atoms: N_10  and  C_11
REMARK    6  A    between atoms: C_19  and  N_21
REMARK    7  A    between atoms: C_28  and  C_30
REMARK    8  A    between atoms: C_32  and  O_38
REMARK    9  A    between atoms: C_34  and  O_36
REMARK   10  A    between atoms: O_36  and  C_37
REMARK   11  A    between atoms: O_38  and  C_39
REMARK                            x       y       z     vdW  Elec       q    Type
REMARK                         _______ _______ _______ _____ _____    ______ ____
ROOT
ATOM      1  C   UNL     1      -4.468  -4.421  -1.559  0.00  0.00    +0.134 A 
ATOM      2  N   UNL     1      -3.626  -3.901  -2.424  0.00  0.00    -0.212 NA
ATOM      3  C   UNL     1      -2.382  -3.592  -2.061  0.00  0.00    +0.169 A 
ATOM      4  C   UNL     1      -1.983  -3.833  -0.732  0.00  0.00    +0.082 A 
ATOM      5  C   UNL     1      -0.637  -3.421  -0.623  0.00  0.00    +0.073 A 
ATOM      6  N   UNL     1      -0.248  -2.968  -1.781  0.00  0.00    -0.169 NA
ATOM      7  N   UNL     1      -1.301  -3.058  -2.701  0.00  0.00    -0.214 N 
ATOM      8  C   UNL     1       0.207  -3.491   0.624  0.00  0.00    +0.068 C 
ATOM      9  C   UNL     1      -2.923  -4.391   0.156  0.00  0.00    +0.136 A 
ATOM     10  N   UNL     1      -4.141  -4.660  -0.301  0.00  0.00    -0.217 NA
ENDROOT
BRANCH   9  11
ATOM     11  N   UNL     1      -2.588  -4.648   1.471  0.00  0.00    -0.313 N 
ATOM     12  C   UNL     1      -2.924  -3.640   2.488  0.00  0.00    +0.108 C 
ATOM     13  C   UNL     1      -3.502  -4.261   3.763  0.00  0.00    +0.038 C 
ATOM     14  C   UNL     1      -4.467  -5.377   3.415  0.00  0.00    +0.109 C 
ATOM     15  N   UNL     1      -3.695  -6.610   3.260  0.00  0.00    -0.296 N 
ATOM     16  C   UNL     1      -2.999  -6.981   2.077  0.00  0.00    +0.127 C 
ATOM     17  C   UNL     1      -1.927  -5.904   1.782  0.00  0.00    +0.125 C 
ATOM     18  C   UNL     1      -3.639  -7.452   4.311  0.00  0.00    +0.247 C 
ATOM     19  O   UNL     1      -2.914  -8.427   4.271  0.00  0.00    -0.270 OA
BRANCH  18  20
ATOM     20  C   UNL     1      -4.461  -7.190   5.512  0.00  0.00    +0.044 A 
ATOM     21  C   UNL     1      -4.749  -5.878   5.890  0.00  0.00    +0.059 A 
ATOM     22  C   UNL     1      -5.520  -5.637   7.015  0.00  0.00    +0.124 A 
ATOM     23  C   UNL     1      -6.004  -6.698   7.767  0.00  0.00    +0.091 A 
ATOM     24  C   UNL     1      -5.719  -8.004   7.395  0.00  0.00    +0.124 A 
ATOM     25  C   UNL     1      -4.955  -8.254   6.268  0.00  0.00    +0.059 A 
BRANCH  24  26
ATOM     26  O   UNL     1      -6.196  -9.039   8.135  0.00  0.00    -0.495 OA
ATOM     27  C   UNL     1      -6.982  -8.710   9.282  0.00  0.00    +0.277 C 
ENDBRANCH  24  26
BRANCH  22  28
ATOM     28  O   UNL     1      -5.801  -4.360   7.384  0.00  0.00    -0.495 OA
ATOM     29  C   UNL     1      -6.601  -4.184   8.556  0.00  0.00    +0.277 C 
ENDBRANCH  22  28
ENDBRANCH  18  20
ENDBRANCH   9  11
BRANCH   7  30
ATOM     30  C   UNL     1      -1.252  -2.666  -4.045  0.00  0.00    +0.068 A 
ATOM     31  C   UNL     1      -1.962  -3.377  -5.003  0.00  0.00    +0.030 A 
ATOM     32  C   UNL     1      -1.914  -2.989  -6.327  0.00  0.00    +0.040 A 
ATOM     33  C   UNL     1      -1.157  -1.891  -6.701  0.00  0.00    +0.124 A 
ATOM     34  C   UNL     1      -0.448  -1.180  -5.747  0.00  0.00    +0.040 A 
ATOM     35  C   UNL     1      -0.498  -1.561  -4.421  0.00  0.00    +0.030 A 
ATOM     36  F   UNL     1      -1.110  -1.513  -7.997  0.00  0.00    -0.205 F 
ENDBRANCH   7  30
BRANCH   1  37
ATOM     37  C   UNL     1      -5.865  -4.752  -2.018  0.00  0.00    +0.076 C 
BRANCH  37  39
ATOM     38  C   UNL     1      -8.190  -3.875  -2.276  0.00  0.00    +0.004 C 
ATOM     39  C   UNL     1      -6.772  -3.538  -1.809  0.00  0.00    +0.004 C 
ENDBRANCH  37  39
ENDBRANCH   1  37
TORSDOF 7
