REMARK  Name = ZINC40784198
REMARK  6 active torsions:
REMARK  status: ('A' for Active; 'I' for Inactive)
REMARK    1  A    between atoms: C_1  and  C_2
REMARK    2  A    between atoms: C_5  and  C_8
REMARK    3  A    between atoms: N_10  and  N_11
REMARK    4  A    between atoms: C_13  and  N_30
REMARK    5  A    between atoms: C_14  and  O_18
REMARK    6  A    between atoms: O_18  and  C_19
REMARK                            x       y       z     vdW  Elec       q    Type
REMARK                         _______ _______ _______ _____ _____    ______ ____
ROOT
ATOM      1  N   UNL     1      -0.101  -6.328   1.156  0.00  0.00    -0.246 N 
ATOM      2  C   UNL     1      -0.078  -7.036   2.351  0.00  0.00    +0.163 A 
ATOM      3  C   UNL     1       0.042  -8.428   2.349  0.00  0.00    +0.129 A 
ATOM      4  C   UNL     1       0.060  -9.089   3.576  0.00  0.00    +0.246 A 
ATOM      5  N   UNL     1      -0.036  -8.375   4.694  0.00  0.00    -0.199 NA
ATOM      6  C   UNL     1      -0.147  -7.063   4.654  0.00  0.00    +0.227 A 
ATOM      7  N   UNL     1      -0.164  -6.398   3.515  0.00  0.00    -0.217 NA
ATOM      8  H   UNL     1      -0.038  -6.800   0.311  0.00  0.00    +0.172 HD
ENDROOT
BRANCH   1  11
ATOM      9  C   UNL     1      -0.238  -4.245   0.011  0.00  0.00    +0.260 C 
ATOM     10  O   UNL     1      -0.159  -4.837  -1.048  0.00  0.00    -0.269 OA
ATOM     11  N   UNL     1      -0.216  -4.932   1.171  0.00  0.00    -0.231 N 
ATOM     12  H   UNL     1      -0.279  -4.459   2.015  0.00  0.00    +0.173 HD
BRANCH   9  17
ATOM     13  C   UNL     1      -0.710   1.490   0.072  0.00  0.00    +0.044 C 
ATOM     14  C   UNL     1      -0.587  -0.012   0.056  0.00  0.00    -0.050 A 
ATOM     15  C   UNL     1      -0.496  -0.683  -1.151  0.00  0.00    +0.004 A 
ATOM     16  C   UNL     1      -0.383  -2.058  -1.172  0.00  0.00    +0.013 A 
ATOM     17  C   UNL     1      -0.359  -2.772   0.027  0.00  0.00    +0.038 A 
ATOM     18  C   UNL     1      -0.451  -2.089   1.240  0.00  0.00    +0.013 A 
ATOM     19  C   UNL     1      -0.558  -0.713   1.248  0.00  0.00    +0.004 A 
ENDBRANCH   9  17
ENDBRANCH   1  11
BRANCH   3  20
ATOM     20  N   UNL     1       0.140  -9.142   1.145  0.00  0.00    -0.351 N 
ATOM     21  H   UNL     1       0.125  -8.669   0.298  0.00  0.00    +0.143 HD
ATOM     22  H   UNL     1       0.223 -10.108   1.159  0.00  0.00    +0.143 HD
ENDBRANCH   3  20
BRANCH   4  23
ATOM     23  O   UNL     1       0.174 -10.439   3.629  0.00  0.00    -0.434 OA
BRANCH  23  24
ATOM     24  C   UNL     1       0.293 -11.022   4.851  0.00  0.00    +0.156 A 
ATOM     25  C   UNL     1       1.538 -11.303   5.367  0.00  0.00    +0.049 A 
ATOM     26  C   UNL     1       1.674 -11.899   6.617  0.00  0.00    +0.019 A 
ATOM     27  C   UNL     1       0.581 -12.221   7.363  0.00  0.00    +0.027 A 
ATOM     28  C   UNL     1      -0.707 -11.949   6.870  0.00  0.00    +0.018 A 
ATOM     29  C   UNL     1      -0.859 -11.338   5.602  0.00  0.00    +0.114 A 
ATOM     30  N   UNL     1      -2.081 -11.074   5.132  0.00  0.00    -0.251 NA
ATOM     31  C   UNL     1      -3.155 -11.365   5.825  0.00  0.00    +0.111 A 
ATOM     32  C   UNL     1      -3.077 -11.962   7.082  0.00  0.00    +0.020 A 
ATOM     33  C   UNL     1      -1.857 -12.269   7.615  0.00  0.00    +0.013 A 
ATOM     34 BR   UNL     1       0.795 -13.032   9.058  0.00  0.00    -0.050 Br
ENDBRANCH  23  24
ENDBRANCH   4  23
TORSDOF 5
