REMARK  Name = ZINC39145871
REMARK  4 active torsions:
REMARK  status: ('A' for Active; 'I' for Inactive)
REMARK    1  A    between atoms: C_4  and  O_32
REMARK    2  A    between atoms: C_5  and  C_7
REMARK    3  A    between atoms: N_22  and  C_25
REMARK    4  A    between atoms: C_28  and  O_31
REMARK                            x       y       z     vdW  Elec       q    Type
REMARK                         _______ _______ _______ _____ _____    ______ ____
ROOT
ATOM      1  C   UNL     1       1.295  -2.180  -0.042  0.00  0.00    +0.058 C 
ATOM      2  C   UNL     1       0.747  -2.712   1.284  0.00  0.00    +0.117 C 
ATOM      3  C   UNL     1      -0.552  -1.938   1.543  0.00  0.00    +0.082 C 
ATOM      4  N   UNL     1      -0.611  -1.404   2.726  0.00  0.00    -0.168 NA
ATOM      5  C   UNL     1       0.393  -1.406   3.623  0.00  0.00    +0.296 C 
ATOM      6  O   UNL     1       0.373  -1.056   4.789  0.00  0.00    -0.261 OA
ATOM      7  S   UNL     1       1.784  -2.080   2.667  0.00  0.00    -0.055 S 
ATOM      8  S   UNL     1      -1.733  -1.774   0.385  0.00  0.00    -0.110 S 
ATOM      9  C   UNL     1      -0.970  -2.111  -1.204  0.00  0.00    +0.092 C 
ATOM     10  C   UNL     1       0.414  -2.706  -1.167  0.00  0.00    +0.074 C 
ATOM     11  C   UNL     1       1.127  -2.467  -2.517  0.00  0.00    +0.114 C 
ATOM     12  C   UNL     1       1.372  -3.864  -3.042  0.00  0.00    +0.227 C 
ATOM     13  O   UNL     1       1.916  -4.134  -4.091  0.00  0.00    -0.275 OA
ATOM     14  N   UNL     1       0.893  -4.755  -2.166  0.00  0.00    -0.210 N 
ATOM     15  C   UNL     1       0.333  -4.216  -1.077  0.00  0.00    +0.234 C 
ATOM     16  O   UNL     1      -0.161  -4.839  -0.161  0.00  0.00    -0.274 OA
ENDROOT
BRANCH   1  21
ATOM     17  C   UNL     1       0.061   1.380  -0.290  0.00  0.00    +0.001 A 
ATOM     18  C   UNL     1       1.215   2.095  -0.025  0.00  0.00    +0.004 A 
ATOM     19  C   UNL     1       2.397   1.429   0.235  0.00  0.00    +0.046 A 
ATOM     20  C   UNL     1       2.426   0.042   0.231  0.00  0.00    +0.120 A 
ATOM     21  C   UNL     1       1.267  -0.673  -0.036  0.00  0.00    -0.000 A 
ATOM     22  C   UNL     1       0.087  -0.002  -0.296  0.00  0.00    +0.007 A 
BRANCH  20  23
ATOM     23  O   UNL     1       3.588  -0.615   0.486  0.00  0.00    -0.506 OA
ATOM     24  H   UNL     1       3.731  -0.812   1.422  0.00  0.00    +0.292 HD
ENDBRANCH  20  23
ENDBRANCH   1  21
BRANCH  14  25
ATOM     25  C   UNL     1       0.972  -6.141  -2.372  0.00  0.00    +0.044 A 
ATOM     26  C   UNL     1      -0.185  -6.878  -2.589  0.00  0.00    +0.027 A 
ATOM     27  C   UNL     1      -0.106  -8.241  -2.793  0.00  0.00    +0.047 A 
ATOM     28  C   UNL     1       1.127  -8.875  -2.780  0.00  0.00    +0.117 A 
ATOM     29  C   UNL     1       2.283  -8.139  -2.563  0.00  0.00    +0.047 A 
ATOM     30  C   UNL     1       2.207  -6.775  -2.365  0.00  0.00    +0.027 A 
BRANCH  28  31
ATOM     31  O   UNL     1       1.204 -10.217  -2.981  0.00  0.00    -0.507 OA
ATOM     32  H   UNL     1       1.304 -10.472  -3.909  0.00  0.00    +0.292 HD
ENDBRANCH  28  31
ENDBRANCH  14  25
TORSDOF 4
