REMARK  Name = ZINC35032445
REMARK  12 active torsions:
REMARK  status: ('A' for Active; 'I' for Inactive)
REMARK    1  A    between atoms: C_1  and  C_2
REMARK    2  A    between atoms: C_2  and  C_3
REMARK    3  A    between atoms: C_3  and  N_4
REMARK    4  A    between atoms: C_14  and  C_15
REMARK    5  A    between atoms: C_15  and  C_17
REMARK    6  A    between atoms: C_15  and  N_18
REMARK    7  A    between atoms: N_18  and  C_19
REMARK    8  A    between atoms: C_19  and  C_20
REMARK    9  A    between atoms: C_20  and  N_21
REMARK   10  A    between atoms: N_21  and  C_22
REMARK   11  A    between atoms: N_21  and  C_23
REMARK   12  A    between atoms: N_26  and  C_27
REMARK                            x       y       z     vdW  Elec       q    Type
REMARK                         _______ _______ _______ _____ _____    ______ ____
ROOT
ATOM      1  N   UNL     1      -2.156  -2.618  -3.119  0.00  0.00    -0.277 N 
ATOM      2  C   UNL     1      -3.471  -2.422  -2.897  0.00  0.00    +0.307 C 
ATOM      3  O   UNL     1      -3.836  -1.547  -2.136  0.00  0.00    -0.252 OA
ATOM      4  N   UNL     1      -4.382  -3.198  -3.517  0.00  0.00    -0.269 N 
ATOM      5  H   UNL     1      -4.092  -3.946  -4.063  0.00  0.00    +0.156 HD
ENDROOT
BRANCH   4   6
ATOM      6  C   UNL     1      -5.744  -2.925  -3.375  0.00  0.00    +0.042 A 
ATOM      7  C   UNL     1      -6.184  -1.625  -3.250  0.00  0.00    +0.024 A 
ATOM      8  C   UNL     1      -7.539  -1.342  -3.108  0.00  0.00    +0.002 A 
ATOM      9  C   UNL     1      -8.466  -2.339  -3.087  0.00  0.00    +0.008 A 
ATOM     10  C   UNL     1      -8.060  -3.678  -3.212  0.00  0.00    -0.016 A 
ATOM     11  C   UNL     1      -6.684  -3.978  -3.363  0.00  0.00    +0.003 A 
ATOM     12  C   UNL     1      -6.280  -5.316  -3.493  0.00  0.00    +0.010 A 
ATOM     13  C   UNL     1      -7.214  -6.306  -3.478  0.00  0.00    +0.001 A 
ATOM     14  C   UNL     1      -8.569  -6.012  -3.335  0.00  0.00    +0.001 A 
ATOM     15  C   UNL     1      -8.995  -4.727  -3.194  0.00  0.00    +0.008 A 
ENDBRANCH   4   6
BRANCH   1  16
ATOM     16  C   UNL     1      -1.166  -1.775  -2.445  0.00  0.00    +0.141 C 
ATOM     17  C   UNL     1      -0.401  -0.955  -3.485  0.00  0.00    +0.036 C 
BRANCH  16  28
ATOM     18  N   UNL     1      -0.608  -3.174  -0.498  0.00  0.00    -0.295 N 
ATOM     19  C   UNL     1       0.219  -3.968   0.222  0.00  0.00    +0.262 A 
ATOM     20  O   UNL     1      -0.134  -4.452   1.281  0.00  0.00    -0.267 OA
ATOM     21  C   UNL     1       1.560  -4.222  -0.325  0.00  0.00    +0.065 A 
ATOM     22  C   UNL     1       2.486  -5.024   0.337  0.00  0.00    +0.015 A 
ATOM     23  C   UNL     1       3.729  -5.229  -0.221  0.00  0.00    +0.001 A 
ATOM     24  C   UNL     1       4.063  -4.643  -1.435  0.00  0.00    +0.002 A 
ATOM     25  C   UNL     1       3.162  -3.847  -2.106  0.00  0.00    +0.028 A 
ATOM     26  C   UNL     1       1.896  -3.624  -1.560  0.00  0.00    +0.078 A 
ATOM     27  N   UNL     1       0.978  -2.848  -2.187  0.00  0.00    -0.232 NA
ATOM     28  C   UNL     1      -0.201  -2.646  -1.682  0.00  0.00    +0.133 A 
BRANCH  18  29
ATOM     29  C   UNL     1      -1.955  -2.888   0.000  0.00  0.00    +0.126 C 
BRANCH  29  31
ATOM     30  C   UNL     1      -4.265  -3.804   0.262  0.00  0.00    +0.005 C 
ATOM     31  C   UNL     1      -2.890  -4.043  -0.366  0.00  0.00    +0.018 C 
ENDBRANCH  29  31
ENDBRANCH  18  29
ENDBRANCH  16  28
ENDBRANCH   1  16
BRANCH   1  32
ATOM     32  C   UNL     1      -1.718  -3.673  -4.036  0.00  0.00    +0.091 C 
BRANCH  32  33
ATOM     33  C   UNL     1      -1.649  -5.005  -3.285  0.00  0.00    -0.060 C 
BRANCH  33  34
ATOM     34  N   UNL     1      -1.097  -6.038  -4.171  0.00  0.00    +0.377 N 
ATOM     35  C   UNL     1       0.295  -5.707  -4.503  0.00  0.00    -0.097 C 
ATOM     36  C   UNL     1      -1.142  -7.340  -3.492  0.00  0.00    -0.097 C 
ATOM     37  H   UNL     1      -1.643  -6.082  -5.018  0.00  0.00    -0.083 HD
ENDBRANCH  33  34
ENDBRANCH  32  33
ENDBRANCH   1  32
TORSDOF 8
