REMARK  Name = ZINC24341825
REMARK  16 active torsions:
REMARK  status: ('A' for Active; 'I' for Inactive)
REMARK    1  A    between atoms: C_1  and  C_2
REMARK    2  A    between atoms: C_3  and  C_8
REMARK    3  A    between atoms: C_4  and  C_7
REMARK    4  A    between atoms: C_8  and  S_9
REMARK    5  A    between atoms: S_9  and  C_10
REMARK    6  A    between atoms: C_11  and  C_16
REMARK    7  A    between atoms: C_16  and  O_18
REMARK    8  A    between atoms: O_18  and  C_19
REMARK    9  A    between atoms: C_19  and  C_20
REMARK   10  A    between atoms: N_22  and  C_23
REMARK   11  A    between atoms: C_25  and  C_31
REMARK   12  A    between atoms: C_28  and  O_29
REMARK   13  A    between atoms: O_29  and  C_30
REMARK   14  A    between atoms: C_31  and  C_32
REMARK   15  A    between atoms: C_31  and  C_33
REMARK   16  A    between atoms: C_31  and  C_34
REMARK                            x       y       z     vdW  Elec       q    Type
REMARK                         _______ _______ _______ _____ _____    ______ ____
ROOT
ATOM      1  O   UNL     1      -1.146   5.980   0.026  0.00  0.00    -0.452 OA
ENDROOT
BRANCH   1   2
ATOM      2  C   UNL     1       0.005   5.279   0.001  0.00  0.00    +0.342 C 
ATOM      3  O   UNL     1       1.071   5.863  -0.013  0.00  0.00    -0.245 OA
BRANCH   2   5
ATOM      4  C   UNL     1       1.166   3.064  -0.035  0.00  0.00    +0.111 A 
ATOM      5  C   UNL     1      -0.028   3.808  -0.009  0.00  0.00    +0.091 A 
ATOM      6  C   UNL     1      -1.249   3.122   0.007  0.00  0.00    +0.019 A 
ATOM      7  C   UNL     1      -1.226   1.739  -0.009  0.00  0.00    +0.021 A 
ATOM      8  C   UNL     1      -0.011   1.077  -0.029  0.00  0.00    +0.112 A 
ATOM      9  N   UNL     1       1.129   1.739  -0.044  0.00  0.00    -0.248 NA
BRANCH   4  10
ATOM     10  S   UNL     1       2.718   3.897  -0.056  0.00  0.00    -0.100 S 
BRANCH  10  11
ATOM     11  C   UNL     1       3.838   2.476  -0.086  0.00  0.00    +0.116 C 
BRANCH  11  14
ATOM     12  C   UNL     1       5.675   3.120  -2.682  0.00  0.00    +0.069 C 
ATOM     13  C   UNL     1       6.072   3.243  -1.233  0.00  0.00    +0.085 A 
ATOM     14  C   UNL     1       5.265   2.961  -0.107  0.00  0.00    +0.027 A 
ATOM     15  C   UNL     1       6.073   3.221   0.948  0.00  0.00    +0.138 A 
ATOM     16  O   UNL     1       7.245   3.625   0.438  0.00  0.00    -0.359 OA
ATOM     17  N   UNL     1       7.224   3.634  -0.771  0.00  0.00    -0.083 NA
ATOM     18  C   UNL     1       5.724   3.084   2.408  0.00  0.00    +0.089 C 
ENDBRANCH  11  14
ENDBRANCH  10  11
ENDBRANCH   4  10
ENDBRANCH   2   5
ENDBRANCH   1   2
BRANCH   1  19
ATOM     19  C   UNL     1      -1.037   7.428   0.035  0.00  0.00    +0.328 C 
BRANCH  19  20
ATOM     20  C   UNL     1      -2.416   8.035   0.063  0.00  0.00    +0.255 C 
ATOM     21  O   UNL     1      -3.394   7.318   0.074  0.00  0.00    -0.272 OA
ATOM     22  N   UNL     1      -2.562   9.375   0.075  0.00  0.00    -0.280 N 
ATOM     23  H   UNL     1      -1.677  10.024   0.157  0.00  0.00    +0.155 HD
BRANCH  22  24
ATOM     24  C   UNL     1      -3.840   9.941  -0.016  0.00  0.00    +0.076 A 
ATOM     25  C   UNL     1      -4.873   9.235  -0.615  0.00  0.00    +0.031 A 
ATOM     26  C   UNL     1      -6.134   9.793  -0.699  0.00  0.00    -0.040 A 
ATOM     27  C   UNL     1      -6.368  11.059  -0.196  0.00  0.00    +0.008 A 
ATOM     28  C   UNL     1      -5.343  11.772   0.398  0.00  0.00    +0.048 A 
ATOM     29  C   UNL     1      -4.077  11.217   0.491  0.00  0.00    +0.141 A 
BRANCH  26  30
ATOM     30  C   UNL     1      -7.256   9.022  -1.345  0.00  0.00    -0.013 C 
ATOM     31  C   UNL     1      -8.535   9.861  -1.315  0.00  0.00    +0.015 C 
ATOM     32  C   UNL     1      -6.888   8.706  -2.796  0.00  0.00    +0.015 C 
ATOM     33  C   UNL     1      -7.484   7.716  -0.581  0.00  0.00    +0.015 C 
ENDBRANCH  26  30
BRANCH  29  34
ATOM     34  O   UNL     1      -3.067  11.916   1.075  0.00  0.00    -0.493 OA
ATOM     35  C   UNL     1      -3.383  13.218   1.571  0.00  0.00    +0.277 C 
ENDBRANCH  29  34
ENDBRANCH  22  24
ENDBRANCH  19  20
ENDBRANCH   1  19
TORSDOF 10
