REMARK  Name = ZINC65917744
REMARK  8 active torsions:
REMARK  status: ('A' for Active; 'I' for Inactive)
REMARK    1  A    between atoms: C_4  and  C_7
REMARK    2  A    between atoms: C_7  and  N_8
REMARK    3  A    between atoms: C_11  and  N_14
REMARK    4  A    between atoms: C_15  and  C_17
REMARK    5  A    between atoms: C_17  and  C_18
REMARK    6  A    between atoms: C_18  and  C_19
REMARK    7  A    between atoms: C_19  and  C_20
REMARK    8  A    between atoms: C_20  and  N_21
REMARK                            x       y       z     vdW  Elec       q    Type
REMARK                         _______ _______ _______ _____ _____    ______ ____
ROOT
ATOM      1  N   UNL     1       3.279  -6.047  -3.199  0.00  0.00    -0.313 N 
ATOM      2  C   UNL     1       3.645  -6.829  -4.234  0.00  0.00    +0.213 C 
ATOM      3  O   UNL     1       3.741  -6.357  -5.347  0.00  0.00    -0.276 OA
ATOM      4  H   UNL     1       3.201  -6.424  -2.309  0.00  0.00    +0.149 HD
ENDROOT
BRANCH   1   8
ATOM      5  N   UNL     1       3.102  -1.908  -2.422  0.00  0.00    +0.380 N 
ATOM      6  C   UNL     1       1.820  -2.616  -2.519  0.00  0.00    -0.077 C 
ATOM      7  C   UNL     1       2.047  -4.118  -2.330  0.00  0.00    +0.003 C 
ATOM      8  C   UNL     1       2.997  -4.626  -3.419  0.00  0.00    +0.069 C 
ATOM      9  C   UNL     1       4.303  -3.829  -3.356  0.00  0.00    +0.003 C 
ATOM     10  C   UNL     1       3.992  -2.338  -3.507  0.00  0.00    -0.077 C 
ATOM     11  H   UNL     1       3.532  -2.115  -1.533  0.00  0.00    -0.082 HD
BRANCH   5  12
ATOM     12  C   UNL     1       2.870  -0.461  -2.526  0.00  0.00    -0.075 C 
BRANCH  12  16
ATOM     13  C   UNL     1       1.752   1.793   0.994  0.00  0.00    +0.000 C 
ATOM     14  C   UNL     1       2.109   0.315   1.167  0.00  0.00    +0.000 C 
ATOM     15  C   UNL     1       2.909  -0.162  -0.046  0.00  0.00    +0.002 C 
ATOM     16  C   UNL     1       2.069   0.015  -1.313  0.00  0.00    -0.028 C 
ATOM     17  C   UNL     1       1.712   1.493  -1.486  0.00  0.00    +0.002 C 
ATOM     18  C   UNL     1       0.912   1.970  -0.272  0.00  0.00    +0.000 C 
ENDBRANCH  12  16
ENDBRANCH   5  12
ENDBRANCH   1   8
BRANCH   2  19
ATOM     19  C   UNL     1       3.935  -8.290  -4.008  0.00  0.00    +0.096 C 
BRANCH  19  20
ATOM     20  C   UNL     1       4.325  -8.944  -5.335  0.00  0.00    +0.011 C 
BRANCH  20  21
ATOM     21  C   UNL     1       4.620 -10.428  -5.105  0.00  0.00    +0.019 C 
BRANCH  21  22
ATOM     22  C   UNL     1       5.011 -11.082  -6.432  0.00  0.00    +0.106 C 
BRANCH  22  23
ATOM     23  N   UNL     1       5.292 -12.502  -6.212  0.00  0.00    -0.300 N 
ATOM     24  C   UNL     1       5.659 -13.285  -7.247  0.00  0.00    +0.297 C 
ATOM     25  O   UNL     1       5.755 -12.811  -8.362  0.00  0.00    -0.253 OA
ATOM     26  N   UNL     1       5.918 -14.592  -7.044  0.00  0.00    -0.313 N 
ATOM     27  H   UNL     1       5.215 -12.880  -5.322  0.00  0.00    +0.150 HD
ATOM     28  H   UNL     1       5.841 -14.970  -6.154  0.00  0.00    +0.146 HD
ATOM     29  H   UNL     1       6.182 -15.155  -7.789  0.00  0.00    +0.146 HD
ENDBRANCH  22  23
ENDBRANCH  21  22
ENDBRANCH  20  21
ENDBRANCH  19  20
ENDBRANCH   2  19
TORSDOF 8
