REMARK  Name = ZINC45048952
REMARK  3 active torsions:
REMARK  status: ('A' for Active; 'I' for Inactive)
REMARK    1  A    between atoms: C_3  and  N_20
REMARK    2  A    between atoms: C_6  and  C_7
REMARK    3  A    between atoms: C_7  and  C_8
REMARK                            x       y       z     vdW  Elec       q    Type
REMARK                         _______ _______ _______ _____ _____    ______ ____
ROOT
ATOM      1  C   UNL     1      -1.740  -1.022  -1.407  0.00  0.00    +0.143 A 
ATOM      2  N   UNL     1      -2.502  -0.241  -2.126  0.00  0.00    -0.133 NA
ATOM      3  N   UNL     1      -2.690  -0.750  -3.294  0.00  0.00    -0.127 NA
ATOM      4  C   UNL     1      -2.049  -1.898  -3.384  0.00  0.00    +0.192 A 
ATOM      5  N   UNL     1      -1.417  -2.100  -2.175  0.00  0.00    -0.267 N 
ATOM      6  C   UNL     1      -0.665  -3.218  -1.977  0.00  0.00    +0.209 A 
ATOM      7  N   UNL     1      -0.516  -4.118  -2.904  0.00  0.00    -0.216 NA
ATOM      8  C   UNL     1      -1.101  -3.992  -4.119  0.00  0.00    +0.185 A 
ATOM      9  C   UNL     1      -1.893  -2.875  -4.389  0.00  0.00    +0.154 A 
ATOM     10  N   UNL     1      -2.344  -3.024  -5.678  0.00  0.00    -0.228 NA
ATOM     11  C   UNL     1      -1.848  -4.193  -6.144  0.00  0.00    +0.224 A 
ATOM     12  N   UNL     1      -1.110  -4.756  -5.228  0.00  0.00    -0.214 NA
ENDROOT
BRANCH   1  13
ATOM     13  C   UNL     1      -1.294  -0.774   0.011  0.00  0.00    +0.111 C 
BRANCH  13  19
ATOM     14  C   UNL     1      -0.017   1.379   0.010  0.00  0.00    +0.006 A 
ATOM     15  C   UNL     1       1.169   2.087   0.002  0.00  0.00    +0.023 A 
ATOM     16  C   UNL     1       2.381   1.409  -0.013  0.00  0.00    +0.025 A 
ATOM     17  C   UNL     1       2.396   0.020  -0.021  0.00  0.00    +0.023 A 
ATOM     18  C   UNL     1       1.207  -0.682  -0.013  0.00  0.00    +0.006 A 
ATOM     19  C   UNL     1       0.002  -0.004   0.002  0.00  0.00    -0.040 A 
BRANCH  16  20
ATOM     20  N   UNL     1       3.582   2.122  -0.021  0.00  0.00    -0.358 N 
ATOM     21  H   UNL     1       3.570   3.092  -0.016  0.00  0.00    +0.142 HD
ATOM     22  H   UNL     1       4.428   1.647  -0.032  0.00  0.00    +0.142 HD
ENDBRANCH  16  20
ENDBRANCH  13  19
ENDBRANCH   1  13
TORSDOF 3
