REMARK  Name = ZINC09130912
REMARK  9 active torsions:
REMARK  status: ('A' for Active; 'I' for Inactive)
REMARK    1  A    between atoms: C_1  and  C_2
REMARK    2  A    between atoms: C_2  and  C_3
REMARK    3  A    between atoms: C_3  and  C_4
REMARK    4  A    between atoms: C_4  and  C_5
REMARK    5  A    between atoms: C_5  and  C_28
REMARK    6  A    between atoms: N_8  and  C_12
REMARK    7  A    between atoms: C_12  and  C_13
REMARK    8  A    between atoms: N_15  and  C_16
REMARK    9  A    between atoms: C_19  and  N_22
REMARK                            x       y       z     vdW  Elec       q    Type
REMARK                         _______ _______ _______ _____ _____    ______ ____
ROOT
ATOM      1  C   UNL     1       1.145   3.590   0.009  0.00  0.00    +0.138 C 
ATOM      2  C   UNL     1       1.026   4.109   1.428  0.00  0.00    +0.251 C 
ATOM      3  O   UNL     1       1.804   3.932   2.340  0.00  0.00    -0.272 OA
ATOM      4  N   UNL     1      -0.126   4.807   1.465  0.00  0.00    -0.215 N 
ATOM      5  C   UNL     1      -0.745   4.802   0.278  0.00  0.00    +0.310 C 
ATOM      6  O   UNL     1      -1.801   5.364   0.065  0.00  0.00    -0.252 OA
ATOM      7  N   UNL     1      -0.067   4.104  -0.651  0.00  0.00    -0.281 N 
ATOM      8  H   UNL     1      -0.327   3.967  -1.576  0.00  0.00    +0.152 HD
ENDROOT
BRANCH   1   9
ATOM      9  C   UNL     1       1.157   2.083  -0.006  0.00  0.00    -0.015 A 
ATOM     10  C   UNL     1      -0.035   1.382  -0.002  0.00  0.00    +0.009 A 
ATOM     11  C   UNL     1      -0.025   0.000  -0.015  0.00  0.00    +0.039 A 
ATOM     12  C   UNL     1       1.180  -0.682  -0.032  0.00  0.00    +0.123 A 
ATOM     13  C   UNL     1       2.373   0.020  -0.035  0.00  0.00    +0.039 A 
ATOM     14  C   UNL     1       2.360   1.402  -0.022  0.00  0.00    +0.009 A 
ATOM     15  F   UNL     1       1.191  -2.033  -0.044  0.00  0.00    -0.205 F 
ENDBRANCH   1   9
BRANCH   1  16
ATOM     16  C   UNL     1       2.402   4.143  -0.667  0.00  0.00    +0.040 C 
BRANCH  16  17
ATOM     17  C   UNL     1       2.364   5.672  -0.639  0.00  0.00    +0.003 C 
BRANCH  17  19
ATOM     18  C   UNL     1       3.583   7.755  -1.286  0.00  0.00    +0.004 C 
ATOM     19  C   UNL     1       3.621   6.225  -1.314  0.00  0.00    -0.003 C 
ENDBRANCH  17  19
ENDBRANCH  16  17
ENDBRANCH   1  16
BRANCH   4  20
ATOM     20  C   UNL     1      -0.638   5.488   2.657  0.00  0.00    +0.214 C 
BRANCH  20  21
ATOM     21  C   UNL     1      -1.516   4.543   3.437  0.00  0.00    +0.235 C 
ATOM     22  O   UNL     1      -1.696   3.413   3.036  0.00  0.00    -0.274 OA
ATOM     23  N   UNL     1      -2.100   4.955   4.579  0.00  0.00    -0.284 N 
ATOM     24  H   UNL     1      -1.903   5.835   4.935  0.00  0.00    +0.155 HD
BRANCH  23  25
ATOM     25  C   UNL     1      -2.993   4.110   5.253  0.00  0.00    +0.034 A 
ATOM     26  C   UNL     1      -4.088   4.646   5.918  0.00  0.00    +0.025 A 
ATOM     27  C   UNL     1      -4.970   3.814   6.578  0.00  0.00    +0.025 A 
ATOM     28  C   UNL     1      -4.756   2.441   6.585  0.00  0.00    +0.030 A 
ATOM     29  C   UNL     1      -3.658   1.906   5.925  0.00  0.00    +0.025 A 
ATOM     30  C   UNL     1      -2.779   2.738   5.261  0.00  0.00    +0.025 A 
BRANCH  28  31
ATOM     31  N   UNL     1      -5.647   1.598   7.258  0.00  0.00    -0.330 N 
ATOM     32  C   UNL     1      -6.180   0.569   6.356  0.00  0.00    +0.105 C 
ATOM     33  C   UNL     1      -7.033  -0.419   7.155  0.00  0.00    +0.019 C 
ATOM     34  C   UNL     1      -8.180   0.337   7.832  0.00  0.00    +0.003 C 
ATOM     35  C   UNL     1      -7.600   1.434   8.728  0.00  0.00    +0.019 C 
ATOM     36  C   UNL     1      -6.730   2.368   7.883  0.00  0.00    +0.105 C 
ENDBRANCH  28  31
ENDBRANCH  23  25
ENDBRANCH  20  21
ENDBRANCH   4  20
TORSDOF 8
