REMARK  Name = ZINC11847741
REMARK  3 active torsions:
REMARK  status: ('A' for Active; 'I' for Inactive)
REMARK    1  A    between atoms: C_1  and  S_2
REMARK    2  A    between atoms: S_2  and  N_5
REMARK    3  A    between atoms: C_11  and  N_14
REMARK                            x       y       z     vdW  Elec       q    Type
REMARK                         _______ _______ _______ _____ _____    ______ ____
ROOT
ATOM      1  N   UNL     1       2.209   0.653  -0.015  0.00  0.00    -0.207 N 
ATOM      2  C   UNL     1       1.464   1.915  -0.002  0.00  0.00    +0.136 C 
ATOM      3  C   UNL     1      -0.018   1.508   0.010  0.00  0.00    +0.058 C 
ATOM      4  C   UNL     1       0.002  -0.004   0.002  0.00  0.00    -0.023 A 
ATOM      5  C   UNL     1       1.323  -0.426  -0.013  0.00  0.00    +0.056 A 
ATOM      6  C   UNL     1       1.598  -1.794  -0.023  0.00  0.00    +0.047 A 
ATOM      7  C   UNL     1       0.562  -2.714  -0.017  0.00  0.00    +0.026 A 
ATOM      8  C   UNL     1      -0.756  -2.277  -0.003  0.00  0.00    +0.023 A 
ATOM      9  C   UNL     1      -1.030  -0.923   0.007  0.00  0.00    +0.007 A 
ENDROOT
BRANCH   1  11
ATOM     10  C   UNL     1       4.308   0.498  -1.789  0.00  0.00    +0.218 C 
ATOM     11  S   UNL     1       3.860   0.525  -0.032  0.00  0.00    +0.043 S 
ATOM     12  O   UNL     1       4.322   1.725   0.573  0.00  0.00    -0.155 OA
ATOM     13  O   UNL     1       4.132  -0.737   0.562  0.00  0.00    -0.155 OA
ENDBRANCH   1  11
BRANCH   7  14
ATOM     14  N   UNL     1       0.844  -4.082  -0.028  0.00  0.00    -0.358 N 
ATOM     15  H   UNL     1       1.765  -4.387  -0.038  0.00  0.00    +0.142 HD
ATOM     16  H   UNL     1       0.119  -4.726  -0.024  0.00  0.00    +0.142 HD
ENDBRANCH   7  14
TORSDOF 2
