REMARK  Name = ZINC02925609
REMARK  12 active torsions:
REMARK  status: ('A' for Active; 'I' for Inactive)
REMARK    1  A    between atoms: C_1  and  C_2
REMARK    2  A    between atoms: C_2  and  S_3
REMARK    3  A    between atoms: S_3  and  C_4
REMARK    4  A    between atoms: C_4  and  C_5
REMARK    5  A    between atoms: C_5  and  O_6
REMARK    6  A    between atoms: O_6  and  C_7
REMARK    7  A    between atoms: C_7  and  C_9
REMARK    8  A    between atoms: C_10  and  C_39
REMARK    9  A    between atoms: C_14  and  C_16
REMARK   10  A    between atoms: C_28  and  C_31
REMARK   11  A    between atoms: C_34  and  O_37
REMARK   12  A    between atoms: O_37  and  C_38
REMARK                            x       y       z     vdW  Elec       q    Type
REMARK                         _______ _______ _______ _____ _____    ______ ____
ROOT
ATOM      1  C   UNL     1       6.154  -3.422  -7.846  0.00  0.00    +0.065 C 
ATOM      2  C   UNL     1       6.680  -3.152  -6.639  0.00  0.00    +0.016 C 
ATOM      3  N   UNL     1       5.870  -3.005  -5.548  0.00  0.00    -0.321 N 
ATOM      4  C   UNL     1       4.537  -2.732  -5.700  0.00  0.00    +0.016 C 
ATOM      5  C   UNL     1       3.916  -2.986  -6.872  0.00  0.00    +0.024 C 
ATOM      6  C   UNL     1       4.674  -3.579  -8.033  0.00  0.00    +0.092 C 
ATOM      7  C   UNL     1       2.547  -2.712  -7.041  0.00  0.00    +0.162 C 
ATOM      8  O   UNL     1       2.022  -2.936  -8.114  0.00  0.00    -0.292 OA
ATOM      9  C   UNL     1       1.718  -2.149  -5.918  0.00  0.00    +0.088 C 
ATOM     10  C   UNL     1       2.324  -2.591  -4.582  0.00  0.00    +0.032 C 
ATOM     11  C   UNL     1       3.786  -2.139  -4.534  0.00  0.00    +0.059 C 
ATOM     12  C   UNL     1       8.173  -3.011  -6.487  0.00  0.00    +0.061 C 
ATOM     13  H   UNL     1       6.288  -3.106  -4.535  0.00  0.00    +0.152 HD
ENDROOT
BRANCH   6  14
ATOM     14  C   UNL     1       4.342  -5.044  -8.144  0.00  0.00    -0.032 A 
ATOM     15  C   UNL     1       4.622  -5.897  -7.092  0.00  0.00    +0.008 A 
ATOM     16  C   UNL     1       4.315  -7.241  -7.188  0.00  0.00    +0.050 A 
ATOM     17  C   UNL     1       3.735  -7.740  -8.343  0.00  0.00    +0.166 A 
ATOM     18  C   UNL     1       3.458  -6.882  -9.405  0.00  0.00    +0.167 A 
ATOM     19  C   UNL     1       3.764  -5.535  -9.300  0.00  0.00    +0.054 A 
ATOM     20  O   UNL     1       2.895  -7.606 -10.416  0.00  0.00    -0.453 OA
ATOM     21  C   UNL     1       2.456  -8.836  -9.809  0.00  0.00    +0.466 C 
ATOM     22  O   UNL     1       3.346  -9.002  -8.689  0.00  0.00    -0.453 OA
ENDBRANCH   6  14
BRANCH  10  23
ATOM     23  C   UNL     1       1.561  -1.959  -3.447  0.00  0.00    -0.043 A 
ATOM     24  C   UNL     1       0.936  -2.757  -2.506  0.00  0.00    +0.007 A 
ATOM     25  C   UNL     1       0.236  -2.180  -1.464  0.00  0.00    +0.046 A 
ATOM     26  C   UNL     1       0.161  -0.799  -1.362  0.00  0.00    +0.120 A 
ATOM     27  C   UNL     1       0.784  -0.000  -2.310  0.00  0.00    +0.046 A 
ATOM     28  C   UNL     1       1.488  -0.582  -3.346  0.00  0.00    +0.007 A 
BRANCH  26  29
ATOM     29  O   UNL     1      -0.527  -0.229  -0.338  0.00  0.00    -0.495 OA
ATOM     30  C   UNL     1      -0.562   1.199  -0.295  0.00  0.00    +0.277 C 
ENDBRANCH  26  29
ENDBRANCH  10  23
BRANCH   1  31
ATOM     31  C   UNL     1       7.013  -3.563  -8.961  0.00  0.00    +0.338 C 
ATOM     32  O   UNL     1       8.203  -3.336  -8.845  0.00  0.00    -0.245 OA
BRANCH  31  33
ATOM     33  O   UNL     1       6.513  -3.948 -10.154  0.00  0.00    -0.460 OA
BRANCH  33  34
ATOM     34  C   UNL     1       7.437  -4.069 -11.236  0.00  0.00    +0.243 C 
BRANCH  34  35
ATOM     35  C   UNL     1       6.691  -4.513 -12.497  0.00  0.00    +0.110 C 
BRANCH  35  36
ATOM     36  S   UNL     1       7.865  -4.667 -13.871  0.00  0.00    -0.158 S 
BRANCH  36  38
ATOM     37  C   UNL     1       7.713  -5.361 -16.512  0.00  0.00    +0.015 C 
ATOM     38  C   UNL     1       6.836  -5.191 -15.270  0.00  0.00    +0.066 C 
ENDBRANCH  36  38
ENDBRANCH  35  36
ENDBRANCH  34  35
ENDBRANCH  33  34
ENDBRANCH  31  33
ENDBRANCH   1  31
TORSDOF 9
