REMARK  Name = ZINC22637356
REMARK  9 active torsions:
REMARK  status: ('A' for Active; 'I' for Inactive)
REMARK    1  A    between atoms: C_1  and  N_2
REMARK    2  A    between atoms: N_2  and  C_3
REMARK    3  A    between atoms: N_2  and  C_4
REMARK    4  A    between atoms: C_7  and  C_10
REMARK    5  A    between atoms: C_11  and  C_12
REMARK    6  A    between atoms: C_11  and  N_25
REMARK    7  A    between atoms: N_14  and  N_15
REMARK    8  A    between atoms: C_16  and  C_17
REMARK    9  A    between atoms: C_26  and  C_28
REMARK                            x       y       z     vdW  Elec       q    Type
REMARK                         _______ _______ _______ _____ _____    ______ ____
ROOT
ATOM      1  C   UNL     1      -2.243  -2.610  -0.069  0.00  0.00    +0.036 C 
ATOM      2  C   UNL     1      -0.992  -2.089  -0.058  0.00  0.00    +0.098 C 
ENDROOT
BRANCH   1   6
ATOM      3  C   UNL     1      -5.607  -0.043  -0.357  0.00  0.00    +0.029 A 
ATOM      4  C   UNL     1      -5.703  -1.364  -0.785  0.00  0.00    +0.023 A 
ATOM      5  C   UNL     1      -4.614  -2.200  -0.694  0.00  0.00    +0.010 A 
ATOM      6  C   UNL     1      -3.408  -1.721  -0.169  0.00  0.00    -0.023 A 
ATOM      7  C   UNL     1      -3.317  -0.393   0.265  0.00  0.00    +0.010 A 
ATOM      8  C   UNL     1      -4.410   0.438   0.166  0.00  0.00    +0.023 A 
BRANCH   3  10
ATOM      9  C   UNL     1      -7.973   0.296  -1.000  0.00  0.00    +0.129 C 
ATOM     10  N   UNL     1      -6.712   0.800  -0.451  0.00  0.00    -0.336 N 
ATOM     11  C   UNL     1      -6.613   2.191   0.000  0.00  0.00    +0.129 C 
ENDBRANCH   3  10
ENDBRANCH   1   6
BRANCH   2  12
ATOM     12  C   UNL     1       0.162  -2.958   0.202  0.00  0.00    +0.277 C 
ATOM     13  O   UNL     1      -0.008  -4.138   0.449  0.00  0.00    -0.267 OA
ATOM     14  N   UNL     1       1.409  -2.449   0.167  0.00  0.00    -0.202 N 
ATOM     15  H   UNL     1       1.559  -1.369   0.024  0.00  0.00    +0.178 HD
BRANCH  14  16
ATOM     16  N   UNL     1       2.515  -3.296   0.311  0.00  0.00    -0.187 NA
ATOM     17  C   UNL     1       3.717  -2.806   0.278  0.00  0.00    +0.141 C 
BRANCH  17  18
ATOM     18  C   UNL     1       4.881  -3.698   0.430  0.00  0.00    +0.031 A 
ATOM     19  C   UNL     1       4.695  -5.071   0.617  0.00  0.00    +0.051 A 
ATOM     20  C   UNL     1       5.790  -5.900   0.753  0.00  0.00    +0.021 A 
ATOM     21  C   UNL     1       7.070  -5.374   0.717  0.00  0.00    +0.003 A 
ATOM     22  C   UNL     1       7.262  -4.016   0.538  0.00  0.00    +0.021 A 
ATOM     23  C   UNL     1       6.177  -3.174   0.394  0.00  0.00    +0.051 A 
ATOM     24 CL   UNL     1       6.421  -1.470   0.171  0.00  0.00    -0.083 Cl
ATOM     25 CL   UNL     1       3.091  -5.732   0.670  0.00  0.00    -0.083 Cl
ENDBRANCH  17  18
ENDBRANCH  14  16
ENDBRANCH   2  12
BRANCH   2  26
ATOM     26  N   UNL     1      -0.801  -0.724  -0.294  0.00  0.00    -0.277 N 
ATOM     27  C   UNL     1      -0.198   0.043   0.635  0.00  0.00    +0.248 C 
ATOM     28  O   UNL     1       0.090  -0.428   1.718  0.00  0.00    -0.270 OA
ATOM     29  H   UNL     1      -1.143  -0.276  -1.239  0.00  0.00    +0.155 HD
BRANCH  27  30
ATOM     30  C   UNL     1       0.113   1.458   0.339  0.00  0.00    +0.037 A 
ATOM     31  C   UNL     1      -0.211   2.000  -0.906  0.00  0.00    +0.013 A 
ATOM     32  C   UNL     1       0.077   3.323  -1.174  0.00  0.00    +0.001 A 
ATOM     33  C   UNL     1       0.696   4.107  -0.217  0.00  0.00    +0.000 A 
ATOM     34  C   UNL     1       1.026   3.574   1.016  0.00  0.00    +0.001 A 
ATOM     35  C   UNL     1       0.738   2.254   1.300  0.00  0.00    +0.013 A 
ENDBRANCH  27  30
ENDBRANCH   2  26
TORSDOF 7
