REMARK  Name = ZINC59421107
REMARK  7 active torsions:
REMARK  status: ('A' for Active; 'I' for Inactive)
REMARK    1  A    between atoms: C_5  and  C_7
REMARK    2  A    between atoms: C_7  and  O_9
REMARK    3  A    between atoms: O_9  and  C_10
REMARK    4  A    between atoms: C_13  and  C_16
REMARK    5  A    between atoms: N_17  and  N_18
REMARK    6  A    between atoms: C_19  and  C_21
REMARK    7  A    between atoms: C_24  and  N_27
REMARK                            x       y       z     vdW  Elec       q    Type
REMARK                         _______ _______ _______ _____ _____    ______ ____
ROOT
ATOM      1  C   UNL     1       0.131  -4.494  -1.742  0.00  0.00    +0.132 A 
ATOM      2  C   UNL     1       1.209  -5.348  -1.938  0.00  0.00    +0.047 A 
ATOM      3  C   UNL     1       1.168  -6.636  -1.448  0.00  0.00    +0.013 A 
ATOM      4  C   UNL     1       0.040  -7.081  -0.753  0.00  0.00    -0.005 A 
ATOM      5  C   UNL     1      -1.041  -6.218  -0.558  0.00  0.00    +0.013 A 
ATOM      6  C   UNL     1      -0.989  -4.930  -1.048  0.00  0.00    +0.047 A 
ENDROOT
BRANCH   4   7
ATOM      7  C   UNL     1      -0.009  -8.457  -0.228  0.00  0.00    +0.138 C 
ATOM      8  N   UNL     1       1.090  -9.130  -0.066  0.00  0.00    -0.187 NA
BRANCH   8   9
ATOM      9  N   UNL     1       2.318  -8.459   0.004  0.00  0.00    -0.203 N 
ATOM     10  C   UNL     1       3.469  -9.160   0.028  0.00  0.00    +0.263 C 
ATOM     11  O   UNL     1       3.441 -10.375  -0.010  0.00  0.00    -0.268 OA
ATOM     12  H   UNL     1       2.340  -7.489   0.034  0.00  0.00    +0.178 HD
BRANCH  10  13
ATOM     13  C   UNL     1       4.764  -8.452   0.102  0.00  0.00    +0.038 A 
ATOM     14  C   UNL     1       4.799  -7.057   0.151  0.00  0.00    +0.015 A 
ATOM     15  C   UNL     1       6.011  -6.403   0.220  0.00  0.00    +0.033 A 
ATOM     16  C   UNL     1       7.191  -7.126   0.239  0.00  0.00    +0.126 A 
ATOM     17  C   UNL     1       7.163  -8.508   0.190  0.00  0.00    +0.033 A 
ATOM     18  C   UNL     1       5.958  -9.175   0.127  0.00  0.00    +0.015 A 
BRANCH  16  19
ATOM     19  N   UNL     1       8.489  -6.417   0.312  0.00  0.00    +0.056 N 
ATOM     20  O   UNL     1       8.516  -5.209   0.355  0.00  0.00    -0.126 OA
ATOM     21  O   UNL     1       9.521  -7.046   0.329  0.00  0.00    -0.126 OA
ENDBRANCH  16  19
ENDBRANCH  10  13
ENDBRANCH   8   9
ENDBRANCH   4   7
BRANCH   1  22
ATOM     22  O   UNL     1       0.176  -3.226  -2.227  0.00  0.00    -0.422 OA
BRANCH  22  23
ATOM     23  C   UNL     1      -0.522  -2.951  -3.346  0.00  0.00    +0.346 C 
ATOM     24  O   UNL     1      -1.088  -3.845  -3.944  0.00  0.00    -0.244 OA
BRANCH  23  29
ATOM     25  C   UNL     1      -0.028   0.759  -3.634  0.00  0.00    +0.001 A 
ATOM     26  C   UNL     1      -0.746   1.038  -4.784  0.00  0.00    +0.001 A 
ATOM     27  C   UNL     1      -1.391   0.024  -5.468  0.00  0.00    +0.016 A 
ATOM     28  C   UNL     1      -1.323  -1.276  -5.007  0.00  0.00    +0.032 A 
ATOM     29  C   UNL     1      -0.600  -1.564  -3.846  0.00  0.00    +0.073 A 
ATOM     30  C   UNL     1       0.049  -0.534  -3.162  0.00  0.00    +0.016 A 
ATOM     31 BR   UNL     1      -2.207  -2.661  -5.942  0.00  0.00    -0.049 Br
ENDBRANCH  23  29
ENDBRANCH  22  23
ENDBRANCH   1  22
TORSDOF 7
