REMARK  Name = ZINC35938447
REMARK  17 active torsions:
REMARK  status: ('A' for Active; 'I' for Inactive)
REMARK    1  A    between atoms: C_1  and  C_2
REMARK    2  A    between atoms: C_2  and  C_3
REMARK    3  A    between atoms: C_3  and  C_4
REMARK    4  A    between atoms: C_4  and  C_5
REMARK    5  A    between atoms: C_5  and  C_6
REMARK    6  A    between atoms: C_9  and  C_12
REMARK    7  A    between atoms: N_14  and  C_15
REMARK    8  A    between atoms: N_14  and  C_36
REMARK    9  A    between atoms: C_15  and  C_16
REMARK   10  A    between atoms: C_17  and  C_35
REMARK   11  A    between atoms: N_19  and  C_29
REMARK   12  A    between atoms: C_20  and  N_21
REMARK   13  A    between atoms: N_24  and  C_27
REMARK   14  A    between atoms: C_27  and  C_28
REMARK   15  A    between atoms: C_36  and  C_37
REMARK   16  A    between atoms: C_37  and  C_38
REMARK   17  A    between atoms: C_37  and  C_39
REMARK                            x       y       z     vdW  Elec       q    Type
REMARK                         _______ _______ _______ _____ _____    ______ ____
ROOT
ATOM      1  C   UNL     1      -1.312 -10.990   1.445  0.00  0.00    +0.032 A 
ATOM      2  C   UNL     1      -0.079 -10.779   0.821  0.00  0.00    +0.067 A 
ATOM      3  N   UNL     1       0.871 -11.136   1.647  0.00  0.00    -0.170 NA
ATOM      4  N   UNL     1       0.279 -11.590   2.833  0.00  0.00    -0.218 N 
ATOM      5  C   UNL     1      -1.070 -11.486   2.691  0.00  0.00    +0.130 A 
ATOM      6  C   UNL     1       0.122 -10.233  -0.569  0.00  0.00    +0.068 C 
ENDROOT
BRANCH   5   7
ATOM      7  N   UNL     1      -2.028 -11.827   3.641  0.00  0.00    -0.318 N 
ATOM      8  C   UNL     1      -2.489 -13.216   3.785  0.00  0.00    +0.088 C 
ATOM      9  C   UNL     1      -2.398 -13.608   5.264  0.00  0.00    -0.060 C 
ATOM     10  N   UNL     1      -3.143 -12.635   6.073  0.00  0.00    +0.382 N 
ATOM     11  C   UNL     1      -2.511 -11.314   5.974  0.00  0.00    -0.060 C 
ATOM     12  C   UNL     1      -2.603 -10.810   4.535  0.00  0.00    +0.088 C 
ATOM     13  H   UNL     1      -4.093 -12.578   5.737  0.00  0.00    -0.082 HD
BRANCH  10  14
ATOM     14  C   UNL     1      -3.149 -13.070   7.476  0.00  0.00    -0.082 C 
ATOM     15  C   UNL     1      -4.028 -12.126   8.299  0.00  0.00    -0.017 C 
ENDBRANCH  10  14
ENDBRANCH   5   7
BRANCH   4  16
ATOM     16  C   UNL     1       0.956 -12.060   3.967  0.00  0.00    +0.067 A 
ATOM     17  C   UNL     1       0.638 -11.563   5.223  0.00  0.00    +0.028 A 
ATOM     18  C   UNL     1       1.307 -12.029   6.339  0.00  0.00    +0.002 A 
ATOM     19  C   UNL     1       2.292 -12.990   6.204  0.00  0.00    +0.000 A 
ATOM     20  C   UNL     1       2.611 -13.487   4.954  0.00  0.00    +0.002 A 
ATOM     21  C   UNL     1       1.942 -13.029   3.836  0.00  0.00    +0.028 A 
ENDBRANCH   4  16
BRANCH   1  22
ATOM     22  C   UNL     1      -2.667 -10.712   0.849  0.00  0.00    +0.148 C 
BRANCH  22  25
ATOM     23  C   UNL     1      -2.619  -8.422   0.018  0.00  0.00    +0.247 C 
ATOM     24  O   UNL     1      -2.145  -8.836  -1.022  0.00  0.00    -0.270 OA
ATOM     25  N   UNL     1      -2.979  -9.287   0.987  0.00  0.00    -0.293 N 
BRANCH  23  29
ATOM     26  C   UNL     1      -3.143  -4.247   0.599  0.00  0.00    -0.047 A 
ATOM     27  C   UNL     1      -4.161  -5.122   0.936  0.00  0.00    +0.004 A 
ATOM     28  C   UNL     1      -3.997  -6.479   0.750  0.00  0.00    +0.013 A 
ATOM     29  C   UNL     1      -2.802  -6.969   0.220  0.00  0.00    +0.037 A 
ATOM     30  C   UNL     1      -1.780  -6.080  -0.118  0.00  0.00    +0.013 A 
ATOM     31  C   UNL     1      -1.959  -4.725   0.068  0.00  0.00    +0.004 A 
BRANCH  26  32
ATOM     32  C   UNL     1      -3.329  -2.766   0.805  0.00  0.00    +0.035 C 
BRANCH  32  33
ATOM     33  C   UNL     1      -3.941  -2.148  -0.454  0.00  0.00    +0.005 C 
BRANCH  33  34
ATOM     34  C   UNL     1      -4.129  -0.644  -0.245  0.00  0.00    +0.000 C 
BRANCH  34  36
ATOM     35  C   UNL     1      -4.929   1.477  -1.295  0.00  0.00    +0.004 C 
ATOM     36  C   UNL     1      -4.741  -0.027  -1.504  0.00  0.00    -0.003 C 
ENDBRANCH  34  36
ENDBRANCH  33  34
ENDBRANCH  32  33
ENDBRANCH  26  32
ENDBRANCH  23  29
BRANCH  25  37
ATOM     37  C   UNL     1      -3.681  -8.803   2.178  0.00  0.00    +0.111 C 
BRANCH  37  38
ATOM     38  C   UNL     1      -5.186  -9.016   2.005  0.00  0.00    +0.000 C 
ATOM     39  C   UNL     1      -5.489 -10.515   1.979  0.00  0.00    +0.009 C 
ATOM     40  C   UNL     1      -5.931  -8.365   3.172  0.00  0.00    +0.009 C 
ENDBRANCH  37  38
ENDBRANCH  25  37
ENDBRANCH  22  25
ENDBRANCH   1  22
TORSDOF 12
