REMARK  Name = ZINC64578781
REMARK  7 active torsions:
REMARK  status: ('A' for Active; 'I' for Inactive)
REMARK    1  A    between atoms: C_1  and  C_2
REMARK    2  A    between atoms: C_5  and  C_8
REMARK    3  A    between atoms: C_8  and  N_9
REMARK    4  A    between atoms: N_15  and  C_18
REMARK    5  A    between atoms: C_18  and  C_19
REMARK    6  A    between atoms: N_27  and  C_28
REMARK    7  A    between atoms: C_32  and  C_34
REMARK                            x       y       z     vdW  Elec       q    Type
REMARK                         _______ _______ _______ _____ _____    ______ ____
ROOT
ATOM      1  N   UNL     1       1.447  -5.249   0.984  0.00  0.00    -0.295 N 
ATOM      2  C   UNL     1       1.741  -6.552   0.804  0.00  0.00    +0.303 C 
ATOM      3  O   UNL     1       0.864  -7.390   0.887  0.00  0.00    -0.253 OA
ATOM      4  N   UNL     1       3.007  -6.926   0.533  0.00  0.00    -0.283 N 
ATOM      5  C   UNL     1       4.103  -5.944   0.542  0.00  0.00    +0.124 C 
ATOM      6  C   UNL     1       4.882  -6.071  -0.771  0.00  0.00    +0.104 C 
ATOM      7  N   UNL     1       5.300  -7.467  -0.955  0.00  0.00    -0.292 NA
ATOM      8  C   UNL     1       4.140  -8.359  -1.081  0.00  0.00    +0.104 C 
ATOM      9  C   UNL     1       3.332  -8.327   0.226  0.00  0.00    +0.124 C 
ATOM     10  H   UNL     1       2.157  -4.588   0.989  0.00  0.00    +0.151 HD
ENDROOT
BRANCH   1  11
ATOM     11  C   UNL     1       0.056  -4.832   1.173  0.00  0.00    +0.141 C 
BRANCH  11  16
ATOM     12  C   UNL     1      -0.163   0.902   1.856  0.00  0.00    +0.044 C 
ATOM     13  C   UNL     1      -0.105  -0.593   1.678  0.00  0.00    -0.050 A 
ATOM     14  C   UNL     1      -0.198  -1.142   0.413  0.00  0.00    +0.003 A 
ATOM     15  C   UNL     1      -0.146  -2.514   0.249  0.00  0.00    +0.005 A 
ATOM     16  C   UNL     1      -0.000  -3.336   1.351  0.00  0.00    -0.030 A 
ATOM     17  C   UNL     1       0.093  -2.787   2.616  0.00  0.00    +0.005 A 
ATOM     18  C   UNL     1       0.045  -1.415   2.779  0.00  0.00    +0.003 A 
ENDBRANCH  11  16
ENDBRANCH   1  11
BRANCH   7  19
ATOM     19  C   UNL     1       6.195  -7.600  -2.113  0.00  0.00    +0.159 C 
BRANCH  19  20
ATOM     20  C   UNL     1       6.752  -9.000  -2.159  0.00  0.00    +0.131 A 
ATOM     21  N   UNL     1       6.170 -10.016  -2.727  0.00  0.00    -0.229 NA
ATOM     22  C   UNL     1       6.944 -11.121  -2.583  0.00  0.00    +0.109 A 
ATOM     23  C   UNL     1       6.813 -12.454  -2.985  0.00  0.00    +0.033 A 
ATOM     24  C   UNL     1       7.824 -13.336  -2.656  0.00  0.00    +0.022 A 
ATOM     25  C   UNL     1       8.925 -12.882  -1.946  0.00  0.00    +0.113 A 
ATOM     26  N   UNL     1       9.029 -11.622  -1.576  0.00  0.00    -0.235 NA
ATOM     27  C   UNL     1       8.090 -10.735  -1.865  0.00  0.00    +0.165 A 
ATOM     28  N   UNL     1       7.942  -9.386  -1.617  0.00  0.00    -0.280 N 
BRANCH  28  29
ATOM     29  C   UNL     1       8.846  -8.564  -0.931  0.00  0.00    +0.050 A 
ATOM     30  C   UNL     1       9.527  -7.561  -1.608  0.00  0.00    +0.026 A 
ATOM     31  C   UNL     1      10.418  -6.753  -0.930  0.00  0.00    +0.002 A 
ATOM     32  C   UNL     1      10.632  -6.942   0.423  0.00  0.00    +0.003 A 
ATOM     33  C   UNL     1       9.956  -7.939   1.101  0.00  0.00    -0.048 A 
ATOM     34  C   UNL     1       9.059  -8.747   0.429  0.00  0.00    +0.029 A 
ATOM     35  C   UNL     1      10.193  -8.142   2.575  0.00  0.00    +0.044 C 
ENDBRANCH  28  29
ENDBRANCH  19  20
ENDBRANCH   7  19
TORSDOF 5
