REMARK  Name = ZINC40688232
REMARK  8 active torsions:
REMARK  status: ('A' for Active; 'I' for Inactive)
REMARK    1  A    between atoms: C_1  and  C_2
REMARK    2  A    between atoms: C_2  and  C_3
REMARK    3  A    between atoms: C_8  and  N_9
REMARK    4  A    between atoms: C_11  and  N_25
REMARK    5  A    between atoms: C_12  and  N_16
REMARK    6  A    between atoms: N_16  and  C_17
REMARK    7  A    between atoms: C_17  and  C_18
REMARK    8  A    between atoms: C_18  and  C_19
REMARK                            x       y       z     vdW  Elec       q    Type
REMARK                         _______ _______ _______ _____ _____    ______ ____
ROOT
ATOM      1  N   UNL     1      -1.506  -0.315  -2.390  0.00  0.00    -0.298 N 
ATOM      2  C   UNL     1      -2.169  -0.549  -3.590  0.00  0.00    +0.149 A 
ATOM      3  C   UNL     1      -1.532  -0.309  -4.810  0.00  0.00    +0.105 A 
ATOM      4  C   UNL     1      -2.243  -0.560  -5.985  0.00  0.00    +0.145 A 
ATOM      5  N   UNL     1      -3.491  -1.015  -5.899  0.00  0.00    -0.219 NA
ATOM      6  C   UNL     1      -4.055  -1.228  -4.727  0.00  0.00    +0.225 A 
ATOM      7  N   UNL     1      -3.417  -1.009  -3.595  0.00  0.00    -0.219 NA
ATOM      8  H   UNL     1      -0.567  -0.074  -2.394  0.00  0.00    +0.154 HD
ENDROOT
BRANCH   1  14
ATOM      9  C   UNL     1      -1.508  -0.753  -0.016  0.00  0.00    -0.026 A 
ATOM     10  C   UNL     1      -2.190  -0.858   1.180  0.00  0.00    +0.005 A 
ATOM     11  C   UNL     1      -3.556  -0.645   1.220  0.00  0.00    +0.000 A 
ATOM     12  C   UNL     1      -4.243  -0.326   0.063  0.00  0.00    +0.002 A 
ATOM     13  C   UNL     1      -3.568  -0.220  -1.136  0.00  0.00    +0.023 A 
ATOM     14  C   UNL     1      -2.195  -0.428  -1.179  0.00  0.00    +0.036 A 
BRANCH   9  16
ATOM     15  C   UNL     1       0.709   0.355   0.061  0.00  0.00    +0.009 C 
ATOM     16  C   UNL     1      -0.019  -0.985  -0.059  0.00  0.00    +0.033 C 
ENDBRANCH   9  16
ENDBRANCH   1  14
BRANCH   3  17
ATOM     17  N   UNL     1      -0.214   0.172  -4.853  0.00  0.00    -0.353 N 
ATOM     18  H   UNL     1       0.268   0.342  -4.028  0.00  0.00    +0.143 HD
ATOM     19  H   UNL     1       0.216   0.334  -5.707  0.00  0.00    +0.143 HD
ENDBRANCH   3  17
BRANCH   4  20
ATOM     20  N   UNL     1      -1.657  -0.338  -7.225  0.00  0.00    -0.327 N 
ATOM     21  H   UNL     1      -0.747  -0.006  -7.279  0.00  0.00    +0.148 HD
BRANCH  20  22
ATOM     22  C   UNL     1      -2.413  -0.606  -8.451  0.00  0.00    +0.107 C 
BRANCH  22  23
ATOM     23  C   UNL     1      -1.543  -0.281  -9.667  0.00  0.00    +0.049 C 
BRANCH  23  24
ATOM     24  C   UNL     1      -2.321  -0.556 -10.929  0.00  0.00    -0.072 C 
ATOM     25  C   UNL     1      -2.942   0.433 -11.487  0.00  0.00    -0.028 C 
ATOM     26  C   UNL     1      -3.763   0.312 -12.737  0.00  0.00    +0.027 C 
ATOM     27  C   UNL     1      -3.422  -0.988 -13.468  0.00  0.00    +0.004 C 
ATOM     28  C   UNL     1      -3.473  -2.141 -12.457  0.00  0.00    +0.005 C 
ATOM     29  C   UNL     1      -2.323  -1.958 -11.462  0.00  0.00    +0.030 C 
ENDBRANCH  23  24
ENDBRANCH  22  23
ENDBRANCH  20  22
ENDBRANCH   4  20
TORSDOF 7
