REMARK  Name = ZINC02100830
REMARK  9 active torsions:
REMARK  status: ('A' for Active; 'I' for Inactive)
REMARK    1  A    between atoms: C_1  and  O_2
REMARK    2  A    between atoms: O_2  and  C_3
REMARK    3  A    between atoms: C_8  and  N_9
REMARK    4  A    between atoms: C_10  and  C_12
REMARK    5  A    between atoms: N_14  and  N_15
REMARK    6  A    between atoms: C_16  and  C_17
REMARK    7  A    between atoms: C_22  and  O_23
REMARK    8  A    between atoms: O_23  and  C_24
REMARK    9  A    between atoms: C_24  and  C_25
REMARK                            x       y       z     vdW  Elec       q    Type
REMARK                         _______ _______ _______ _____ _____    ______ ____
ROOT
ATOM      1  N   UNL     1      -2.419   1.462  -0.015  0.00  0.00    -0.187 NA
ATOM      2  C   UNL     1      -1.300   2.124  -0.024  0.00  0.00    +0.142 C 
ENDROOT
BRANCH   2   3
ATOM      3  C   UNL     1      -0.017   1.401  -0.046  0.00  0.00    +0.036 A 
ATOM      4  C   UNL     1       1.188   2.109  -0.060  0.00  0.00    +0.013 A 
ATOM      5  C   UNL     1       2.385   1.426  -0.086  0.00  0.00    +0.001 A 
ATOM      6  C   UNL     1       2.399   0.041  -0.098  0.00  0.00    +0.004 A 
ATOM      7  C   UNL     1       1.215  -0.670  -0.084  0.00  0.00    +0.046 A 
ATOM      8  C   UNL     1       0.002  -0.001  -0.058  0.00  0.00    +0.130 A 
BRANCH   8   9
ATOM      9  O   UNL     1      -1.162  -0.699  -0.043  0.00  0.00    -0.487 OA
BRANCH   9  10
ATOM     10  C   UNL     1      -1.064  -2.124  -0.056  0.00  0.00    +0.264 C 
BRANCH  10  11
ATOM     11  C   UNL     1      -2.447  -2.724  -0.037  0.00  0.00    -0.010 A 
ATOM     12  C   UNL     1      -3.057  -3.013   1.169  0.00  0.00    +0.008 A 
ATOM     13  C   UNL     1      -4.327  -3.558   1.187  0.00  0.00    +0.015 A 
ATOM     14  C   UNL     1      -4.983  -3.824  -0.002  0.00  0.00    +0.018 A 
ATOM     15  C   UNL     1      -4.370  -3.538  -1.208  0.00  0.00    +0.015 A 
ATOM     16  C   UNL     1      -3.102  -2.988  -1.225  0.00  0.00    +0.008 A 
ATOM     17 BR   UNL     1      -6.718  -4.575   0.023  0.00  0.00    -0.050 Br
ENDBRANCH  10  11
ENDBRANCH   9  10
ENDBRANCH   8   9
ENDBRANCH   2   3
BRANCH   1  20
ATOM     18  C   UNL     1      -4.799   1.464   0.014  0.00  0.00    +0.318 C 
ATOM     19  O   UNL     1      -4.786   0.249   0.004  0.00  0.00    -0.263 OA
ATOM     20  N   UNL     1      -3.639   2.150   0.005  0.00  0.00    -0.199 N 
ATOM     21  H   UNL     1      -3.650   3.120   0.013  0.00  0.00    +0.178 HD
BRANCH  18  23
ATOM     22  N   UNL     1      -7.258   1.509   0.045  0.00  0.00    -0.275 N 
ATOM     23  C   UNL     1      -6.098   2.195   0.036  0.00  0.00    +0.305 C 
ATOM     24  O   UNL     1      -6.111   3.409   0.046  0.00  0.00    -0.265 OA
ATOM     25  H   UNL     1      -7.250   0.541  -0.029  0.00  0.00    +0.155 HD
BRANCH  22  31
ATOM     26  C   UNL     1      -9.531   1.620   0.865  0.00  0.00    +0.141 A 
ATOM     27  C   UNL     1     -10.733   2.301   0.976  0.00  0.00    +0.047 A 
ATOM     28  C   UNL     1     -10.881   3.543   0.387  0.00  0.00    +0.004 A 
ATOM     29  C   UNL     1      -9.832   4.111  -0.313  0.00  0.00    +0.002 A 
ATOM     30  C   UNL     1      -8.628   3.441  -0.423  0.00  0.00    +0.027 A 
ATOM     31  C   UNL     1      -8.474   2.191   0.160  0.00  0.00    +0.076 A 
BRANCH  26  33
ATOM     32  C   UNL     1     -10.511  -0.124   2.151  0.00  0.00    +0.277 C 
ATOM     33  O   UNL     1      -9.384   0.399   1.444  0.00  0.00    -0.493 OA
ENDBRANCH  26  33
ENDBRANCH  22  31
ENDBRANCH  18  23
ENDBRANCH   1  20
TORSDOF 8
