REMARK  Name = ZINC16012060
REMARK  5 active torsions:
REMARK  status: ('A' for Active; 'I' for Inactive)
REMARK    1  A    between atoms: C_1  and  S_2
REMARK    2  A    between atoms: S_2  and  C_3
REMARK    3  A    between atoms: C_3  and  C_4
REMARK    4  A    between atoms: C_4  and  C_5
REMARK    5  A    between atoms: N_13  and  C_16
REMARK                            x       y       z     vdW  Elec       q    Type
REMARK                         _______ _______ _______ _____ _____    ______ ____
ROOT
ATOM      1  C   UNL     1      -3.204  -2.558  -0.281  0.00  0.00    +0.068 C 
ATOM      2  C   UNL     1      -3.550  -4.056  -0.149  0.00  0.00    +0.107 C 
ATOM      3  C   UNL     1      -4.664  -4.115   0.932  0.00  0.00    +0.123 C 
ATOM      4  C   UNL     1      -4.011  -4.877   2.064  0.00  0.00    +0.233 C 
ATOM      5  O   UNL     1      -4.540  -5.156   3.118  0.00  0.00    -0.274 OA
ATOM      6  N   UNL     1      -2.757  -5.195   1.720  0.00  0.00    -0.210 N 
ATOM      7  C   UNL     1      -2.387  -4.784   0.486  0.00  0.00    +0.232 C 
ATOM      8  O   UNL     1      -1.305  -4.962  -0.032  0.00  0.00    -0.274 OA
ATOM      9  C   UNL     1      -4.885  -2.652   1.338  0.00  0.00    +0.136 C 
ATOM     10  N   UNL     1      -3.621  -1.952   1.011  0.00  0.00    -0.295 NA
ATOM     11  C   UNL     1      -6.068  -2.058   0.627  0.00  0.00    +0.003 A 
ATOM     12  C   UNL     1      -6.380  -1.871  -0.702  0.00  0.00    +0.008 A 
ATOM     13  C   UNL     1      -7.579  -1.278  -1.054  0.00  0.00    +0.000 A 
ATOM     14  C   UNL     1      -8.462  -0.873  -0.070  0.00  0.00    +0.002 A 
ATOM     15  C   UNL     1      -8.153  -1.056   1.262  0.00  0.00    +0.023 A 
ATOM     16  C   UNL     1      -6.948  -1.653   1.626  0.00  0.00    +0.039 A 
ATOM     17  N   UNL     1      -6.416  -1.942   2.884  0.00  0.00    -0.283 N 
ATOM     18  C   UNL     1      -5.206  -2.529   2.802  0.00  0.00    +0.243 C 
ATOM     19  O   UNL     1      -4.511  -2.889   3.728  0.00  0.00    -0.273 OA
ATOM     20  H   UNL     1      -2.921  -2.099   1.723  0.00  0.00    +0.123 HD
ATOM     21  H   UNL     1      -6.865  -1.743   3.721  0.00  0.00    +0.155 HD
ENDROOT
BRANCH   6  22
ATOM     22  C   UNL     1      -1.895  -5.904   2.569  0.00  0.00    +0.045 A 
ATOM     23  C   UNL     1      -2.160  -7.232   2.876  0.00  0.00    +0.027 A 
ATOM     24  C   UNL     1      -1.310  -7.930   3.712  0.00  0.00    +0.041 A 
ATOM     25  C   UNL     1      -0.194  -7.306   4.244  0.00  0.00    +0.142 A 
ATOM     26  C   UNL     1       0.072  -5.981   3.939  0.00  0.00    +0.078 A 
ATOM     27  C   UNL     1      -0.773  -5.282   3.099  0.00  0.00    +0.046 A 
ATOM     28 CL   UNL     1       1.472  -5.201   4.607  0.00  0.00    -0.081 Cl
ATOM     29  F   UNL     1       0.636  -7.990   5.061  0.00  0.00    -0.204 F 
ENDBRANCH   6  22
BRANCH   1  30
ATOM     30  C   UNL     1      -1.699  -2.376  -0.493  0.00  0.00    +0.030 C 
BRANCH  30  31
ATOM     31  C   UNL     1      -1.390  -0.893  -0.707  0.00  0.00    +0.070 C 
BRANCH  31  33
ATOM     32  C   UNL     1       0.590   1.111  -1.195  0.00  0.00    +0.084 C 
ATOM     33  S   UNL     1       0.393  -0.677  -0.958  0.00  0.00    -0.164 S 
ENDBRANCH  31  33
ENDBRANCH  30  31
ENDBRANCH   1  30
TORSDOF 4
