REMARK  Name = ZINC05276752
REMARK  6 active torsions:
REMARK  status: ('A' for Active; 'I' for Inactive)
REMARK    1  A    between atoms: C_1  and  C_2
REMARK    2  A    between atoms: C_13  and  C_15
REMARK    3  A    between atoms: C_19  and  O_29
REMARK    4  A    between atoms: C_20  and  C_27
REMARK    5  A    between atoms: C_23  and  O_26
REMARK    6  A    between atoms: C_27  and  O_28
REMARK                            x       y       z     vdW  Elec       q    Type
REMARK                         _______ _______ _______ _____ _____    ______ ____
ROOT
ATOM      1  C   UNL     1      -0.215   4.244   1.125  0.00  0.00    +0.012 C 
ATOM      2  C   UNL     1      -1.327   3.201   1.042  0.00  0.00    -0.016 C 
ATOM      3  C   UNL     1      -2.524   3.654   1.846  0.00  0.00    +0.008 C 
ATOM      4  C   UNL     1      -2.101   3.730   3.327  0.00  0.00    +0.005 C 
ATOM      5  C   UNL     1      -1.613   2.385   3.834  0.00  0.00    +0.004 C 
ATOM      6  C   UNL     1      -0.524   1.754   2.980  0.00  0.00    -0.003 C 
ATOM      7  C   UNL     1      -0.905   1.802   1.527  0.00  0.00    -0.001 C 
ATOM      8  C   UNL     1       0.152   1.413   0.488  0.00  0.00    +0.005 C 
ATOM      9  C   UNL     1      -0.493   1.900  -0.841  0.00  0.00    +0.016 C 
ATOM     10  C   UNL     1      -1.587   2.927  -0.449  0.00  0.00    +0.108 C 
ATOM     11  C   UNL     1       0.893   2.209   3.259  0.00  0.00    +0.007 C 
ATOM     12  C   UNL     1       1.033   2.821   4.657  0.00  0.00    +0.036 C 
ATOM     13  C   UNL     1       0.144   2.006   5.585  0.00  0.00    +0.076 C 
ATOM     14  C   UNL     1      -1.318   2.367   5.321  0.00  0.00    +0.026 C 
ATOM     15  C   UNL     1      -2.182   1.343   6.064  0.00  0.00    +0.015 C 
ATOM     16  C   UNL     1      -1.888   1.413   7.563  0.00  0.00    +0.032 C 
ATOM     17  C   UNL     1      -0.408   1.237   7.877  0.00  0.00    +0.117 C 
ATOM     18  C   UNL     1       0.470   2.191   7.060  0.00  0.00    +0.066 C 
ENDROOT
BRANCH  10  19
ATOM     19  C   UNL     1      -1.422   4.197  -1.239  0.00  0.00    +0.360 C 
ATOM     20  O   UNL     1      -0.345   4.484  -1.704  0.00  0.00    -0.246 OA
ATOM     21  O   UNL     1      -2.473   5.011  -1.428  0.00  0.00    -0.246 OA
ENDBRANCH  10  19
BRANCH  17  22
ATOM     22  O   UNL     1      -0.191   1.487   9.270  0.00  0.00    -0.392 OA
ATOM     23  H   UNL     1      -0.683   0.896   9.857  0.00  0.00    +0.210 HD
ENDBRANCH  17  22
BRANCH  13  24
ATOM     24  O   UNL     1       0.337   0.615   5.280  0.00  0.00    -0.388 OA
ATOM     25  H   UNL     1       1.242   0.303   5.421  0.00  0.00    +0.210 HD
ENDBRANCH  13  24
BRANCH  14  26
ATOM     26  C   UNL     1      -1.614   3.749   5.912  0.00  0.00    +0.165 C 
BRANCH  26  27
ATOM     27  O   UNL     1      -3.016   4.012   5.829  0.00  0.00    -0.394 OA
ATOM     28  H   UNL     1      -3.277   4.872   6.186  0.00  0.00    +0.209 HD
ENDBRANCH  26  27
ENDBRANCH  14  26
TORSDOF 5
