REMARK  Name = ZINC09092079
REMARK  8 active torsions:
REMARK  status: ('A' for Active; 'I' for Inactive)
REMARK    1  A    between atoms: C_1  and  C_2
REMARK    2  A    between atoms: C_2  and  C_3
REMARK    3  A    between atoms: C_3  and  C_5
REMARK    4  A    between atoms: C_3  and  C_6
REMARK    5  A    between atoms: C_9  and  N_12
REMARK    6  A    between atoms: C_22  and  S_23
REMARK    7  A    between atoms: S_23  and  C_24
REMARK    8  A    between atoms: C_24  and  C_25
REMARK                            x       y       z     vdW  Elec       q    Type
REMARK                         _______ _______ _______ _____ _____    ______ ____
ROOT
ATOM      1  N   UNL     1      -4.960   3.249   5.699  0.00  0.00    -0.255 N 
ATOM      2  C   UNL     1      -6.003   4.085   5.486  0.00  0.00    +0.267 A 
ATOM      3  O   UNL     1      -6.357   4.377   4.359  0.00  0.00    -0.267 OA
ATOM      4  C   UNL     1      -6.696   4.621   6.665  0.00  0.00    +0.067 A 
ATOM      5  C   UNL     1      -7.784   5.485   6.548  0.00  0.00    +0.035 A 
ATOM      6  C   UNL     1      -8.393   5.963   7.688  0.00  0.00    +0.042 A 
ATOM      7  C   UNL     1      -7.932   5.591   8.946  0.00  0.00    +0.022 A 
ATOM      8  C   UNL     1      -6.867   4.747   9.082  0.00  0.00    +0.030 A 
ATOM      9  C   UNL     1      -6.228   4.245   7.944  0.00  0.00    +0.079 A 
ATOM     10  N   UNL     1      -5.170   3.405   8.038  0.00  0.00    -0.223 NA
ATOM     11  C   UNL     1      -4.571   2.935   6.972  0.00  0.00    +0.177 A 
ATOM     12 CL   UNL     1      -9.749   7.040   7.553  0.00  0.00    -0.084 Cl
ENDROOT
BRANCH   1  16
ATOM     13  C   UNL     1      -2.906   1.636   2.451  0.00  0.00    -0.044 A 
ATOM     14  C   UNL     1      -3.996   0.968   2.980  0.00  0.00    +0.006 A 
ATOM     15  C   UNL     1      -4.674   1.497   4.060  0.00  0.00    +0.026 A 
ATOM     16  C   UNL     1      -4.269   2.707   4.608  0.00  0.00    +0.052 A 
ATOM     17  C   UNL     1      -3.179   3.378   4.071  0.00  0.00    +0.026 A 
ATOM     18  C   UNL     1      -2.500   2.841   2.994  0.00  0.00    +0.006 A 
BRANCH  13  19
ATOM     19  C   UNL     1      -2.164   1.053   1.276  0.00  0.00    +0.016 C 
ATOM     20  C   UNL     1      -3.122   0.900   0.093  0.00  0.00    +0.012 C 
BRANCH  19  22
ATOM     21  C   UNL     1      -0.745  -0.855   0.510  0.00  0.00    +0.004 C 
ATOM     22  C   UNL     1      -1.602  -0.318   1.657  0.00  0.00    +0.004 C 
ENDBRANCH  19  22
ENDBRANCH  13  19
ENDBRANCH   1  16
BRANCH  11  23
ATOM     23  S   UNL     1      -3.201   1.848   7.188  0.00  0.00    -0.078 S 
BRANCH  23  24
ATOM     24  C   UNL     1      -3.132   1.785   8.996  0.00  0.00    +0.173 C 
BRANCH  24  25
ATOM     25  C   UNL     1      -2.001   0.887   9.425  0.00  0.00    +0.231 C 
ATOM     26  O   UNL     1      -1.309   0.343   8.590  0.00  0.00    -0.274 OA
ATOM     27  N   UNL     1      -1.758   0.688  10.735  0.00  0.00    -0.240 N 
ATOM     28  C   UNL     1      -0.746  -0.116  11.118  0.00  0.00    +0.303 C 
ATOM     29  O   UNL     1      -0.053  -0.661  10.282  0.00  0.00    -0.253 OA
ATOM     30  N   UNL     1      -0.502  -0.315  12.429  0.00  0.00    -0.313 N 
ATOM     31  H   UNL     1      -2.311   1.123  11.403  0.00  0.00    +0.159 HD
ATOM     32  H   UNL     1      -1.056   0.120  13.096  0.00  0.00    +0.146 HD
ATOM     33  H   UNL     1       0.226  -0.893  12.705  0.00  0.00    +0.146 HD
ENDBRANCH  24  25
ENDBRANCH  23  24
ENDBRANCH  11  23
TORSDOF 6
