REMARK  Name = ZINC37612819
REMARK  9 active torsions:
REMARK  status: ('A' for Active; 'I' for Inactive)
REMARK    1  A    between atoms: C_1  and  C_2
REMARK    2  A    between atoms: C_4  and  S_18
REMARK    3  A    between atoms: C_6  and  N_9
REMARK    4  A    between atoms: C_7  and  C_8
REMARK    5  A    between atoms: C_10  and  C_12
REMARK    6  A    between atoms: C_12  and  C_13
REMARK    7  A    between atoms: C_13  and  N_14
REMARK    8  A    between atoms: N_14  and  C_15
REMARK    9  A    between atoms: S_18  and  N_21
REMARK                            x       y       z     vdW  Elec       q    Type
REMARK                         _______ _______ _______ _____ _____    ______ ____
ROOT
ATOM      1  C   UNL     1      -0.044   1.494  -0.004  0.00  0.00    +0.044 C 
ATOM      2  C   UNL     1      -0.021  -0.012  -0.007  0.00  0.00    -0.044 A 
ATOM      3  C   UNL     1      -0.024  -0.701  -1.207  0.00  0.00    +0.032 A 
ATOM      4  C   UNL     1      -0.002  -2.083  -1.214  0.00  0.00    +0.107 A 
ATOM      5  C   UNL     1       0.024  -2.781  -0.022  0.00  0.00    +0.052 A 
ATOM      6  C   UNL     1       0.027  -2.093   1.184  0.00  0.00    +0.038 A 
ATOM      7  C   UNL     1       0.010  -0.704   1.188  0.00  0.00    -0.026 A 
ATOM      8  C   UNL     1       0.019   0.047   2.494  0.00  0.00    +0.046 C 
ENDROOT
BRANCH   6   9
ATOM      9  N   UNL     1       0.052  -2.797   2.393  0.00  0.00    -0.285 N 
ATOM     10  C   UNL     1       0.563  -4.044   2.436  0.00  0.00    +0.215 C 
ATOM     11  O   UNL     1       1.091  -4.518   1.452  0.00  0.00    -0.276 OA
ATOM     12  H   UNL     1      -0.298  -2.388   3.200  0.00  0.00    +0.155 HD
BRANCH  10  13
ATOM     13  C   UNL     1       0.477  -4.849   3.707  0.00  0.00    +0.077 C 
BRANCH  13  14
ATOM     14  C   UNL     1       1.127  -6.218   3.488  0.00  0.00    -0.073 C 
BRANCH  14  15
ATOM     15  N   UNL     1       1.044  -7.003   4.726  0.00  0.00    +0.381 N 
ATOM     16  H   UNL     1       1.527  -6.516   5.466  0.00  0.00    -0.086 HD
ATOM     17  H   UNL     1       0.075  -7.127   4.982  0.00  0.00    -0.086 HD
BRANCH  15  18
ATOM     18  C   UNL     1       1.667  -8.316   4.516  0.00  0.00    -0.072 C 
ATOM     19  C   UNL     1       0.769  -9.550   4.627  0.00  0.00    -0.017 C 
ATOM     20  C   UNL     1       1.787  -9.243   5.728  0.00  0.00    -0.017 C 
ENDBRANCH  15  18
ENDBRANCH  14  15
ENDBRANCH  13  14
ENDBRANCH  10  13
ENDBRANCH   6   9
BRANCH   4  21
ATOM     21  S   UNL     1      -0.007  -2.955  -2.745  0.00  0.00    +0.056 S 
ATOM     22  O   UNL     1      -0.534  -4.247  -2.475  0.00  0.00    -0.153 OA
ATOM     23  O   UNL     1      -0.583  -2.083  -3.707  0.00  0.00    -0.153 OA
BRANCH  21  24
ATOM     24  N   UNL     1       1.574  -3.172  -3.190  0.00  0.00    -0.204 NA
ATOM     25  H   UNL     1       2.287  -2.835  -2.626  0.00  0.00    +0.144 HD
ATOM     26  H   UNL     1       1.786  -3.637  -4.014  0.00  0.00    +0.144 HD
ENDBRANCH  21  24
ENDBRANCH   4  21
TORSDOF 7
