REMARK  Name = ZINC39987380
REMARK  12 active torsions:
REMARK  status: ('A' for Active; 'I' for Inactive)
REMARK    1  A    between atoms: C_1  and  C_2
REMARK    2  A    between atoms: C_6  and  O_8
REMARK    3  A    between atoms: O_8  and  C_9
REMARK    4  A    between atoms: C_9  and  C_10
REMARK    5  A    between atoms: C_10  and  C_11
REMARK    6  A    between atoms: C_11  and  N_12
REMARK    7  A    between atoms: C_16  and  C_37
REMARK    8  A    between atoms: N_20  and  N_21
REMARK    9  A    between atoms: C_22  and  C_24
REMARK   10  A    between atoms: C_24  and  C_26
REMARK   11  A    between atoms: C_24  and  O_27
REMARK   12  A    between atoms: O_27  and  C_28
REMARK                            x       y       z     vdW  Elec       q    Type
REMARK                         _______ _______ _______ _____ _____    ______ ____
ROOT
ATOM      1  N   UNL     1       0.497  -7.819   5.062  0.00  0.00    -0.265 N 
ATOM      2  C   UNL     1       1.592  -7.994   5.900  0.00  0.00    +0.046 A 
ATOM      3  C   UNL     1       2.960  -7.912   5.662  0.00  0.00    +0.024 A 
ATOM      4  C   UNL     1       3.857  -8.135   6.688  0.00  0.00    +0.005 A 
ATOM      5  C   UNL     1       3.409  -8.441   7.962  0.00  0.00    -0.050 A 
ATOM      6  C   UNL     1       2.055  -8.526   8.217  0.00  0.00    +0.015 A 
ATOM      7  C   UNL     1       1.144  -8.303   7.191  0.00  0.00    +0.029 A 
ATOM      8  C   UNL     1      -0.336  -8.317   7.127  0.00  0.00    +0.153 C 
ATOM      9  N   UNL     1      -1.175  -8.561   8.105  0.00  0.00    -0.174 NA
ATOM     10  C   UNL     1      -0.660  -7.990   5.724  0.00  0.00    +0.271 C 
ATOM     11  O   UNL     1      -1.777  -7.895   5.250  0.00  0.00    -0.268 OA
ATOM     12  C   UNL     1       4.401  -8.681   9.070  0.00  0.00    +0.044 C 
ENDROOT
BRANCH   9  13
ATOM     13  N   UNL     1      -2.555  -8.532   7.867  0.00  0.00    -0.203 N 
ATOM     14  C   UNL     1      -3.417  -8.783   8.872  0.00  0.00    +0.273 C 
ATOM     15  O   UNL     1      -2.999  -9.033   9.982  0.00  0.00    -0.270 OA
ATOM     16  H   UNL     1      -2.890  -8.332   6.979  0.00  0.00    +0.177 HD
BRANCH  14  17
ATOM     17  C   UNL     1      -4.902  -8.752   8.616  0.00  0.00    +0.257 C 
ATOM     18  C   UNL     1      -5.326  -7.330   8.241  0.00  0.00    +0.062 C 
BRANCH  17  19
ATOM     19  O   UNL     1      -5.597  -9.160   9.796  0.00  0.00    -0.480 OA
BRANCH  19  20
ATOM     20  C   UNL     1      -6.840  -9.684   9.629  0.00  0.00    +0.122 A 
ATOM     21  C   UNL     1      -7.423  -9.704   8.370  0.00  0.00    +0.047 A 
ATOM     22  C   UNL     1      -8.686 -10.237   8.203  0.00  0.00    +0.023 A 
ATOM     23  C   UNL     1      -9.371 -10.751   9.290  0.00  0.00    +0.041 A 
ATOM     24  C   UNL     1      -8.792 -10.732  10.547  0.00  0.00    +0.023 A 
ATOM     25  C   UNL     1      -7.526 -10.206  10.717  0.00  0.00    +0.047 A 
ATOM     26 CL   UNL     1     -10.959 -11.420   9.078  0.00  0.00    -0.084 Cl
ENDBRANCH  19  20
ENDBRANCH  17  19
ENDBRANCH  14  17
ENDBRANCH   9  13
BRANCH   1  27
ATOM     27  C   UNL     1       0.592  -7.485   3.639  0.00  0.00    +0.117 C 
BRANCH  27  28
ATOM     28  C   UNL     1       0.604  -5.965   3.471  0.00  0.00    +0.060 C 
BRANCH  28  29
ATOM     29  C   UNL     1       0.703  -5.616   1.985  0.00  0.00    +0.230 C 
BRANCH  29  30
ATOM     30  O   UNL     1       0.715  -4.196   1.829  0.00  0.00    -0.492 OA
BRANCH  30  36
ATOM     31  C   UNL     1       0.919  -0.374  -1.200  0.00  0.00    +0.044 C 
ATOM     32  C   UNL     1       0.902  -1.861  -0.955  0.00  0.00    -0.047 A 
ATOM     33  C   UNL     1       0.972  -2.737  -2.022  0.00  0.00    +0.003 A 
ATOM     34  C   UNL     1       0.957  -4.102  -1.800  0.00  0.00    +0.004 A 
ATOM     35  C   UNL     1       0.870  -4.593  -0.512  0.00  0.00    +0.045 A 
ATOM     36  C   UNL     1       0.800  -3.715   0.560  0.00  0.00    +0.121 A 
ATOM     37  C   UNL     1       0.822  -2.346   0.336  0.00  0.00    +0.049 A 
ENDBRANCH  30  36
ENDBRANCH  29  30
ENDBRANCH  28  29
ENDBRANCH  27  28
ENDBRANCH   1  27
TORSDOF 9
