REMARK  Name = ZINC20932985
REMARK  13 active torsions:
REMARK  status: ('A' for Active; 'I' for Inactive)
REMARK    1  A    between atoms: C_1  and  C_2
REMARK    2  A    between atoms: C_2  and  C_3
REMARK    3  A    between atoms: C_3  and  O_4
REMARK    4  A    between atoms: O_4  and  C_5
REMARK    5  A    between atoms: C_6  and  O_28
REMARK    6  A    between atoms: C_8  and  C_12
REMARK    7  A    between atoms: C_12  and  N_13
REMARK    8  A    between atoms: N_13  and  C_14
REMARK    9  A    between atoms: C_14  and  C_15
REMARK   10  A    between atoms: C_15  and  S_16
REMARK   11  A    between atoms: S_16  and  C_17
REMARK   12  A    between atoms: N_21  and  C_22
REMARK   13  A    between atoms: O_28  and  C_29
REMARK                            x       y       z     vdW  Elec       q    Type
REMARK                         _______ _______ _______ _____ _____    ______ ____
ROOT
ATOM      1  N   UNL     1      -0.813   6.339  -1.493  0.00  0.00    +0.382 N 
ATOM      2  H   UNL     1      -1.126   5.401  -1.975  0.00  0.00    -0.085 HD
ATOM      3  H   UNL     1      -1.683   6.813  -1.016  0.00  0.00    -0.085 HD
ENDROOT
BRANCH   1   4
ATOM      4  C   UNL     1       0.206   6.050  -0.475  0.00  0.00    -0.047 C 
BRANCH   4   8
ATOM      5  C   UNL     1      -1.432   3.411   2.466  0.00  0.00    +0.176 A 
ATOM      6  C   UNL     1      -0.787   2.893   1.346  0.00  0.00    +0.163 A 
ATOM      7  C   UNL     1      -0.259   3.751   0.395  0.00  0.00    +0.051 A 
ATOM      8  C   UNL     1      -0.368   5.119   0.561  0.00  0.00    -0.060 A 
ATOM      9  C   UNL     1      -1.003   5.635   1.675  0.00  0.00    +0.021 A 
ATOM     10  C   UNL     1      -1.532   4.784   2.629  0.00  0.00    +0.063 A 
ATOM     11 BR   UNL     1      -2.401   5.494   4.152  0.00  0.00    -0.046 Br
BRANCH   6  12
ATOM     12  O   UNL     1      -0.682   1.547   1.184  0.00  0.00    -0.491 OA
ATOM     13  C   UNL     1      -0.013   1.086   0.008  0.00  0.00    +0.277 C 
ENDBRANCH   6  12
BRANCH   5  14
ATOM     14  O   UNL     1      -1.956   2.573   3.399  0.00  0.00    -0.487 OA
BRANCH  14  15
ATOM     15  C   UNL     1      -1.101   2.185   4.476  0.00  0.00    +0.229 C 
BRANCH  15  17
ATOM     16  C   UNL     1      -0.944   0.832   6.571  0.00  0.00    +0.007 C 
ATOM     17  C   UNL     1      -1.860   1.248   5.418  0.00  0.00    +0.038 C 
ENDBRANCH  15  17
ENDBRANCH  14  15
ENDBRANCH   5  14
ENDBRANCH   4   8
ENDBRANCH   1   4
BRANCH   1  18
ATOM     18  C   UNL     1      -0.288   7.246  -2.522  0.00  0.00    -0.071 C 
BRANCH  18  19
ATOM     19  C   UNL     1      -1.375   7.523  -3.562  0.00  0.00    +0.058 C 
BRANCH  19  20
ATOM     20  S   UNL     1      -0.728   8.640  -4.830  0.00  0.00    -0.086 S 
BRANCH  20  21
ATOM     21  C   UNL     1      -2.146   8.783  -5.865  0.00  0.00    +0.214 A 
ATOM     22  N   UNL     1      -3.311   8.199  -5.681  0.00  0.00    -0.101 NA
ATOM     23  N   UNL     1      -4.127   8.516  -6.621  0.00  0.00    -0.022 NA
ATOM     24  N   UNL     1      -3.558   9.312  -7.461  0.00  0.00    -0.038 NA
ATOM     25  N   UNL     1      -2.246   9.522  -6.999  0.00  0.00    -0.187 N 
BRANCH  25  26
ATOM     26  C   UNL     1      -1.254  10.320  -7.585  0.00  0.00    +0.070 A 
ATOM     27  C   UNL     1      -0.358  11.016  -6.785  0.00  0.00    +0.028 A 
ATOM     28  C   UNL     1       0.621  11.798  -7.366  0.00  0.00    +0.002 A 
ATOM     29  C   UNL     1       0.703  11.897  -8.743  0.00  0.00    +0.000 A 
ATOM     30  C   UNL     1      -0.192  11.210  -9.542  0.00  0.00    +0.002 A 
ATOM     31  C   UNL     1      -1.170  10.422  -8.967  0.00  0.00    +0.028 A 
ENDBRANCH  25  26
ENDBRANCH  20  21
ENDBRANCH  19  20
ENDBRANCH  18  19
ENDBRANCH   1  18
TORSDOF 11
