REMARK  Name = ZINC04735767
REMARK  12 active torsions:
REMARK  status: ('A' for Active; 'I' for Inactive)
REMARK    1  A    between atoms: C_1  and  C_2
REMARK    2  A    between atoms: C_7  and  N_8
REMARK    3  A    between atoms: N_8  and  S_9
REMARK    4  A    between atoms: S_9  and  C_12
REMARK    5  A    between atoms: C_15  and  C_18
REMARK    6  A    between atoms: C_18  and  C_19
REMARK    7  A    between atoms: C_18  and  C_20
REMARK    8  A    between atoms: C_18  and  C_21
REMARK    9  A    between atoms: C_22  and  C_26
REMARK   10  A    between atoms: C_23  and  C_25
REMARK   11  A    between atoms: C_26  and  O_28
REMARK   12  A    between atoms: O_28  and  C_29
REMARK                            x       y       z     vdW  Elec       q    Type
REMARK                         _______ _______ _______ _____ _____    ______ ____
ROOT
ATOM      1  C   UNL     1       1.351  -2.373   0.159  0.00  0.00    +0.046 C 
ATOM      2  C   UNL     1       1.229  -0.874   0.250  0.00  0.00    -0.025 A 
ATOM      3  C   UNL     1      -0.011  -0.300   0.431  0.00  0.00    +0.052 A 
ATOM      4  C   UNL     1      -0.133   1.081   0.516  0.00  0.00    +0.136 A 
ATOM      5  C   UNL     1       1.015   1.881   0.415  0.00  0.00    +0.036 A 
ATOM      6  C   UNL     1       2.264   1.298   0.231  0.00  0.00    +0.037 A 
ATOM      7  C   UNL     1       2.369  -0.081   0.149  0.00  0.00    +0.052 A 
ATOM      8  C   UNL     1       0.538   3.273   0.544  0.00  0.00    +0.107 A 
ATOM      9  C   UNL     1      -0.812   3.186   0.706  0.00  0.00    +0.117 A 
ATOM     10  O   UNL     1      -1.191   1.904   0.683  0.00  0.00    -0.459 OA
ATOM     11  C   UNL     1      -1.740   4.361   0.879  0.00  0.00    +0.087 C 
ENDROOT
BRANCH   7  12
ATOM     12  N   UNL     1       3.621  -0.677  -0.035  0.00  0.00    -0.216 N 
ATOM     13  H   UNL     1       3.702  -1.477  -0.578  0.00  0.00    +0.174 HD
BRANCH  12  14
ATOM     14  S   UNL     1       4.964  -0.016   0.673  0.00  0.00    +0.072 S 
ATOM     15  O   UNL     1       6.039  -0.909   0.415  0.00  0.00    -0.150 OA
ATOM     16  O   UNL     1       4.998   1.350   0.283  0.00  0.00    -0.150 OA
BRANCH  14  17
ATOM     17  C   UNL     1       4.699  -0.037   2.414  0.00  0.00    +0.109 A 
ATOM     18  C   UNL     1       4.100   1.043   3.035  0.00  0.00    +0.029 A 
ATOM     19  C   UNL     1       3.888   1.025   4.401  0.00  0.00    +0.006 A 
ATOM     20  C   UNL     1       4.283  -0.070   5.147  0.00  0.00    -0.042 A 
ATOM     21  C   UNL     1       4.887  -1.147   4.527  0.00  0.00    +0.006 A 
ATOM     22  C   UNL     1       5.095  -1.131   3.161  0.00  0.00    +0.029 A 
BRANCH  20  23
ATOM     23  C   UNL     1       4.056  -0.087   6.637  0.00  0.00    -0.013 C 
ATOM     24  C   UNL     1       5.400  -0.223   7.356  0.00  0.00    +0.015 C 
ATOM     25  C   UNL     1       3.378   1.215   7.065  0.00  0.00    +0.015 C 
ATOM     26  C   UNL     1       3.161  -1.273   7.003  0.00  0.00    +0.015 C 
ENDBRANCH  20  23
ENDBRANCH  14  17
ENDBRANCH  12  14
ENDBRANCH   7  12
BRANCH   8  27
ATOM     27  C   UNL     1       1.350   4.496   0.505  0.00  0.00    +0.343 C 
ATOM     28  O   UNL     1       1.557   5.055  -0.555  0.00  0.00    -0.245 OA
BRANCH  27  29
ATOM     29  O   UNL     1       1.865   5.000   1.644  0.00  0.00    -0.464 OA
ATOM     30  C   UNL     1       2.658   6.211   1.531  0.00  0.00    +0.280 C 
ENDBRANCH  27  29
ENDBRANCH   8  27
TORSDOF 6
