REMARK  Name = ZINC22697812
REMARK  8 active torsions:
REMARK  status: ('A' for Active; 'I' for Inactive)
REMARK    1  A    between atoms: C_1  and  C_2
REMARK    2  A    between atoms: C_5  and  C_13
REMARK    3  A    between atoms: N_8  and  C_9
REMARK    4  A    between atoms: C_9  and  C_10
REMARK    5  A    between atoms: C_10  and  O_11
REMARK    6  A    between atoms: O_11  and  C_12
REMARK    7  A    between atoms: C_13  and  C_15
REMARK    8  A    between atoms: C_13  and  N_21
REMARK                            x       y       z     vdW  Elec       q    Type
REMARK                         _______ _______ _______ _____ _____    ______ ____
ROOT
ATOM      1  C   UNL     1      -0.101   0.935   2.488  0.00  0.00    +0.021 C 
ENDROOT
BRANCH   1   6
ATOM      2  C   UNL     1      -1.538   3.631   7.376  0.00  0.00    +0.064 C 
ATOM      3  C   UNL     1      -1.164   2.913   6.105  0.00  0.00    +0.023 A 
ATOM      4  C   UNL     1      -1.170   1.563   6.076  0.00  0.00    +0.072 A 
ATOM      5  C   UNL     1      -0.827   0.886   4.889  0.00  0.00    +0.188 A 
ATOM      6  C   UNL     1      -0.478   1.625   3.773  0.00  0.00    +0.056 A 
ATOM      7  C   UNL     1      -0.486   3.023   3.852  0.00  0.00    +0.257 A 
ATOM      8  O   UNL     1      -0.185   3.690   2.875  0.00  0.00    -0.267 OA
ATOM      9  N   UNL     1      -0.825   3.633   5.003  0.00  0.00    -0.310 N 
ATOM     10  O   UNL     1      -0.834  -0.467   4.842  0.00  0.00    -0.287 OA
BRANCH   9  11
ATOM     11  C   UNL     1      -0.830   5.096   5.069  0.00  0.00    +0.153 C 
BRANCH  11  12
ATOM     12  C   UNL     1       0.514   5.586   5.613  0.00  0.00    +0.181 C 
BRANCH  12  13
ATOM     13  O   UNL     1       1.552   5.253   4.689  0.00  0.00    -0.381 OA
ATOM     14  C   UNL     1       2.855   5.668   5.103  0.00  0.00    +0.194 C 
ENDBRANCH  12  13
ENDBRANCH  11  12
ENDBRANCH   9  11
ENDBRANCH   1   6
BRANCH   1  15
ATOM     15  N   UNL     1      -0.945   1.439   1.396  0.00  0.00    +0.388 N 
ATOM     16  C   UNL     1      -2.367   1.208   1.680  0.00  0.00    -0.077 C 
ATOM     17  C   UNL     1      -3.219   1.872   0.596  0.00  0.00    -0.019 C 
ATOM     18  C   UNL     1      -2.850   1.284  -0.768  0.00  0.00    -0.004 C 
ATOM     19  C   UNL     1      -1.354   1.495  -1.019  0.00  0.00    -0.019 C 
ATOM     20  C   UNL     1      -0.556   0.842   0.112  0.00  0.00    -0.077 C 
ATOM     21  H   UNL     1      -0.790   2.526   1.321  0.00  0.00    -0.080 HD
ENDBRANCH   1  15
BRANCH   1  22
ATOM     22  C   UNL     1       1.346   1.214   2.174  0.00  0.00    +0.032 A 
ATOM     23  C   UNL     1       2.330   0.404   2.709  0.00  0.00    +0.022 A 
ATOM     24  C   UNL     1       3.658   0.668   2.414  0.00  0.00    +0.003 A 
ATOM     25  C   UNL     1       3.949   1.744   1.588  0.00  0.00    +0.020 A 
ATOM     26  C   UNL     1       2.912   2.510   1.090  0.00  0.00    +0.111 A 
ATOM     27  N   UNL     1       1.660   2.226   1.388  0.00  0.00    -0.261 NA
ENDBRANCH   1  22
TORSDOF 6
