REMARK  Name = ZINC36637447
REMARK  15 active torsions:
REMARK  status: ('A' for Active; 'I' for Inactive)
REMARK    1  A    between atoms: C_1  and  C_2
REMARK    2  A    between atoms: C_2  and  O_3
REMARK    3  A    between atoms: O_3  and  C_4
REMARK    4  A    between atoms: N_13  and  C_14
REMARK    5  A    between atoms: C_14  and  C_15
REMARK    6  A    between atoms: C_15  and  N_16
REMARK    7  A    between atoms: N_16  and  C_17
REMARK    8  A    between atoms: N_16  and  C_18
REMARK    9  A    between atoms: C_19  and  C_21
REMARK   10  A    between atoms: C_24  and  S_27
REMARK   11  A    between atoms: S_27  and  N_30
REMARK   12  A    between atoms: N_30  and  C_31
REMARK   13  A    between atoms: N_30  and  C_34
REMARK   14  A    between atoms: C_31  and  C_32
REMARK   15  A    between atoms: C_34  and  C_35
REMARK                            x       y       z     vdW  Elec       q    Type
REMARK                         _______ _______ _______ _____ _____    ______ ____
ROOT
ATOM      1  C   UNL     1      -1.644  -0.956   0.643  0.00  0.00    +0.147 A 
ATOM      2  C   UNL     1      -0.446  -1.615   0.789  0.00  0.00    +0.048 A 
ATOM      3  C   UNL     1      -0.366  -2.998   0.705  0.00  0.00    +0.005 A 
ATOM      4  C   UNL     1      -1.515  -3.730   0.470  0.00  0.00    +0.017 A 
ATOM      5  C   UNL     1      -2.717  -3.081   0.323  0.00  0.00    +0.044 A 
ATOM      6  C   UNL     1      -2.842  -1.677   0.407  0.00  0.00    +0.122 A 
ATOM      7  N   UNL     1      -4.092  -1.189   0.246  0.00  0.00    -0.221 NA
ATOM      8  C   UNL     1      -5.128  -1.964   0.030  0.00  0.00    +0.168 A 
ATOM      9  S   UNL     1      -4.392  -3.592   0.019  0.00  0.00    -0.052 S 
ATOM     10  N   UNL     1      -6.455  -1.609  -0.152  0.00  0.00    -0.248 N 
ATOM     11  C   UNL     1      -6.816  -0.311  -0.117  0.00  0.00    +0.252 C 
ATOM     12  O   UNL     1      -5.970   0.552   0.001  0.00  0.00    -0.270 OA
ENDROOT
BRANCH  11  13
ATOM     13  C   UNL     1      -8.243   0.062  -0.223  0.00  0.00    +0.037 A 
ATOM     14  C   UNL     1      -9.217  -0.704   0.419  0.00  0.00    +0.015 A 
ATOM     15  C   UNL     1     -10.547  -0.350   0.316  0.00  0.00    +0.029 A 
ATOM     16  C   UNL     1     -10.915   0.761  -0.422  0.00  0.00    +0.106 A 
ATOM     17  C   UNL     1      -9.954   1.524  -1.062  0.00  0.00    +0.029 A 
ATOM     18  C   UNL     1      -8.620   1.185  -0.962  0.00  0.00    +0.015 A 
BRANCH  16  19
ATOM     19  S   UNL     1     -12.615   1.206  -0.549  0.00  0.00    +0.061 S 
ATOM     20  O   UNL     1     -12.748   1.966  -1.742  0.00  0.00    -0.153 OA
ATOM     21  O   UNL     1     -13.363   0.021  -0.312  0.00  0.00    -0.153 OA
BRANCH  19  22
ATOM     22  N   UNL     1     -12.947   2.233   0.707  0.00  0.00    -0.169 NA
BRANCH  22  23
ATOM     23  C   UNL     1     -12.781   3.679   0.534  0.00  0.00    +0.136 C 
BRANCH  23  24
ATOM     24  C   UNL     1     -14.102   4.295   0.153  0.00  0.00    -0.018 C 
ATOM     25  C   UNL     1     -14.595   5.279   0.863  0.00  0.00    +0.005 C 
ENDBRANCH  23  24
ENDBRANCH  22  23
BRANCH  22  26
ATOM     26  C   UNL     1     -13.407   1.697   1.990  0.00  0.00    +0.136 C 
BRANCH  26  27
ATOM     27  C   UNL     1     -12.229   1.526   2.915  0.00  0.00    -0.018 C 
ATOM     28  C   UNL     1     -12.237   2.090   4.097  0.00  0.00    +0.005 C 
ENDBRANCH  26  27
ENDBRANCH  22  26
ENDBRANCH  19  22
ENDBRANCH  16  19
ENDBRANCH  11  13
BRANCH   1  29
ATOM     29  O   UNL     1      -1.681   0.400   0.733  0.00  0.00    -0.490 OA
BRANCH  29  31
ATOM     30  C   UNL     1      -0.681   2.578   1.041  0.00  0.00    +0.048 C 
ATOM     31  C   UNL     1      -0.441   1.069   0.973  0.00  0.00    +0.226 C 
ENDBRANCH  29  31
ENDBRANCH   1  29
BRANCH  10  32
ATOM     32  C   UNL     1      -7.465  -2.645  -0.382  0.00  0.00    +0.097 C 
BRANCH  32  33
ATOM     33  C   UNL     1      -7.753  -3.377   0.931  0.00  0.00    -0.060 C 
BRANCH  33  34
ATOM     34  N   UNL     1      -8.867  -4.314   0.735  0.00  0.00    +0.377 N 
ATOM     35  C   UNL     1      -8.463  -5.362  -0.214  0.00  0.00    -0.097 C 
ATOM     36  C   UNL     1      -9.222  -4.929   2.021  0.00  0.00    -0.097 C 
ATOM     37  H   UNL     1      -9.665  -3.817   0.367  0.00  0.00    -0.083 HD
ENDBRANCH  33  34
ENDBRANCH  32  33
ENDBRANCH  10  32
TORSDOF 12
