REMARK  Name = ZINC06149335
REMARK  14 active torsions:
REMARK  status: ('A' for Active; 'I' for Inactive)
REMARK    1  A    between atoms: C_1  and  C_2
REMARK    2  A    between atoms: C_2  and  C_3
REMARK    3  A    between atoms: C_3  and  C_4
REMARK    4  A    between atoms: C_3  and  C_5
REMARK    5  A    between atoms: C_3  and  N_6
REMARK    6  A    between atoms: C_7  and  C_11
REMARK    7  A    between atoms: C_11  and  C_13
REMARK    8  A    between atoms: C_11  and  N_69
REMARK    9  A    between atoms: C_16  and  C_26
REMARK   10  A    between atoms: C_18  and  C_25
REMARK   11  A    between atoms: C_27  and  C_28
REMARK   12  A    between atoms: C_27  and  N_69
REMARK   13  A    between atoms: C_33  and  C_34
REMARK   14  A    between atoms: C_33  and  N_69
REMARK                            x       y       z     vdW  Elec       q    Type
REMARK                         _______ _______ _______ _____ _____    ______ ____
ROOT
ATOM      1  C   UNL     1       4.203  -4.053  -0.797  0.00  0.00    +0.040 C 
ENDROOT
BRANCH   1   2
ATOM      2  C   UNL     1       2.758  -3.642  -0.923  0.00  0.00    +0.011 A 
ATOM      3  C   UNL     1       2.323  -2.510  -0.317  0.00  0.00    +0.018 A 
ATOM      4  C   UNL     1       0.913  -2.139  -0.457  0.00  0.00    +0.002 A 
ATOM      5  C   UNL     1       0.406  -0.983   0.145  0.00  0.00    -0.041 A 
ATOM      6  C   UNL     1      -0.914  -0.664  -0.006  0.00  0.00    +0.007 A 
ATOM      7  C   UNL     1      -1.756  -1.478  -0.751  0.00  0.00    -0.048 A 
ATOM      8  C   UNL     1      -1.278  -2.622  -1.353  0.00  0.00    +0.029 A 
ATOM      9  C   UNL     1       0.062  -2.966  -1.214  0.00  0.00    +0.050 A 
ATOM     10  N   UNL     1       0.568  -4.105  -1.805  0.00  0.00    -0.322 N 
ATOM     11  H   UNL     1      -0.038  -4.691  -2.342  0.00  0.00    +0.169 HD
ATOM     12  C   UNL     1       1.863  -4.437  -1.671  0.00  0.00    +0.251 A 
ATOM     13  O   UNL     1       2.276  -5.451  -2.208  0.00  0.00    -0.268 OA
ATOM     14  C   UNL     1      -3.208  -1.104  -0.908  0.00  0.00    +0.044 C 
ATOM     15  C   UNL     1       1.312  -0.092   0.956  0.00  0.00    +0.044 C 
ENDBRANCH   1   2
BRANCH   1  17
ATOM     16  N   UNL     1       4.853  -5.552   1.161  0.00  0.00    -0.225 N 
ATOM     17  C   UNL     1       4.291  -5.356  -0.046  0.00  0.00    +0.143 A 
ATOM     18  N   UNL     1       3.830  -6.518  -0.439  0.00  0.00    -0.115 NA
ATOM     19  N   UNL     1       4.102  -7.384   0.475  0.00  0.00    -0.023 NA
ATOM     20  N   UNL     1       4.718  -6.803   1.445  0.00  0.00    -0.043 NA
BRANCH  16  21
ATOM     21  C   UNL     1       5.499  -4.535   1.995  0.00  0.00    +0.061 C 
ATOM     22  C   UNL     1       6.722  -3.977   1.264  0.00  0.00    +0.036 C 
ATOM     23  C   UNL     1       4.510  -3.401   2.273  0.00  0.00    +0.036 C 
BRANCH  21  25
ATOM     24  C   UNL     1       6.612  -4.103   4.189  0.00  0.00    +0.006 C 
ATOM     25  C   UNL     1       5.938  -5.165   3.318  0.00  0.00    +0.026 C 
ENDBRANCH  21  25
ENDBRANCH  16  21
ENDBRANCH   1  17
BRANCH   1  26
ATOM     26  N   UNL     1       4.766  -4.237  -2.152  0.00  0.00    +0.397 N 
ATOM     27  H   UNL     1       4.152  -4.863  -2.686  0.00  0.00    -0.079 HD
BRANCH  26  28
ATOM     28  C   UNL     1       4.844  -2.935  -2.847  0.00  0.00    -0.001 C 
BRANCH  28  29
ATOM     29  C   UNL     1       3.471  -2.575  -3.355  0.00  0.00    +0.089 A 
ATOM     30  C   UNL     1       2.823  -1.420  -3.120  0.00  0.00    +0.042 A 
ATOM     31  C   UNL     1       1.576  -1.508  -3.781  0.00  0.00    +0.041 A 
ATOM     32  C   UNL     1       1.537  -2.712  -4.380  0.00  0.00    +0.195 A 
ATOM     33  O   UNL     1       2.690  -3.352  -4.124  0.00  0.00    -0.470 OA
ENDBRANCH  28  29
ENDBRANCH  26  28
BRANCH  26  34
ATOM     34  C   UNL     1       6.110  -4.843  -2.062  0.00  0.00    -0.034 C 
BRANCH  34  35
ATOM     35  C   UNL     1       5.964  -6.343  -2.105  0.00  0.00    -0.027 A 
ATOM     36  C   UNL     1       5.500  -7.127  -3.109  0.00  0.00    +0.009 A 
ATOM     37  C   UNL     1       5.456  -8.496  -2.924  0.00  0.00    +0.008 A 
ATOM     38  C   UNL     1       5.876  -9.014  -1.744  0.00  0.00    +0.045 A 
ATOM     39  S   UNL     1       6.362  -7.547  -0.849  0.00  0.00    -0.103 S 
ENDBRANCH  34  35
ENDBRANCH  26  34
ENDBRANCH   1  26
TORSDOF 9
