REMARK  Name = ZINC36506517
REMARK  15 active torsions:
REMARK  status: ('A' for Active; 'I' for Inactive)
REMARK    1  A    between atoms: C_1  and  C_2
REMARK    2  A    between atoms: C_2  and  C_3
REMARK    3  A    between atoms: C_2  and  C_4
REMARK    4  A    between atoms: C_2  and  C_5
REMARK    5  A    between atoms: C_5  and  C_6
REMARK    6  A    between atoms: C_6  and  C_7
REMARK    7  A    between atoms: C_6  and  C_8
REMARK    8  A    between atoms: C_6  and  N_9
REMARK    9  A    between atoms: C_10  and  C_12
REMARK   10  A    between atoms: C_12  and  C_14
REMARK   11  A    between atoms: C_12  and  N_20
REMARK   12  A    between atoms: N_20  and  C_21
REMARK   13  A    between atoms: C_21  and  C_22
REMARK   14  A    between atoms: C_27  and  C_29
REMARK   15  A    between atoms: C_32  and  N_35
REMARK                            x       y       z     vdW  Elec       q    Type
REMARK                         _______ _______ _______ _____ _____    ______ ____
ROOT
ATOM      1  C   UNL     1       5.683  -1.225  -3.438  0.00  0.00    +0.193 C 
ENDROOT
BRANCH   1   2
ATOM      2  C   UNL     1       4.787  -0.706  -4.533  0.00  0.00    -0.018 A 
ATOM      3  C   UNL     1       4.601   0.655  -4.687  0.00  0.00    +0.006 A 
ATOM      4  C   UNL     1       3.779   1.132  -5.691  0.00  0.00    +0.000 A 
ATOM      5  C   UNL     1       3.142   0.247  -6.541  0.00  0.00    +0.000 A 
ATOM      6  C   UNL     1       3.328  -1.114  -6.387  0.00  0.00    +0.000 A 
ATOM      7  C   UNL     1       4.154  -1.590  -5.386  0.00  0.00    +0.006 A 
ENDBRANCH   1   2
BRANCH   1   9
ATOM      8  N   UNL     1       3.833  -2.255  -2.161  0.00  0.00    -0.308 N 
ATOM      9  C   UNL     1       4.881  -1.408  -2.176  0.00  0.00    +0.239 C 
ATOM     10  O   UNL     1       5.178  -0.793  -1.174  0.00  0.00    -0.273 OA
ATOM     11  H   UNL     1       3.595  -2.747  -2.963  0.00  0.00    +0.149 HD
BRANCH   8  12
ATOM     12  C   UNL     1       3.053  -2.434  -0.934  0.00  0.00    +0.030 C 
ATOM     13  C   UNL     1       2.618  -1.066  -0.403  0.00  0.00    +0.031 C 
ATOM     14  C   UNL     1       3.910  -3.141   0.117  0.00  0.00    +0.031 C 
BRANCH  12  15
ATOM     15  C   UNL     1       1.814  -3.280  -1.235  0.00  0.00    +0.031 C 
BRANCH  15  17
ATOM     16  C   UNL     1       1.797  -3.009  -3.719  0.00  0.00    +0.010 C 
ATOM     17  C   UNL     1       1.059  -2.676  -2.421  0.00  0.00    -0.036 C 
ATOM     18  C   UNL     1       0.981  -1.157  -2.254  0.00  0.00    +0.010 C 
ATOM     19  C   UNL     1      -0.355  -3.257  -2.475  0.00  0.00    +0.010 C 
ENDBRANCH  15  17
ENDBRANCH  12  15
ENDBRANCH   8  12
ENDBRANCH   1   9
BRANCH   1  20
ATOM     20  N   UNL     1       6.763  -0.265  -3.196  0.00  0.00    -0.275 N 
ATOM     21  C   UNL     1       7.711  -0.066  -4.133  0.00  0.00    +0.248 C 
ATOM     22  O   UNL     1       8.619   0.715  -3.922  0.00  0.00    -0.270 OA
BRANCH  21  23
ATOM     23  C   UNL     1       7.647  -0.797  -5.416  0.00  0.00    +0.037 A 
ATOM     24  C   UNL     1       6.606  -1.694  -5.660  0.00  0.00    +0.015 A 
ATOM     25  C   UNL     1       6.552  -2.372  -6.861  0.00  0.00    +0.033 A 
ATOM     26  C   UNL     1       7.526  -2.165  -7.821  0.00  0.00    +0.126 A 
ATOM     27  C   UNL     1       8.561  -1.277  -7.585  0.00  0.00    +0.033 A 
ATOM     28  C   UNL     1       8.624  -0.588  -6.391  0.00  0.00    +0.015 A 
BRANCH  26  29
ATOM     29  N   UNL     1       7.462  -2.897  -9.106  0.00  0.00    +0.056 N 
ATOM     30  O   UNL     1       6.559  -3.673  -9.315  0.00  0.00    -0.126 OA
ATOM     31  O   UNL     1       8.312  -2.718  -9.946  0.00  0.00    -0.126 OA
ENDBRANCH  26  29
ENDBRANCH  21  23
BRANCH  20  32
ATOM     32  C   UNL     1       6.812   0.478  -1.934  0.00  0.00    +0.183 C 
BRANCH  32  33
ATOM     33  C   UNL     1       7.399  -0.398  -0.857  0.00  0.00    +0.122 A 
ATOM     34  C   UNL     1       8.689  -0.422  -0.479  0.00  0.00    +0.046 A 
ATOM     35  C   UNL     1       8.796  -1.382   0.554  0.00  0.00    +0.041 A 
ATOM     36  C   UNL     1       7.563  -1.887   0.745  0.00  0.00    +0.195 A 
ATOM     37  O   UNL     1       6.720  -1.283  -0.109  0.00  0.00    -0.466 OA
ENDBRANCH  32  33
ENDBRANCH  20  32
ENDBRANCH   1  20
TORSDOF 10
