REMARK  Name = ZINC40986415
REMARK  8 active torsions:
REMARK  status: ('A' for Active; 'I' for Inactive)
REMARK    1  A    between atoms: C_4  and  C_7
REMARK    2  A    between atoms: C_7  and  C_9
REMARK    3  A    between atoms: C_7  and  N_31
REMARK    4  A    between atoms: C_9  and  N_10
REMARK    5  A    between atoms: C_11  and  C_13
REMARK    6  A    between atoms: C_16  and  S_20
REMARK    7  A    between atoms: S_20  and  C_23
REMARK    8  A    between atoms: C_23  and  C_24
REMARK                            x       y       z     vdW  Elec       q    Type
REMARK                         _______ _______ _______ _____ _____    ______ ____
ROOT
ATOM      1  N   UNL     1       5.320  -1.941   1.316  0.00  0.00    -0.312 N 
ATOM      2  C   UNL     1       5.837  -2.443   2.455  0.00  0.00    +0.248 C 
ATOM      3  O   UNL     1       5.352  -2.139   3.527  0.00  0.00    -0.270 OA
ATOM      4  H   UNL     1       5.707  -2.183   0.460  0.00  0.00    +0.149 HD
ENDROOT
BRANCH   2   5
ATOM      5  C   UNL     1       6.992  -3.362   2.400  0.00  0.00    +0.092 A 
ATOM      6  C   UNL     1       7.570  -3.720   1.176  0.00  0.00    +0.130 A 
ATOM      7  N   UNL     1       8.602  -4.544   1.173  0.00  0.00    -0.219 NA
ATOM      8  C   UNL     1       9.089  -5.027   2.300  0.00  0.00    +0.272 A 
ATOM      9  N   UNL     1       8.578  -4.718   3.474  0.00  0.00    -0.199 NA
ATOM     10  C   UNL     1       7.546  -3.895   3.571  0.00  0.00    +0.146 A 
ATOM     11 CL   UNL     1       6.884  -3.489   5.124  0.00  0.00    -0.061 Cl
BRANCH   8  12
ATOM     12  S   UNL     1      10.467  -6.123   2.232  0.00  0.00    +0.036 S 
ATOM     13  O   UNL     1      10.362  -6.911   3.410  0.00  0.00    -0.166 OA
ATOM     14  O   UNL     1      10.389  -6.726   0.948  0.00  0.00    -0.166 OA
BRANCH  12  15
ATOM     15  C   UNL     1      11.924  -5.046   2.329  0.00  0.00    +0.210 C 
BRANCH  15  16
ATOM     16  C   UNL     1      13.174  -5.887   2.279  0.00  0.00    -0.026 A 
ATOM     17  C   UNL     1      13.731  -6.367   3.450  0.00  0.00    +0.006 A 
ATOM     18  C   UNL     1      14.877  -7.137   3.405  0.00  0.00    +0.020 A 
ATOM     19  C   UNL     1      15.468  -7.429   2.188  0.00  0.00    +0.041 A 
ATOM     20  C   UNL     1      14.910  -6.948   1.017  0.00  0.00    +0.020 A 
ATOM     21  C   UNL     1      13.760  -6.182   1.062  0.00  0.00    +0.006 A 
ATOM     22 CL   UNL     1      16.908  -8.396   2.131  0.00  0.00    -0.084 Cl
ENDBRANCH  15  16
ENDBRANCH  12  15
ENDBRANCH   8  12
ENDBRANCH   2   5
BRANCH   1  23
ATOM     23  C   UNL     1       4.174  -1.030   1.370  0.00  0.00    +0.094 C 
BRANCH  23  24
ATOM     24  C   UNL     1       3.870  -0.508  -0.035  0.00  0.00    -0.020 C 
BRANCH  24  28
ATOM     25  C   UNL     1       7.127   1.896  -1.399  0.00  0.00    +0.000 A 
ATOM     26  C   UNL     1       7.011   0.585  -1.822  0.00  0.00    +0.000 A 
ATOM     27  C   UNL     1       5.957  -0.193  -1.381  0.00  0.00    +0.002 A 
ATOM     28  C   UNL     1       5.019   0.340  -0.516  0.00  0.00    -0.059 A 
ATOM     29  C   UNL     1       5.136   1.651  -0.092  0.00  0.00    +0.002 A 
ATOM     30  C   UNL     1       6.189   2.429  -0.535  0.00  0.00    +0.000 A 
ENDBRANCH  24  28
BRANCH  24  31
ATOM     31  N   UNL     1       2.645   0.302  -0.003  0.00  0.00    +0.385 N 
ATOM     32  C   UNL     1       2.327   0.805  -1.363  0.00  0.00    -0.078 C 
ATOM     33  C   UNL     1       0.811   1.116  -1.282  0.00  0.00    -0.020 C 
ATOM     34  C   UNL     1       0.271  -0.028  -0.394  0.00  0.00    -0.020 C 
ATOM     35  C   UNL     1       1.492  -0.534   0.397  0.00  0.00    -0.078 C 
ATOM     36  H   UNL     1       2.754   1.073   0.638  0.00  0.00    -0.081 HD
ENDBRANCH  24  31
ENDBRANCH  23  24
ENDBRANCH   1  23
TORSDOF 8
