REMARK  Name = ZINC58279839
REMARK  6 active torsions:
REMARK  status: ('A' for Active; 'I' for Inactive)
REMARK    1  A    between atoms: C_1  and  C_2
REMARK    2  A    between atoms: C_12  and  C_16
REMARK    3  A    between atoms: N_17  and  C_18
REMARK    4  A    between atoms: C_18  and  C_19
REMARK    5  A    between atoms: C_18  and  C_20
REMARK    6  A    between atoms: C_18  and  C_21
REMARK                            x       y       z     vdW  Elec       q    Type
REMARK                         _______ _______ _______ _____ _____    ______ ____
ROOT
ATOM      1  C   UNL     1      -0.482   1.458   0.032  0.00  0.00    +0.088 C 
ATOM      2  C   UNL     1      -0.215  -0.025   0.012  0.00  0.00    +0.129 A 
ATOM      3  N   UNL     1      -0.205  -0.664  -1.144  0.00  0.00    -0.217 NA
ATOM      4  C   UNL     1       0.022  -1.965  -1.228  0.00  0.00    +0.132 A 
ATOM      5  C   UNL     1       0.264  -2.704  -0.037  0.00  0.00    +0.051 A 
ATOM      6  C   UNL     1       0.534  -4.135   0.115  0.00  0.00    -0.025 A 
ATOM      7  C   UNL     1       0.731  -4.590   1.369  0.00  0.00    -0.004 A 
ATOM      8  S   UNL     1       0.571  -3.164   2.409  0.00  0.00    -0.073 S 
ATOM      9  C   UNL     1       0.237  -1.954   1.156  0.00  0.00    +0.114 A 
ATOM     10  N   UNL     1       0.007  -0.656   1.149  0.00  0.00    -0.225 NA
ATOM     11  C   UNL     1       1.021  -5.999   1.788  0.00  0.00    +0.046 C 
ATOM     12  C   UNL     1       0.695  -6.931   0.612  0.00  0.00    -0.009 C 
ATOM     13  C   UNL     1       1.330  -6.358  -0.659  0.00  0.00    +0.008 C 
ATOM     14  C   UNL     1       0.595  -5.085  -1.078  0.00  0.00    +0.037 C 
ATOM     15  C   UNL     1       1.262  -8.325   0.889  0.00  0.00    +0.008 C 
ATOM     16  N   UNL     1       0.025  -2.597  -2.459  0.00  0.00    -0.314 N 
ATOM     17  H   UNL     1       0.110  -3.562  -2.508  0.00  0.00    +0.149 HD
ENDROOT
BRANCH  16  18
ATOM     18  C   UNL     1      -0.102  -1.810  -3.688  0.00  0.00    +0.129 C 
ATOM     19  C   UNL     1      -1.426  -1.044  -3.668  0.00  0.00    +0.043 C 
ATOM     20  C   UNL     1       1.060  -0.818  -3.779  0.00  0.00    +0.043 C 
BRANCH  18  21
ATOM     21  C   UNL     1      -0.071  -2.731  -4.880  0.00  0.00    +0.378 C 
ATOM     22  O   UNL     1       0.045  -3.934  -4.718  0.00  0.00    -0.244 OA
ATOM     23  O   UNL     1      -0.163  -2.273  -6.006  0.00  0.00    -0.244 OA
ENDBRANCH  18  21
ENDBRANCH  16  18
TORSDOF 2
