REMARK  Name = ZINC39974398
REMARK  12 active torsions:
REMARK  status: ('A' for Active; 'I' for Inactive)
REMARK    1  A    between atoms: C_1  and  C_2
REMARK    2  A    between atoms: C_3  and  N_16
REMARK    3  A    between atoms: C_4  and  C_15
REMARK    4  A    between atoms: N_5  and  C_7
REMARK    5  A    between atoms: C_7  and  C_8
REMARK    6  A    between atoms: N_16  and  C_17
REMARK    7  A    between atoms: C_17  and  N_19
REMARK    8  A    between atoms: N_19  and  C_20
REMARK    9  A    between atoms: C_23  and  S_26
REMARK   10  A    between atoms: S_26  and  N_29
REMARK   11  A    between atoms: C_30  and  C_38
REMARK   12  A    between atoms: C_35  and  C_37
REMARK                            x       y       z     vdW  Elec       q    Type
REMARK                         _______ _______ _______ _____ _____    ______ ____
ROOT
ATOM      1  C   UNL     1      -0.853   0.360  -5.036  0.00  0.00    +0.139 C 
ATOM      2  S   UNL     1      -0.692   1.090  -3.495  0.00  0.00    -0.018 S 
ENDROOT
BRANCH   1   3
ATOM      3  N   UNL     1      -1.347  -0.889  -5.141  0.00  0.00    -0.294 N 
ATOM      4  H   UNL     1      -1.402  -1.318  -6.010  0.00  0.00    +0.154 HD
BRANCH   3   7
ATOM      5  C   UNL     1      -3.120   0.366  -2.909  0.00  0.00    +0.069 C 
ATOM      6  C   UNL     1      -2.582  -1.041  -2.967  0.00  0.00    +0.081 A 
ATOM      7  C   UNL     1      -1.785  -1.573  -3.991  0.00  0.00    +0.076 A 
ATOM      8  C   UNL     1      -1.510  -2.864  -3.676  0.00  0.00    +0.058 A 
ATOM      9  N   UNL     1      -2.116  -3.135  -2.490  0.00  0.00    -0.262 N 
ATOM     10  N   UNL     1      -2.775  -1.972  -2.069  0.00  0.00    -0.174 NA
ATOM     11  C   UNL     1      -0.683  -3.824  -4.492  0.00  0.00    +0.067 C 
BRANCH   9  12
ATOM     12  C   UNL     1      -2.082  -4.413  -1.776  0.00  0.00    +0.181 C 
BRANCH  12  13
ATOM     13  C   UNL     1      -0.903  -4.434  -0.839  0.00  0.00    +0.009 A 
ATOM     14  C   UNL     1       0.292  -4.999  -1.244  0.00  0.00    +0.008 A 
ATOM     15  C   UNL     1       1.374  -5.018  -0.384  0.00  0.00    +0.000 A 
ATOM     16  C   UNL     1       1.263  -4.473   0.882  0.00  0.00    +0.003 A 
ATOM     17  C   UNL     1       0.070  -3.907   1.288  0.00  0.00    +0.039 A 
ATOM     18  C   UNL     1      -1.014  -3.883   0.426  0.00  0.00    +0.128 A 
ATOM     19  F   UNL     1      -2.179  -3.326   0.821  0.00  0.00    -0.205 F 
ENDBRANCH  12  13
ENDBRANCH   9  12
ENDBRANCH   3   7
ENDBRANCH   1   3
BRANCH   1  20
ATOM     20  N   UNL     1      -0.486   1.035  -6.143  0.00  0.00    -0.297 N 
ATOM     21  H   UNL     1      -0.518   0.600  -7.009  0.00  0.00    +0.154 HD
BRANCH  20  22
ATOM     22  C   UNL     1      -0.058   2.363  -6.043  0.00  0.00    +0.033 A 
ATOM     23  C   UNL     1       0.797   2.743  -5.017  0.00  0.00    +0.025 A 
ATOM     24  C   UNL     1       1.218   4.055  -4.920  0.00  0.00    +0.030 A 
ATOM     25  C   UNL     1       0.788   4.990  -5.844  0.00  0.00    +0.106 A 
ATOM     26  C   UNL     1      -0.064   4.615  -6.867  0.00  0.00    +0.030 A 
ATOM     27  C   UNL     1      -0.484   3.304  -6.972  0.00  0.00    +0.025 A 
BRANCH  25  28
ATOM     28  S   UNL     1       1.326   6.663  -5.717  0.00  0.00    +0.061 S 
ATOM     29  O   UNL     1       0.422   7.441  -6.490  0.00  0.00    -0.153 OA
ATOM     30  O   UNL     1       1.557   6.912  -4.337  0.00  0.00    -0.153 OA
BRANCH  28  31
ATOM     31  N   UNL     1       2.798   6.762  -6.469  0.00  0.00    -0.171 NA
ATOM     32  C   UNL     1       2.887   6.841  -7.933  0.00  0.00    +0.077 C 
ATOM     33  C   UNL     1       3.728   8.065  -8.311  0.00  0.00    +0.020 C 
ATOM     34  C   UNL     1       5.082   7.987  -7.603  0.00  0.00    +0.003 C 
ATOM     35  C   UNL     1       4.868   7.997  -6.087  0.00  0.00    +0.020 C 
ATOM     36  C   UNL     1       4.040   6.779  -5.684  0.00  0.00    +0.077 C 
ATOM     37  C   UNL     1       4.840   5.505  -5.963  0.00  0.00    +0.026 C 
ATOM     38  C   UNL     1       1.483   6.977  -8.526  0.00  0.00    +0.026 C 
ENDBRANCH  28  31
ENDBRANCH  25  28
ENDBRANCH  20  22
ENDBRANCH   1  20
TORSDOF 8
