REMARK  Name = ZINC39161271
REMARK  5 active torsions:
REMARK  status: ('A' for Active; 'I' for Inactive)
REMARK    1  A    between atoms: C_1  and  C_2
REMARK    2  A    between atoms: C_12  and  N_19
REMARK    3  A    between atoms: C_14  and  C_16
REMARK    4  A    between atoms: C_20  and  C_22
REMARK    5  A    between atoms: C_22  and  C_23
REMARK                            x       y       z     vdW  Elec       q    Type
REMARK                         _______ _______ _______ _____ _____    ______ ____
ROOT
ATOM      1  C   UNL     1      -0.369   1.427  -0.240  0.00  0.00    +0.007 C 
ATOM      2  C   UNL     1      -0.337  -0.102  -0.185  0.00  0.00    -0.013 C 
ATOM      3  C   UNL     1      -1.764  -0.626  -0.053  0.00  0.00    +0.003 C 
ATOM      4  C   UNL     1      -1.784  -2.155   0.114  0.00  0.00    +0.006 C 
ATOM      5  C   UNL     1      -0.938  -2.489   1.321  0.00  0.00    +0.016 C 
ATOM      6  C   UNL     1       0.529  -2.067   1.022  0.00  0.00    +0.052 C 
ATOM      7  C   UNL     1       0.537  -0.544   0.998  0.00  0.00    +0.017 C 
ATOM      8  S   UNL     1       1.348  -2.751   2.513  0.00  0.00    -0.134 S 
ATOM      9  C   UNL     1       0.121  -4.058   2.948  0.00  0.00    +0.143 C 
ATOM     10  C   UNL     1      -0.928  -3.926   1.805  0.00  0.00    +0.109 C 
ENDROOT
BRANCH  10  11
ATOM     11  C   UNL     1      -0.567  -4.843   0.665  0.00  0.00    +0.216 C 
ATOM     12  O   UNL     1       0.236  -4.484  -0.170  0.00  0.00    -0.276 OA
ATOM     13  N   UNL     1      -1.135  -6.061   0.574  0.00  0.00    -0.329 N 
ATOM     14  H   UNL     1      -1.830  -6.320   1.200  0.00  0.00    +0.145 HD
ATOM     15  H   UNL     1      -0.850  -6.679  -0.117  0.00  0.00    +0.145 HD
ENDBRANCH  10  11
BRANCH   9  16
ATOM     16  N   UNL     1       0.745  -5.383   2.926  0.00  0.00    -0.303 N 
ATOM     17  C   UNL     1       0.896  -6.076   4.073  0.00  0.00    +0.218 C 
ATOM     18  O   UNL     1       0.601  -5.566   5.133  0.00  0.00    -0.275 OA
ATOM     19  H   UNL     1       1.049  -5.763   2.087  0.00  0.00    +0.150 HD
BRANCH  17  20
ATOM     20  C   UNL     1       1.433  -7.483   4.037  0.00  0.00    +0.133 C 
BRANCH  20  21
ATOM     21  C   UNL     1       1.504  -8.029   5.440  0.00  0.00    -0.014 A 
ATOM     22  C   UNL     1       0.416  -8.670   6.182  0.00  0.00    +0.003 A 
ATOM     23  C   UNL     1      -0.916  -8.968   5.887  0.00  0.00    +0.010 A 
ATOM     24  C   UNL     1      -1.695  -9.591   6.821  0.00  0.00    +0.001 A 
ATOM     25  C   UNL     1      -1.173  -9.929   8.062  0.00  0.00    +0.002 A 
ATOM     26  C   UNL     1       0.138  -9.645   8.374  0.00  0.00    +0.026 A 
ATOM     27  C   UNL     1       0.950  -9.012   7.438  0.00  0.00    +0.047 A 
ATOM     28  N   UNL     1       2.264  -8.603   7.445  0.00  0.00    -0.360 N 
ATOM     29  C   UNL     1       2.578  -8.025   6.245  0.00  0.00    +0.087 A 
ATOM     30  H   UNL     1       2.878  -8.712   8.189  0.00  0.00    +0.165 HD
ENDBRANCH  20  21
ENDBRANCH  17  20
ENDBRANCH   9  16
TORSDOF 4
