REMARK  Name = ZINC12376684
REMARK  5 active torsions:
REMARK  status: ('A' for Active; 'I' for Inactive)
REMARK    1  A    between atoms: C_4  and  N_7
REMARK    2  A    between atoms: N_21  and  C_24
REMARK    3  A    between atoms: C_24  and  C_25
REMARK    4  A    between atoms: C_32  and  C_35
REMARK    5  A    between atoms: C_33  and  N_34
REMARK                            x       y       z     vdW  Elec       q    Type
REMARK                         _______ _______ _______ _____ _____    ______ ____
ROOT
ATOM      1  N   UNL     1       3.289   1.432   0.272  0.00  0.00    -0.257 N 
ATOM      2  C   UNL     1       2.649   1.802  -0.879  0.00  0.00    +0.066 C 
ATOM      3  C   UNL     1       1.614   2.683  -0.899  0.00  0.00    +0.082 C 
ATOM      4  C   UNL     1       1.182   2.855  -2.223  0.00  0.00    +0.339 C 
ATOM      5  O   UNL     1       0.270   3.587  -2.560  0.00  0.00    -0.245 OA
ATOM      6  O   UNL     1       1.911   2.102  -3.071  0.00  0.00    -0.455 OA
ATOM      7  C   UNL     1       2.886   1.383  -2.300  0.00  0.00    +0.284 C 
ATOM      8  C   UNL     1       1.085   3.321   0.357  0.00  0.00    +0.144 C 
ATOM      9  C   UNL     1      -0.291   2.827   0.672  0.00  0.00    -0.001 A 
ATOM     10  C   UNL     1      -0.767   1.565   0.956  0.00  0.00    +0.007 A 
ATOM     11  C   UNL     1      -2.129   1.446   1.211  0.00  0.00    +0.000 A 
ATOM     12  C   UNL     1      -2.965   2.544   1.175  0.00  0.00    +0.002 A 
ATOM     13  C   UNL     1      -2.493   3.817   0.895  0.00  0.00    +0.024 A 
ATOM     14  C   UNL     1      -1.128   3.950   0.637  0.00  0.00    +0.041 A 
ATOM     15  N   UNL     1      -0.398   5.084   0.329  0.00  0.00    -0.265 N 
ATOM     16  C   UNL     1       0.911   4.810   0.148  0.00  0.00    +0.241 C 
ATOM     17  O   UNL     1       1.783   5.607  -0.129  0.00  0.00    -0.274 OA
ATOM     18  C   UNL     1       2.029   3.063   1.496  0.00  0.00    +0.089 C 
ATOM     19  C   UNL     1       3.044   2.167   1.418  0.00  0.00    +0.108 C 
ENDROOT
BRANCH   1  23
ATOM     20  C   UNL     1       5.898  -1.816   0.325  0.00  0.00    +0.000 A 
ATOM     21  C   UNL     1       6.272  -0.641  -0.302  0.00  0.00    +0.002 A 
ATOM     22  C   UNL     1       5.409   0.437  -0.322  0.00  0.00    +0.024 A 
ATOM     23  C   UNL     1       4.166   0.341   0.290  0.00  0.00    +0.040 A 
ATOM     24  C   UNL     1       3.796  -0.839   0.923  0.00  0.00    +0.024 A 
ATOM     25  C   UNL     1       4.661  -1.915   0.934  0.00  0.00    +0.002 A 
ENDBRANCH   1  23
BRANCH  19  26
ATOM     26  N   UNL     1       3.856   1.985   2.512  0.00  0.00    -0.345 N 
ATOM     27  H   UNL     1       3.647   2.426   3.350  0.00  0.00    +0.144 HD
ATOM     28  H   UNL     1       4.638   1.415   2.446  0.00  0.00    +0.144 HD
ENDBRANCH  19  26
BRANCH  18  29
ATOM     29  C   UNL     1       1.849   3.792   2.715  0.00  0.00    +0.100 C 
ATOM     30  N   UNL     1       1.707   4.371   3.682  0.00  0.00    -0.191 NA
ENDBRANCH  18  29
BRANCH  15  31
ATOM     31  C   UNL     1      -0.978   6.424   0.213  0.00  0.00    +0.150 C 
BRANCH  31  32
ATOM     32  C   UNL     1      -1.577   6.595  -1.159  0.00  0.00    -0.011 A 
ATOM     33  C   UNL     1      -1.716   5.502  -1.994  0.00  0.00    +0.006 A 
ATOM     34  C   UNL     1      -2.265   5.659  -3.253  0.00  0.00    +0.000 A 
ATOM     35  C   UNL     1      -2.676   6.909  -3.678  0.00  0.00    +0.001 A 
ATOM     36  C   UNL     1      -2.538   8.002  -2.844  0.00  0.00    +0.020 A 
ATOM     37  C   UNL     1      -1.993   7.845  -1.582  0.00  0.00    +0.046 A 
ATOM     38 CL   UNL     1      -1.826   9.217  -0.531  0.00  0.00    -0.083 Cl
ENDBRANCH  31  32
ENDBRANCH  15  31
TORSDOF 5
