REMARK  Name = ZINC40703642
REMARK  7 active torsions:
REMARK  status: ('A' for Active; 'I' for Inactive)
REMARK    1  A    between atoms: C_1  and  C_2
REMARK    2  A    between atoms: C_5  and  N_9
REMARK    3  A    between atoms: C_11  and  N_25
REMARK    4  A    between atoms: C_12  and  N_16
REMARK    5  A    between atoms: N_16  and  C_17
REMARK    6  A    between atoms: C_17  and  C_18
REMARK    7  A    between atoms: C_18  and  C_19
REMARK                            x       y       z     vdW  Elec       q    Type
REMARK                         _______ _______ _______ _____ _____    ______ ____
ROOT
ATOM      1  N   UNL     1       0.057  -4.169  -0.022  0.00  0.00    -0.298 N 
ATOM      2  C   UNL     1       0.177  -4.870   1.173  0.00  0.00    +0.149 A 
ATOM      3  C   UNL     1       0.307  -6.260   1.169  0.00  0.00    +0.105 A 
ATOM      4  C   UNL     1       0.424  -6.915   2.397  0.00  0.00    +0.145 A 
ATOM      5  N   UNL     1       0.408  -6.194   3.515  0.00  0.00    -0.219 NA
ATOM      6  C   UNL     1       0.284  -4.883   3.475  0.00  0.00    +0.225 A 
ATOM      7  N   UNL     1       0.176  -4.226   2.337  0.00  0.00    -0.219 NA
ATOM      8  H   UNL     1      -0.019  -4.650  -0.861  0.00  0.00    +0.154 HD
ENDROOT
BRANCH   1  13
ATOM      9  C   UNL     1       0.014   1.503   0.011  0.00  0.00    +0.045 C 
ATOM     10  C   UNL     1       0.025  -0.004   0.002  0.00  0.00    -0.032 A 
ATOM     11  C   UNL     1       0.772  -0.694   0.939  0.00  0.00    +0.006 A 
ATOM     12  C   UNL     1       0.785  -2.075   0.934  0.00  0.00    +0.023 A 
ATOM     13  C   UNL     1       0.046  -2.772  -0.014  0.00  0.00    +0.034 A 
ATOM     14  C   UNL     1      -0.704  -2.076  -0.954  0.00  0.00    +0.043 A 
ATOM     15  C   UNL     1      -0.717  -0.694  -0.940  0.00  0.00    +0.046 A 
ATOM     16 CL   UNL     1      -1.659   0.176  -2.110  0.00  0.00    -0.083 Cl
ENDBRANCH   1  13
BRANCH   3  17
ATOM     17  N   UNL     1       0.318  -6.980  -0.036  0.00  0.00    -0.353 N 
ATOM     18  H   UNL     1       0.236  -6.512  -0.882  0.00  0.00    +0.143 HD
ATOM     19  H   UNL     1       0.409  -7.946  -0.024  0.00  0.00    +0.143 HD
ENDBRANCH   3  17
BRANCH   4  20
ATOM     20  N   UNL     1       0.555  -8.297   2.449  0.00  0.00    -0.327 N 
ATOM     21  H   UNL     1       0.565  -8.815   1.629  0.00  0.00    +0.148 HD
BRANCH  20  22
ATOM     22  C   UNL     1       0.677  -8.972   3.744  0.00  0.00    +0.107 C 
BRANCH  22  23
ATOM     23  C   UNL     1       0.807 -10.480   3.522  0.00  0.00    +0.049 C 
BRANCH  23  24
ATOM     24  C   UNL     1       0.933 -11.175   4.854  0.00  0.00    -0.072 C 
ATOM     25  C   UNL     1      -0.143 -11.652   5.393  0.00  0.00    -0.028 C 
ATOM     26  C   UNL     1      -0.177 -12.358   6.717  0.00  0.00    +0.027 C 
ATOM     27  C   UNL     1       1.232 -12.802   7.115  0.00  0.00    +0.004 C 
ATOM     28  C   UNL     1       2.179 -11.605   6.960  0.00  0.00    +0.005 C 
ATOM     29  C   UNL     1       2.298 -11.275   5.469  0.00  0.00    +0.030 C 
ENDBRANCH  23  24
ENDBRANCH  22  23
ENDBRANCH  20  22
ENDBRANCH   4  20
TORSDOF 6
