REMARK  Name = ZINC48542310
REMARK  9 active torsions:
REMARK  status: ('A' for Active; 'I' for Inactive)
REMARK    1  A    between atoms: C_1  and  C_2
REMARK    2  A    between atoms: C_2  and  C_3
REMARK    3  A    between atoms: N_5  and  C_6
REMARK    4  A    between atoms: C_9  and  C_12
REMARK    5  A    between atoms: C_12  and  C_14
REMARK    6  A    between atoms: C_12  and  N_15
REMARK    7  A    between atoms: N_18  and  C_19
REMARK    8  A    between atoms: C_26  and  C_28
REMARK    9  A    between atoms: C_26  and  C_29
REMARK                            x       y       z     vdW  Elec       q    Type
REMARK                         _______ _______ _______ _____ _____    ______ ____
ROOT
ATOM      1  N   UNL     1      -7.172  -4.864  -1.060  0.00  0.00    -0.293 N 
ATOM      2  C   UNL     1      -8.320  -5.169  -1.696  0.00  0.00    +0.304 C 
ATOM      3  O   UNL     1      -9.340  -4.562  -1.435  0.00  0.00    -0.252 OA
ATOM      4  N   UNL     1      -8.337  -6.148  -2.623  0.00  0.00    -0.269 N 
ATOM      5  H   UNL     1      -6.358  -5.349  -1.268  0.00  0.00    +0.151 HD
ATOM      6  H   UNL     1      -7.543  -6.682  -2.779  0.00  0.00    +0.156 HD
ENDROOT
BRANCH   4   7
ATOM      7  C   UNL     1      -9.502  -6.393  -3.362  0.00  0.00    +0.038 A 
ATOM      8  C   UNL     1      -9.816  -7.687  -3.755  0.00  0.00    +0.027 A 
ATOM      9  C   UNL     1     -10.965  -7.931  -4.483  0.00  0.00    +0.051 A 
ATOM     10  C   UNL     1     -11.807  -6.885  -4.822  0.00  0.00    +0.167 A 
ATOM     11  C   UNL     1     -11.496  -5.585  -4.429  0.00  0.00    +0.169 A 
ATOM     12  C   UNL     1     -10.347  -5.343  -3.695  0.00  0.00    +0.073 A 
ATOM     13  O   UNL     1     -12.473  -4.746  -4.882  0.00  0.00    -0.448 OA
ATOM     14  C   UNL     1     -13.170  -5.484  -5.903  0.00  0.00    +0.248 C 
ATOM     15  O   UNL     1     -12.980  -6.859  -5.522  0.00  0.00    -0.448 OA
ATOM     16  C   UNL     1     -12.552  -5.216  -7.277  0.00  0.00    +0.104 C 
ATOM     17  C   UNL     1     -14.658  -5.126  -5.903  0.00  0.00    +0.104 C 
ENDBRANCH   4   7
BRANCH   1  18
ATOM     18  C   UNL     1      -7.153  -3.800  -0.052  0.00  0.00    +0.102 C 
ATOM     19  C   UNL     1      -7.580  -4.372   1.301  0.00  0.00    +0.033 C 
BRANCH  18  23
ATOM     20  C   UNL     1      -3.201  -2.202   0.259  0.00  0.00    +0.033 A 
ATOM     21  C   UNL     1      -4.301  -1.355   0.310  0.00  0.00    +0.023 A 
ATOM     22  C   UNL     1      -5.576  -1.875   0.209  0.00  0.00    +0.007 A 
ATOM     23  C   UNL     1      -5.760  -3.237   0.057  0.00  0.00    -0.027 A 
ATOM     24  C   UNL     1      -4.667  -4.083   0.007  0.00  0.00    +0.007 A 
ATOM     25  C   UNL     1      -3.389  -3.569   0.101  0.00  0.00    +0.023 A 
BRANCH  20  28
ATOM     26  C   UNL     1      -0.902  -2.227  -0.349  0.00  0.00    +0.217 C 
ATOM     27  O   UNL     1      -1.099  -3.224  -1.011  0.00  0.00    -0.275 OA
ATOM     28  N   UNL     1      -1.908  -1.679   0.361  0.00  0.00    -0.286 N 
ATOM     29  H   UNL     1      -1.735  -0.922   0.943  0.00  0.00    +0.155 HD
BRANCH  26  31
ATOM     30  C   UNL     1       1.419  -2.410  -1.205  0.00  0.00    +0.013 C 
ATOM     31  C   UNL     1       0.469  -1.600  -0.321  0.00  0.00    +0.093 C 
ENDBRANCH  26  31
ENDBRANCH  20  28
ENDBRANCH  18  23
ENDBRANCH   1  18
TORSDOF 5
