REMARK  Name = ZINC28422844
REMARK  5 active torsions:
REMARK  status: ('A' for Active; 'I' for Inactive)
REMARK    1  A    between atoms: C_1  and  C_2
REMARK    2  A    between atoms: C_3  and  C_18
REMARK    3  A    between atoms: C_4  and  C_10
REMARK    4  A    between atoms: N_20  and  C_21
REMARK    5  A    between atoms: C_25  and  N_27
REMARK                            x       y       z     vdW  Elec       q    Type
REMARK                         _______ _______ _______ _____ _____    ______ ____
ROOT
ATOM      1  C   UNL     1      -2.532  -6.918   0.210  0.00  0.00    +0.061 C 
ATOM      2  C   UNL     1      -3.779  -6.072   0.166  0.00  0.00    +0.017 C 
ATOM      3  C   UNL     1      -3.668  -4.728   0.111  0.00  0.00    +0.056 C 
ATOM      4  C   UNL     1      -4.947  -3.916   0.074  0.00  0.00    +0.139 C 
ATOM      5  N   UNL     1      -6.214  -4.665   0.090  0.00  0.00    -0.315 N 
ATOM      6  C   UNL     1      -6.163  -6.011   0.145  0.00  0.00    +0.135 C 
ATOM      7  S   UNL     1      -7.628  -6.895   0.171  0.00  0.00    -0.019 S 
ATOM      8  N   UNL     1      -5.003  -6.678   0.181  0.00  0.00    -0.300 N 
ATOM      9  H   UNL     1      -7.172  -4.126   0.057  0.00  0.00    +0.149 HD
ATOM     10  H   UNL     1      -5.072  -7.775   0.226  0.00  0.00    +0.154 HD
ENDROOT
BRANCH   4  11
ATOM     11  C   UNL     1      -4.938  -2.983   1.257  0.00  0.00    -0.021 A 
ATOM     12  C   UNL     1      -4.695  -1.634   1.073  0.00  0.00    +0.007 A 
ATOM     13  C   UNL     1      -4.687  -0.778   2.157  0.00  0.00    +0.022 A 
ATOM     14  C   UNL     1      -4.923  -1.269   3.429  0.00  0.00    +0.059 A 
ATOM     15  C   UNL     1      -5.167  -2.620   3.614  0.00  0.00    +0.060 A 
ATOM     16  C   UNL     1      -5.179  -3.475   2.526  0.00  0.00    +0.027 A 
ATOM     17 CL   UNL     1      -5.463  -3.238   5.208  0.00  0.00    -0.082 Cl
ATOM     18 CL   UNL     1      -4.913  -0.194   4.791  0.00  0.00    -0.082 Cl
ENDBRANCH   4  11
BRANCH   3  19
ATOM     19  C   UNL     1      -2.400  -4.098   0.094  0.00  0.00    +0.248 C 
ATOM     20  O   UNL     1      -1.927  -3.709  -0.959  0.00  0.00    -0.270 OA
ATOM     21  N   UNL     1      -1.716  -3.930   1.243  0.00  0.00    -0.282 N 
ATOM     22  H   UNL     1      -2.071  -4.404   2.169  0.00  0.00    +0.155 HD
BRANCH  21  23
ATOM     23  C   UNL     1      -0.554  -3.151   1.257  0.00  0.00    +0.036 A 
ATOM     24  C   UNL     1       0.256  -3.089   0.130  0.00  0.00    +0.023 A 
ATOM     25  C   UNL     1       1.403  -2.320   0.147  0.00  0.00    +0.004 A 
ATOM     26  C   UNL     1       1.745  -1.612   1.285  0.00  0.00    +0.033 A 
ATOM     27  C   UNL     1       0.942  -1.673   2.409  0.00  0.00    +0.128 A 
ATOM     28  C   UNL     1      -0.204  -2.445   2.400  0.00  0.00    +0.056 A 
BRANCH  27  29
ATOM     29  N   UNL     1       1.313  -0.915   3.625  0.00  0.00    +0.056 N 
ATOM     30  O   UNL     1       2.326  -0.238   3.635  0.00  0.00    -0.126 OA
ATOM     31  O   UNL     1       0.603  -0.964   4.613  0.00  0.00    -0.126 OA
ENDBRANCH  27  29
ENDBRANCH  21  23
ENDBRANCH   3  19
TORSDOF 4
