REMARK  Name = ZINC57335028
REMARK  10 active torsions:
REMARK  status: ('A' for Active; 'I' for Inactive)
REMARK    1  A    between atoms: C_1  and  C_2
REMARK    2  A    between atoms: C_2  and  C_3
REMARK    3  A    between atoms: C_3  and  C_4
REMARK    4  A    between atoms: C_10  and  C_12
REMARK    5  A    between atoms: C_14  and  N_21
REMARK    6  A    between atoms: C_15  and  O_19
REMARK    7  A    between atoms: O_19  and  C_20
REMARK    8  A    between atoms: C_22  and  C_24
REMARK    9  A    between atoms: C_24  and  N_25
REMARK   10  A    between atoms: C_28  and  C_31
REMARK                            x       y       z     vdW  Elec       q    Type
REMARK                         _______ _______ _______ _____ _____    ______ ____
ROOT
ATOM      1  C   UNL     1      -1.370  -3.941   4.722  0.00  0.00    +0.012 A 
ATOM      2  C   UNL     1      -1.331  -5.189   5.342  0.00  0.00    +0.037 A 
ATOM      3  C   UNL     1      -1.310  -5.272   6.724  0.00  0.00    +0.078 A 
ATOM      4  C   UNL     1      -1.326  -4.109   7.492  0.00  0.00    +0.159 A 
ATOM      5  C   UNL     1      -1.364  -2.868   6.873  0.00  0.00    +0.085 A 
ATOM      6  C   UNL     1      -1.381  -2.780   5.496  0.00  0.00    +0.034 A 
ATOM      7 CL   UNL     1      -1.384  -1.421   7.834  0.00  0.00    -0.080 Cl
ENDROOT
BRANCH   1  14
ATOM      8  C   UNL     1      -1.473  -2.066  -0.010  0.00  0.00    +0.156 A 
ATOM      9  N   UNL     1      -1.467  -2.830  -1.066  0.00  0.00    -0.132 NA
ATOM     10  N   UNL     1      -1.440  -4.069  -0.715  0.00  0.00    -0.120 NA
ATOM     11  C   UNL     1      -1.427  -4.149   0.581  0.00  0.00    +0.218 A 
ATOM     12  N   UNL     1      -1.441  -2.879   1.105  0.00  0.00    -0.190 N 
ATOM     13  N   UNL     1      -1.424  -2.779   2.490  0.00  0.00    -0.156 NA
ATOM     14  C   UNL     1      -1.393  -3.847   3.246  0.00  0.00    +0.132 A 
ATOM     15  S   UNL     1      -1.395  -5.163   2.038  0.00  0.00    -0.026 S 
BRANCH   8  16
ATOM     16  C   UNL     1      -1.502  -0.560  -0.006  0.00  0.00    +0.078 C 
BRANCH  16  18
ATOM     17  C   UNL     1      -0.099   1.508  -0.022  0.00  0.00    +0.004 C 
ATOM     18  C   UNL     1      -0.070  -0.022  -0.026  0.00  0.00    +0.004 C 
ENDBRANCH  16  18
ENDBRANCH   8  16
ENDBRANCH   1  14
BRANCH   3  19
ATOM     19  N   UNL     1      -1.272  -6.526   7.351  0.00  0.00    -0.284 N 
ATOM     20  C   UNL     1      -0.766  -7.590   6.697  0.00  0.00    +0.201 C 
ATOM     21  O   UNL     1      -0.253  -7.446   5.608  0.00  0.00    -0.278 OA
ATOM     22  H   UNL     1      -1.609  -6.626   8.254  0.00  0.00    +0.155 HD
BRANCH  20  23
ATOM     23  C   UNL     1      -0.838  -8.961   7.321  0.00  0.00    +0.019 C 
BRANCH  23  24
ATOM     24  N   UNL     1      -0.224  -9.943   6.417  0.00  0.00    +0.385 N 
ATOM     25  C   UNL     1       1.207  -9.646   6.275  0.00  0.00    -0.078 C 
ATOM     26  C   UNL     1       1.836 -10.616   5.272  0.00  0.00    -0.016 C 
ATOM     27  C   UNL     1       1.658 -12.051   5.778  0.00  0.00    -0.018 C 
ATOM     28  C   UNL     1       0.166 -12.324   5.993  0.00  0.00    -0.016 C 
ATOM     29  C   UNL     1      -0.400 -11.291   6.969  0.00  0.00    -0.078 C 
ATOM     30  C   UNL     1       2.213 -13.031   4.743  0.00  0.00    +0.007 C 
ATOM     31  H   UNL     1      -0.667  -9.890   5.513  0.00  0.00    -0.081 HD
ENDBRANCH  23  24
ENDBRANCH  20  23
ENDBRANCH   3  19
BRANCH   4  32
ATOM     32  O   UNL     1      -1.305  -4.191   8.849  0.00  0.00    -0.492 OA
ATOM     33  C   UNL     1      -0.022  -4.200   9.478  0.00  0.00    +0.277 C 
ENDBRANCH   4  32
TORSDOF 7
