REMARK  Name = ZINC00969838
REMARK  4 active torsions:
REMARK  status: ('A' for Active; 'I' for Inactive)
REMARK    1  A    between atoms: C_1  and  C_2
REMARK    2  A    between atoms: C_2  and  C_4
REMARK    3  A    between atoms: C_2  and  N_6
REMARK    4  A    between atoms: C_10  and  C_11
REMARK                            x       y       z     vdW  Elec       q    Type
REMARK                         _______ _______ _______ _____ _____    ______ ____
ROOT
ATOM      1  N   UNL     1       1.065   2.650  -0.514  0.00  0.00    -0.241 N 
ATOM      2  C   UNL     1       0.848   3.934  -0.293  0.00  0.00    +0.259 C 
ATOM      3  O   UNL     1       1.774   4.718  -0.185  0.00  0.00    -0.269 OA
ATOM      4  C   UNL     1      -0.505   4.377  -0.183  0.00  0.00    +0.077 C 
ATOM      5  C   UNL     1      -0.992   5.628   0.040  0.00  0.00    +0.030 C 
ATOM      6  S   UNL     1      -1.386   2.840  -0.424  0.00  0.00    -0.061 S 
ATOM      7  C   UNL     1       0.037   1.781  -0.633  0.00  0.00    +0.121 C 
ATOM      8  S   UNL     1       0.085   0.093  -0.918  0.00  0.00    -0.027 S 
ENDROOT
BRANCH   5   9
ATOM      9  C   UNL     1      -2.429   5.882  -0.056  0.00  0.00    +0.001 A 
ATOM     10  C   UNL     1      -3.426   4.947  -0.065  0.00  0.00    +0.091 A 
ATOM     11  N   UNL     1      -4.631   5.565  -0.163  0.00  0.00    -0.360 N 
ATOM     12  H   UNL     1      -5.487   5.109  -0.185  0.00  0.00    +0.165 HD
ATOM     13  C   UNL     1      -4.466   6.934  -0.231  0.00  0.00    +0.047 A 
ATOM     14  C   UNL     1      -3.089   7.197  -0.168  0.00  0.00    +0.007 A 
ATOM     15  C   UNL     1      -2.626   8.509  -0.216  0.00  0.00    +0.010 A 
ATOM     16  C   UNL     1      -3.526   9.547  -0.327  0.00  0.00    +0.001 A 
ATOM     17  C   UNL     1      -4.887   9.288  -0.390  0.00  0.00    +0.002 A 
ATOM     18  C   UNL     1      -5.359   7.994  -0.343  0.00  0.00    +0.026 A 
ENDBRANCH   5   9
BRANCH   1  20
ATOM     19  C   UNL     1       2.706   1.114   0.451  0.00  0.00    +0.040 C 
ATOM     20  C   UNL     1       2.441   2.160  -0.633  0.00  0.00    +0.192 C 
BRANCH  20  21
ATOM     21  C   UNL     1       2.636   1.537  -1.991  0.00  0.00    +0.376 C 
ATOM     22  O   UNL     1       1.720   1.504  -2.779  0.00  0.00    -0.244 OA
ATOM     23  O   UNL     1       3.828   1.017  -2.326  0.00  0.00    -0.244 OA
ENDBRANCH  20  21
ENDBRANCH   1  20
TORSDOF 3
