REMARK  Name = ZINC57531002
REMARK  13 active torsions:
REMARK  status: ('A' for Active; 'I' for Inactive)
REMARK    1  A    between atoms: C_1  and  C_2
REMARK    2  A    between atoms: C_6  and  C_15
REMARK    3  A    between atoms: C_13  and  C_14
REMARK    4  A    between atoms: C_15  and  C_17
REMARK    5  A    between atoms: C_15  and  N_26
REMARK    6  A    between atoms: N_21  and  C_22
REMARK    7  A    between atoms: C_22  and  C_23
REMARK    8  A    between atoms: C_22  and  C_24
REMARK    9  A    between atoms: C_22  and  C_25
REMARK   10  A    between atoms: N_26  and  C_27
REMARK   11  A    between atoms: N_26  and  C_35
REMARK   12  A    between atoms: C_27  and  C_28
REMARK   13  A    between atoms: C_35  and  C_36
REMARK                            x       y       z     vdW  Elec       q    Type
REMARK                         _______ _______ _______ _____ _____    ______ ____
ROOT
ATOM      1  C   UNL     1      -0.652  -4.953  -4.137  0.00  0.00    +0.163 C 
ENDROOT
BRANCH   1   7
ATOM      2  C   UNL     1      -4.758  -4.295   2.054  0.00  0.00    +0.044 C 
ATOM      3  C   UNL     1      -3.533  -3.951   1.247  0.00  0.00    -0.047 A 
ATOM      4  C   UNL     1      -3.366  -4.494   0.004  0.00  0.00    +0.013 A 
ATOM      5  C   UNL     1      -2.229  -4.174  -0.746  0.00  0.00    -0.001 A 
ATOM      6  C   UNL     1      -2.020  -4.737  -2.081  0.00  0.00    +0.021 A 
ATOM      7  C   UNL     1      -0.899  -4.391  -2.761  0.00  0.00    +0.042 A 
ATOM      8  C   UNL     1       0.038  -3.507  -2.184  0.00  0.00    +0.254 A 
ATOM      9  O   UNL     1       1.039  -3.209  -2.813  0.00  0.00    -0.268 OA
ATOM     10  N   UNL     1      -0.146  -2.984  -0.959  0.00  0.00    -0.322 N 
ATOM     11  H   UNL     1       0.518  -2.379  -0.593  0.00  0.00    +0.169 HD
ATOM     12  C   UNL     1      -1.264  -3.297  -0.216  0.00  0.00    +0.049 A 
ATOM     13  C   UNL     1      -1.455  -2.757   1.052  0.00  0.00    +0.030 A 
ATOM     14  C   UNL     1      -2.586  -3.081   1.770  0.00  0.00    -0.046 A 
ATOM     15  C   UNL     1      -2.794  -2.490   3.140  0.00  0.00    +0.044 C 
ENDBRANCH   1   7
BRANCH   1  16
ATOM     16  C   UNL     1      -1.683  -6.010  -4.441  0.00  0.00    +0.174 A 
ATOM     17  N   UNL     1      -1.869  -7.132  -3.789  0.00  0.00    -0.111 NA
ATOM     18  N   UNL     1      -2.841  -7.762  -4.352  0.00  0.00    -0.023 NA
ATOM     19  N   UNL     1      -3.281  -7.072  -5.345  0.00  0.00    -0.043 NA
ATOM     20  N   UNL     1      -2.596  -5.981  -5.429  0.00  0.00    -0.222 N 
BRANCH  20  21
ATOM     21  C   UNL     1      -2.775  -4.915  -6.417  0.00  0.00    +0.059 C 
ATOM     22  C   UNL     1      -1.479  -4.728  -7.208  0.00  0.00    +0.036 C 
ATOM     23  C   UNL     1      -3.907  -5.293  -7.376  0.00  0.00    +0.036 C 
ATOM     24  C   UNL     1      -3.128  -3.610  -5.701  0.00  0.00    +0.036 C 
ENDBRANCH  20  21
ENDBRANCH   1  16
BRANCH   1  25
ATOM     25  N   UNL     1       0.690  -5.549  -4.189  0.00  0.00    -0.277 NA
BRANCH  25  26
ATOM     26  C   UNL     1       1.097  -5.808  -5.577  0.00  0.00    +0.122 C 
BRANCH  26  27
ATOM     27  C   UNL     1       2.516  -6.316  -5.598  0.00  0.00    -0.015 A 
ATOM     28  C   UNL     1       3.566  -5.428  -5.740  0.00  0.00    +0.006 A 
ATOM     29  C   UNL     1       4.867  -5.894  -5.759  0.00  0.00    +0.000 A 
ATOM     30  C   UNL     1       5.119  -7.248  -5.636  0.00  0.00    +0.001 A 
ATOM     31  C   UNL     1       4.070  -8.136  -5.493  0.00  0.00    +0.020 A 
ATOM     32  C   UNL     1       2.768  -7.670  -5.468  0.00  0.00    +0.045 A 
ATOM     33 CL   UNL     1       1.450  -8.784  -5.282  0.00  0.00    -0.083 Cl
ENDBRANCH  26  27
ENDBRANCH  25  26
BRANCH  25  34
ATOM     34  C   UNL     1       0.752  -6.776  -3.385  0.00  0.00    +0.160 C 
BRANCH  34  35
ATOM     35  C   UNL     1       0.809  -6.416  -1.923  0.00  0.00    +0.119 A 
ATOM     36  C   UNL     1      -0.233  -6.418  -1.072  0.00  0.00    +0.046 A 
ATOM     37  C   UNL     1       0.267  -6.018   0.189  0.00  0.00    +0.041 A 
ATOM     38  C   UNL     1       1.585  -5.797   0.033  0.00  0.00    +0.195 A 
ATOM     39  O   UNL     1       1.908  -6.045  -1.247  0.00  0.00    -0.467 OA
ENDBRANCH  34  35
ENDBRANCH  25  34
ENDBRANCH   1  25
TORSDOF 8
