REMARK  Name = ZINC30955643
REMARK  8 active torsions:
REMARK  status: ('A' for Active; 'I' for Inactive)
REMARK    1  A    between atoms: C_4  and  C_7
REMARK    2  A    between atoms: C_9  and  C_12
REMARK    3  A    between atoms: C_12  and  N_13
REMARK    4  A    between atoms: C_16  and  C_19
REMARK    5  A    between atoms: N_21  and  C_22
REMARK    6  A    between atoms: C_27  and  S_28
REMARK    7  A    between atoms: S_28  and  C_29
REMARK    8  A    between atoms: C_29  and  C_30
REMARK                            x       y       z     vdW  Elec       q    Type
REMARK                         _______ _______ _______ _____ _____    ______ ____
ROOT
ATOM      1  N   UNL     1      -0.832   8.209   0.891  0.00  0.00    +0.386 N 
ATOM      2  C   UNL     1      -1.480   7.678  -0.315  0.00  0.00    -0.077 C 
ATOM      3  C   UNL     1      -1.472   6.149  -0.269  0.00  0.00    -0.006 C 
ATOM      4  C   UNL     1      -0.026   5.653  -0.184  0.00  0.00    +0.072 C 
ATOM      5  C   UNL     1       0.641   6.258   1.055  0.00  0.00    -0.006 C 
ATOM      6  C   UNL     1       0.572   7.785   0.971  0.00  0.00    -0.077 C 
ATOM      7  H   UNL     1      -1.357   7.793   1.764  0.00  0.00    -0.081 HD
ENDROOT
BRANCH   4   8
ATOM      8  C   UNL     1      -0.014   4.150  -0.078  0.00  0.00    +0.220 C 
ATOM      9  O   UNL     1      -1.059   3.534  -0.072  0.00  0.00    -0.275 OA
ATOM     10  N   UNL     1       1.158   3.489   0.009  0.00  0.00    -0.284 N 
ATOM     11  H   UNL     1       2.100   4.050   0.095  0.00  0.00    +0.155 HD
BRANCH  10  12
ATOM     12  C   UNL     1       1.175   2.088  -0.009  0.00  0.00    +0.047 A 
ATOM     13  C   UNL     1       0.140   1.387  -0.609  0.00  0.00    +0.024 A 
ATOM     14  C   UNL     1       0.160   0.005  -0.627  0.00  0.00    +0.002 A 
ATOM     15  C   UNL     1       1.210  -0.683  -0.047  0.00  0.00    +0.001 A 
ATOM     16  C   UNL     1       2.246   0.006   0.554  0.00  0.00    +0.016 A 
ATOM     17  C   UNL     1       2.235   1.394   0.576  0.00  0.00    +0.029 A 
BRANCH  17  18
ATOM     18  S   UNL     1       3.554   2.276   1.341  0.00  0.00    -0.119 S 
BRANCH  18  19
ATOM     19  C   UNL     1       4.664   0.973   1.942  0.00  0.00    +0.109 C 
BRANCH  19  20
ATOM     20  C   UNL     1       5.851   1.600   2.626  0.00  0.00    -0.037 A 
ATOM     21  C   UNL     1       6.987   1.903   1.899  0.00  0.00    +0.006 A 
ATOM     22  C   UNL     1       8.074   2.484   2.525  0.00  0.00    +0.020 A 
ATOM     23  C   UNL     1       8.029   2.750   3.882  0.00  0.00    +0.041 A 
ATOM     24  C   UNL     1       6.894   2.441   4.610  0.00  0.00    +0.020 A 
ATOM     25  C   UNL     1       5.806   1.866   3.982  0.00  0.00    +0.006 A 
ATOM     26 CL   UNL     1       9.397   3.473   4.670  0.00  0.00    -0.084 Cl
ENDBRANCH  19  20
ENDBRANCH  18  19
ENDBRANCH  17  18
ENDBRANCH  10  12
ENDBRANCH   4   8
BRANCH   1  27
ATOM     27  C   UNL     1      -0.944   9.672   0.949  0.00  0.00    +0.022 C 
BRANCH  27  30
ATOM     28  C   UNL     1       0.654  10.865   3.939  0.00  0.00    +0.202 A 
ATOM     29  N   UNL     1       0.726  10.498   2.640  0.00  0.00    -0.193 NA
ATOM     30  C   UNL     1      -0.493  10.158   2.302  0.00  0.00    +0.211 A 
ATOM     31  O   UNL     1      -1.262  10.328   3.381  0.00  0.00    -0.340 OA
ATOM     32  N   UNL     1      -0.593  10.728   4.310  0.00  0.00    -0.056 NA
BRANCH  28  36
ATOM     33  C   UNL     1       3.875  12.216   6.364  0.00  0.00    +0.000 A 
ATOM     34  C   UNL     1       2.603  12.120   6.899  0.00  0.00    +0.001 A 
ATOM     35  C   UNL     1       1.554  11.683   6.117  0.00  0.00    +0.012 A 
ATOM     36  C   UNL     1       1.778  11.336   4.786  0.00  0.00    +0.022 A 
ATOM     37  C   UNL     1       3.063  11.429   4.254  0.00  0.00    +0.012 A 
ATOM     38  C   UNL     1       4.104  11.873   5.044  0.00  0.00    +0.001 A 
ENDBRANCH  28  36
ENDBRANCH  27  30
ENDBRANCH   1  27
TORSDOF 8
