REMARK  Name = ZINC03226154
REMARK  9 active torsions:
REMARK  status: ('A' for Active; 'I' for Inactive)
REMARK    1  A    between atoms: C_1  and  C_2
REMARK    2  A    between atoms: C_5  and  N_8
REMARK    3  A    between atoms: N_8  and  S_9
REMARK    4  A    between atoms: S_9  and  C_12
REMARK    5  A    between atoms: C_15  and  C_18
REMARK    6  A    between atoms: N_20  and  C_21
REMARK    7  A    between atoms: C_21  and  C_22
REMARK    8  A    between atoms: C_25  and  S_28
REMARK    9  A    between atoms: S_28  and  N_31
REMARK                            x       y       z     vdW  Elec       q    Type
REMARK                         _______ _______ _______ _____ _____    ______ ____
ROOT
ATOM      1  C   UNL     1       1.519   2.282   0.035  0.00  0.00    +0.109 A 
ATOM      2  C   UNL     1       2.239   2.391   1.212  0.00  0.00    +0.029 A 
ATOM      3  C   UNL     1       3.528   2.883   1.191  0.00  0.00    +0.015 A 
ATOM      4  C   UNL     1       4.101   3.281  -0.018  0.00  0.00    +0.037 A 
ATOM      5  C   UNL     1       3.366   3.174  -1.200  0.00  0.00    +0.015 A 
ATOM      6  C   UNL     1       2.081   2.675  -1.166  0.00  0.00    +0.029 A 
ENDROOT
BRANCH   4   7
ATOM      7  C   UNL     1       5.479   3.814  -0.046  0.00  0.00    +0.244 C 
ATOM      8  O   UNL     1       5.976   4.160  -1.100  0.00  0.00    -0.270 OA
ATOM      9  N   UNL     1       6.186   3.917   1.097  0.00  0.00    -0.307 N 
ATOM     10  H   UNL     1       5.790   3.641   1.939  0.00  0.00    +0.149 HD
BRANCH   9  11
ATOM     11  C   UNL     1       7.552   4.446   1.069  0.00  0.00    +0.139 C 
BRANCH  11  12
ATOM     12  C   UNL     1       8.115   4.456   2.467  0.00  0.00    -0.030 A 
ATOM     13  C   UNL     1       7.954   5.570   3.269  0.00  0.00    +0.007 A 
ATOM     14  C   UNL     1       8.467   5.578   4.553  0.00  0.00    +0.029 A 
ATOM     15  C   UNL     1       9.149   4.475   5.031  0.00  0.00    +0.105 A 
ATOM     16  C   UNL     1       9.316   3.363   4.227  0.00  0.00    +0.029 A 
ATOM     17  C   UNL     1       8.799   3.353   2.945  0.00  0.00    +0.007 A 
BRANCH  15  18
ATOM     18  S   UNL     1       9.807   4.487   6.665  0.00  0.00    +0.056 S 
ATOM     19  O   UNL     1       9.045   5.433   7.403  0.00  0.00    -0.153 OA
ATOM     20  O   UNL     1       9.928   3.128   7.064  0.00  0.00    -0.153 OA
BRANCH  18  21
ATOM     21  N   UNL     1      11.346   5.090   6.570  0.00  0.00    -0.204 NA
ATOM     22  H   UNL     1      11.710   5.356   5.711  0.00  0.00    +0.144 HD
ATOM     23  H   UNL     1      11.884   5.178   7.372  0.00  0.00    +0.144 HD
ENDBRANCH  18  21
ENDBRANCH  15  18
ENDBRANCH  11  12
ENDBRANCH   9  11
ENDBRANCH   4   7
BRANCH   1  24
ATOM     24  S   UNL     1      -0.124   1.646   0.069  0.00  0.00    +0.072 S 
ATOM     25  O   UNL     1      -0.819   2.258  -1.009  0.00  0.00    -0.150 OA
ATOM     26  O   UNL     1      -0.570   1.744   1.415  0.00  0.00    -0.150 OA
BRANCH  24  27
ATOM     27  N   UNL     1      -0.032   0.031  -0.283  0.00  0.00    -0.216 N 
ATOM     28  H   UNL     1      -0.449  -0.315  -1.087  0.00  0.00    +0.174 HD
BRANCH  27  33
ATOM     29  C   UNL     1       2.722  -3.481   3.216  0.00  0.00    +0.044 C 
ATOM     30  C   UNL     1       1.990  -2.548   2.286  0.00  0.00    -0.050 A 
ATOM     31  C   UNL     1       0.740  -2.070   2.632  0.00  0.00    +0.005 A 
ATOM     32  C   UNL     1       0.066  -1.214   1.783  0.00  0.00    +0.025 A 
ATOM     33  C   UNL     1       0.647  -0.834   0.579  0.00  0.00    +0.048 A 
ATOM     34  C   UNL     1       1.901  -1.320   0.232  0.00  0.00    +0.025 A 
ATOM     35  C   UNL     1       2.571  -2.171   1.089  0.00  0.00    +0.005 A 
ENDBRANCH  27  33
ENDBRANCH  24  27
ENDBRANCH   1  24
TORSDOF 8
