REMARK  Name = ZINC33074019
REMARK  3 active torsions:
REMARK  status: ('A' for Active; 'I' for Inactive)
REMARK    1  A    between atoms: C_6  and  N_7
REMARK    2  A    between atoms: N_7  and  S_8
REMARK    3  A    between atoms: S_8  and  C_11
REMARK                            x       y       z     vdW  Elec       q    Type
REMARK                         _______ _______ _______ _____ _____    ______ ____
ROOT
ATOM      1  S   UNL     1      -5.186   3.917   0.018  0.00  0.00    +0.094 S 
ATOM      2  O   UNL     1      -5.178   5.276  -0.399  0.00  0.00    -0.148 OA
ATOM      3  O   UNL     1      -6.007   2.936  -0.600  0.00  0.00    -0.148 OA
ENDROOT
BRANCH   1   4
ATOM      4  C   UNL     1      -3.527   3.340  -0.112  0.00  0.00    +0.146 A 
ATOM      5  C   UNL     1      -3.250   1.982  -0.150  0.00  0.00    +0.144 A 
ATOM      6  N   UNL     1      -1.993   1.582  -0.248  0.00  0.00    -0.221 NA
ATOM      7  C   UNL     1      -1.005   2.463  -0.309  0.00  0.00    +0.213 A 
ATOM      8  N   UNL     1      -1.235   3.767  -0.269  0.00  0.00    -0.221 NA
ATOM      9  C   UNL     1      -2.469   4.234  -0.178  0.00  0.00    +0.144 A 
ATOM     10  N   UNL     1       0.299   2.009  -0.410  0.00  0.00    -0.327 N 
ATOM     11  H   UNL     1       1.129   2.729  -0.462  0.00  0.00    +0.145 HD
ATOM     12  H   UNL     1       0.504   0.929  -0.440  0.00  0.00    +0.145 HD
ENDBRANCH   1   4
BRANCH   1  13
ATOM     13  N   UNL     1      -5.580   3.919   1.627  0.00  0.00    -0.098 NA
BRANCH  13  19
ATOM     14  C   UNL     1      -3.964   4.211   3.397  0.00  0.00    +0.029 A 
ATOM     15  C   UNL     1      -3.281   5.035   4.269  0.00  0.00    +0.040 A 
ATOM     16  C   UNL     1      -3.527   6.398   4.271  0.00  0.00    +0.124 A 
ATOM     17  C   UNL     1      -4.454   6.938   3.396  0.00  0.00    +0.040 A 
ATOM     18  C   UNL     1      -5.135   6.118   2.518  0.00  0.00    +0.029 A 
ATOM     19  C   UNL     1      -4.890   4.751   2.514  0.00  0.00    +0.074 A 
ATOM     20  F   UNL     1      -2.861   7.202   5.129  0.00  0.00    -0.205 F 
ENDBRANCH  13  19
ENDBRANCH   1  13
TORSDOF 3
