REMARK  Name = ZINC25155822
REMARK  11 active torsions:
REMARK  status: ('A' for Active; 'I' for Inactive)
REMARK    1  A    between atoms: C_1  and  C_2
REMARK    2  A    between atoms: C_5  and  S_8
REMARK    3  A    between atoms: S_8  and  N_11
REMARK    4  A    between atoms: N_11  and  C_12
REMARK    5  A    between atoms: N_11  and  C_18
REMARK    6  A    between atoms: C_12  and  C_13
REMARK    7  A    between atoms: C_18  and  C_19
REMARK    8  A    between atoms: N_21  and  C_22
REMARK    9  A    between atoms: C_22  and  C_23
REMARK   10  A    between atoms: C_23  and  C_25
REMARK   11  A    between atoms: C_23  and  N_31
REMARK                            x       y       z     vdW  Elec       q    Type
REMARK                         _______ _______ _______ _____ _____    ______ ____
ROOT
ATOM      1  C   UNL     1      -0.183   4.539   2.247  0.00  0.00    +0.205 C 
ENDROOT
BRANCH   1   2
ATOM      2  C   UNL     1      -0.460   3.319   3.087  0.00  0.00    +0.229 C 
ATOM      3  O   UNL     1       0.351   2.418   3.134  0.00  0.00    -0.274 OA
ATOM      4  N   UNL     1      -1.608   3.229   3.787  0.00  0.00    -0.315 N 
ATOM      5  H   UNL     1      -2.344   4.046   3.744  0.00  0.00    +0.149 HD
BRANCH   4   6
ATOM      6  C   UNL     1      -1.877   2.043   4.604  0.00  0.00    +0.093 C 
BRANCH   6   7
ATOM      7  C   UNL     1      -3.181   2.242   5.379  0.00  0.00    -0.020 C 
BRANCH   7   8
ATOM      8  C   UNL     1      -4.334   2.320   4.411  0.00  0.00    -0.059 A 
ATOM      9  C   UNL     1      -4.864   1.162   3.874  0.00  0.00    +0.002 A 
ATOM     10  C   UNL     1      -5.925   1.232   2.990  0.00  0.00    +0.000 A 
ATOM     11  C   UNL     1      -6.449   2.462   2.636  0.00  0.00    +0.000 A 
ATOM     12  C   UNL     1      -5.915   3.620   3.169  0.00  0.00    +0.000 A 
ATOM     13  C   UNL     1      -4.857   3.549   4.056  0.00  0.00    +0.002 A 
ENDBRANCH   7   8
BRANCH   7  14
ATOM     14  N   UNL     1      -3.385   1.111   6.294  0.00  0.00    +0.385 N 
ATOM     15  C   UNL     1      -2.252   0.986   7.246  0.00  0.00    -0.078 C 
ATOM     16  C   UNL     1      -2.852   0.151   8.405  0.00  0.00    -0.020 C 
ATOM     17  C   UNL     1      -4.299   0.687   8.503  0.00  0.00    -0.020 C 
ATOM     18  C   UNL     1      -4.590   1.314   7.126  0.00  0.00    -0.078 C 
ATOM     19  H   UNL     1      -3.481   0.222   5.654  0.00  0.00    -0.081 HD
ENDBRANCH   7  14
ENDBRANCH   6   7
ENDBRANCH   4   6
ENDBRANCH   1   2
BRANCH   1  20
ATOM     20  N   UNL     1       1.119   4.396   1.592  0.00  0.00    -0.160 NA
BRANCH  20  21
ATOM     21  S   UNL     1       1.209   3.800   0.050  0.00  0.00    +0.062 S 
ATOM     22  O   UNL     1       2.426   4.283  -0.502  0.00  0.00    -0.153 OA
ATOM     23  O   UNL     1      -0.053   4.047  -0.555  0.00  0.00    -0.153 OA
BRANCH  21  28
ATOM     24  C   UNL     1       1.771  -2.192   0.481  0.00  0.00    +0.044 C 
ATOM     25  C   UNL     1       1.630  -0.696   0.373  0.00  0.00    -0.050 A 
ATOM     26  C   UNL     1       0.375  -0.123   0.299  0.00  0.00    +0.005 A 
ATOM     27  C   UNL     1       0.246   1.250   0.200  0.00  0.00    +0.029 A 
ATOM     28  C   UNL     1       1.373   2.050   0.176  0.00  0.00    +0.106 A 
ATOM     29  C   UNL     1       2.629   1.477   0.250  0.00  0.00    +0.029 A 
ATOM     30  C   UNL     1       2.758   0.104   0.349  0.00  0.00    +0.005 A 
ENDBRANCH  21  28
ENDBRANCH  20  21
BRANCH  20  31
ATOM     31  C   UNL     1       2.342   4.780   2.301  0.00  0.00    +0.184 C 
BRANCH  31  32
ATOM     32  C   UNL     1       2.580   6.258   2.128  0.00  0.00    +0.120 A 
ATOM     33  C   UNL     1       2.120   7.228   2.938  0.00  0.00    +0.046 A 
ATOM     34  C   UNL     1       2.577   8.456   2.406  0.00  0.00    +0.041 A 
ATOM     35  C   UNL     1       3.289   8.162   1.304  0.00  0.00    +0.195 A 
ATOM     36  O   UNL     1       3.292   6.829   1.143  0.00  0.00    -0.466 OA
ENDBRANCH  31  32
ENDBRANCH  20  31
ENDBRANCH   1  20
TORSDOF 10
