REMARK  Name = ZINC47047383
REMARK  3 active torsions:
REMARK  status: ('A' for Active; 'I' for Inactive)
REMARK    1  A    between atoms: C_5  and  C_7
REMARK    2  A    between atoms: N_9  and  N_10
REMARK    3  A    between atoms: C_11  and  C_13
REMARK                            x       y       z     vdW  Elec       q    Type
REMARK                         _______ _______ _______ _____ _____    ______ ____
ROOT
ATOM      1  N   UNL     1       0.121  -4.256  -0.023  0.00  0.00    -0.230 N 
ATOM      2  C   UNL     1      -1.033  -4.952  -0.015  0.00  0.00    +0.260 C 
ATOM      3  O   UNL     1      -2.096  -4.364  -0.002  0.00  0.00    -0.269 OA
ATOM      4  H   UNL     1       0.970  -4.726  -0.034  0.00  0.00    +0.173 HD
ENDROOT
BRANCH   2   5
ATOM      5  C   UNL     1      -1.006  -6.433  -0.024  0.00  0.00    +0.040 A 
ATOM      6  C   UNL     1       0.227  -7.106  -0.034  0.00  0.00    +0.014 A 
ATOM      7  C   UNL     1       0.278  -8.466  -0.042  0.00  0.00    +0.016 A 
ATOM      8  C   UNL     1      -0.910  -9.210  -0.041  0.00  0.00    +0.065 A 
ATOM      9  C   UNL     1      -2.163  -8.543  -0.030  0.00  0.00    +0.080 A 
ATOM     10  C   UNL     1      -2.196  -7.142  -0.017  0.00  0.00    +0.041 A 
ATOM     11  N   UNL     1      -3.290  -9.270  -0.029  0.00  0.00    -0.223 NA
ATOM     12  C   UNL     1      -3.242 -10.593  -0.036  0.00  0.00    +0.180 A 
ATOM     13  N   UNL     1      -2.083 -11.271  -0.046  0.00  0.00    -0.301 N 
ATOM     14  H   UNL     1      -2.096 -12.241  -0.051  0.00  0.00    +0.171 HD
ATOM     15  C   UNL     1      -0.899 -10.621  -0.048  0.00  0.00    +0.260 A 
ATOM     16  O   UNL     1       0.261 -11.302  -0.058  0.00  0.00    -0.267 OA
ATOM     17  S   UNL     1      -4.712 -11.472  -0.033  0.00  0.00    -0.011 S 
ENDBRANCH   2   5
BRANCH   1  20
ATOM     18  C   UNL     1       1.250  -2.160  -0.022  0.00  0.00    +0.262 C 
ATOM     19  O   UNL     1       2.313  -2.748  -0.035  0.00  0.00    -0.269 OA
ATOM     20  N   UNL     1       0.095  -2.856  -0.015  0.00  0.00    -0.230 N 
ATOM     21  H   UNL     1      -0.754  -2.386  -0.004  0.00  0.00    +0.173 HD
BRANCH  18  26
ATOM     22  C   UNL     1      -0.017   1.375   0.010  0.00  0.00    +0.001 A 
ATOM     23  C   UNL     1       1.170   2.087   0.002  0.00  0.00    +0.001 A 
ATOM     24  C   UNL     1       2.383   1.423  -0.013  0.00  0.00    +0.021 A 
ATOM     25  C   UNL     1       2.417   0.041  -0.021  0.00  0.00    +0.053 A 
ATOM     26  C   UNL     1       1.222  -0.683  -0.013  0.00  0.00    +0.056 A 
ATOM     27  C   UNL     1       0.002  -0.004   0.002  0.00  0.00    +0.014 A 
ATOM     28 CL   UNL     1       3.940  -0.792  -0.040  0.00  0.00    -0.083 Cl
ENDBRANCH  18  26
ENDBRANCH   1  20
TORSDOF 3
