REMARK  Name = ZINC34748155
REMARK  5 active torsions:
REMARK  status: ('A' for Active; 'I' for Inactive)
REMARK    1  A    between atoms: C_4  and  C_7
REMARK    2  A    between atoms: C_7  and  N_8
REMARK    3  A    between atoms: N_21  and  C_24
REMARK    4  A    between atoms: C_24  and  C_25
REMARK    5  A    between atoms: N_27  and  C_28
REMARK                            x       y       z     vdW  Elec       q    Type
REMARK                         _______ _______ _______ _____ _____    ______ ____
ROOT
ATOM      1  N   UNL     1       4.753  -2.372   3.084  0.00  0.00    -0.276 N 
ATOM      2  C   UNL     1       5.596  -1.570   3.761  0.00  0.00    +0.264 A 
ATOM      3  O   UNL     1       6.512  -2.043   4.412  0.00  0.00    -0.267 OA
ATOM      4  C   UNL     1       5.401  -0.154   3.704  0.00  0.00    +0.076 A 
ATOM      5  C   UNL     1       6.196   0.897   4.360  0.00  0.00    -0.023 A 
ATOM      6  C   UNL     1       5.811   2.167   4.154  0.00  0.00    -0.004 A 
ATOM      7  S   UNL     1       4.392   2.051   3.089  0.00  0.00    -0.073 S 
ATOM      8  C   UNL     1       4.320   0.286   2.928  0.00  0.00    +0.117 A 
ATOM      9  N   UNL     1       3.522  -0.559   2.284  0.00  0.00    -0.208 NA
ATOM     10  C   UNL     1       3.727  -1.858   2.348  0.00  0.00    +0.202 A 
ATOM     11  N   UNL     1       2.891  -2.708   1.667  0.00  0.00    -0.304 N 
ATOM     12  C   UNL     1       2.562  -2.474   0.253  0.00  0.00    +0.089 C 
ATOM     13  C   UNL     1       1.039  -2.535   0.092  0.00  0.00    -0.059 C 
ATOM     14  N   UNL     1       0.542  -3.809   0.627  0.00  0.00    +0.387 N 
ATOM     15  C   UNL     1       0.789  -3.875   2.073  0.00  0.00    -0.059 C 
ATOM     16  C   UNL     1       2.304  -3.883   2.330  0.00  0.00    +0.089 C 
ATOM     17  C   UNL     1       6.691   3.152   4.875  0.00  0.00    +0.043 C 
ATOM     18  C   UNL     1       7.442   2.305   5.926  0.00  0.00    +0.010 C 
ATOM     19  C   UNL     1       7.427   0.910   5.271  0.00  0.00    +0.037 C 
ATOM     20  H   UNL     1       1.018  -4.573   0.170  0.00  0.00    -0.081 HD
ENDROOT
BRANCH   1  21
ATOM     21  C   UNL     1       4.944  -3.823   3.136  0.00  0.00    +0.163 C 
BRANCH  21  25
ATOM     22  C   UNL     1       7.748  -4.998   0.135  0.00  0.00    +0.000 A 
ATOM     23  C   UNL     1       8.197  -4.570   1.370  0.00  0.00    +0.000 A 
ATOM     24  C   UNL     1       7.290  -4.189   2.341  0.00  0.00    +0.005 A 
ATOM     25  C   UNL     1       5.934  -4.237   2.077  0.00  0.00    -0.028 A 
ATOM     26  C   UNL     1       5.485  -4.665   0.841  0.00  0.00    +0.005 A 
ATOM     27  C   UNL     1       6.392  -5.047  -0.129  0.00  0.00    +0.000 A 
ENDBRANCH  21  25
ENDBRANCH   1  21
BRANCH  14  28
ATOM     28  C   UNL     1      -0.901  -3.915   0.374  0.00  0.00    +0.019 C 
BRANCH  28  29
ATOM     29  C   UNL     1      -1.390  -5.271   0.811  0.00  0.00    +0.201 C 
ATOM     30  O   UNL     1      -0.613  -6.072   1.287  0.00  0.00    -0.278 OA
ATOM     31  N   UNL     1      -2.691  -5.596   0.673  0.00  0.00    -0.287 N 
ATOM     32  H   UNL     1      -3.329  -4.927   0.378  0.00  0.00    +0.155 HD
BRANCH  31  33
ATOM     33  C   UNL     1      -3.121  -6.896   0.956  0.00  0.00    +0.033 A 
ATOM     34  C   UNL     1      -4.424  -7.121   1.381  0.00  0.00    +0.023 A 
ATOM     35  C   UNL     1      -4.846  -8.407   1.659  0.00  0.00    +0.002 A 
ATOM     36  C   UNL     1      -3.973  -9.469   1.515  0.00  0.00    +0.000 A 
ATOM     37  C   UNL     1      -2.675  -9.248   1.092  0.00  0.00    +0.002 A 
ATOM     38  C   UNL     1      -2.248  -7.966   0.806  0.00  0.00    +0.023 A 
ENDBRANCH  31  33
ENDBRANCH  28  29
ENDBRANCH  14  28
TORSDOF 5
