REMARK  Name = ZINC12481840
REMARK  11 active torsions:
REMARK  status: ('A' for Active; 'I' for Inactive)
REMARK    1  A    between atoms: C_1  and  C_2
REMARK    2  A    between atoms: C_2  and  C_3
REMARK    3  A    between atoms: C_2  and  C_4
REMARK    4  A    between atoms: C_7  and  C_10
REMARK    5  A    between atoms: C_10  and  C_12
REMARK    6  A    between atoms: C_10  and  N_22
REMARK    7  A    between atoms: N_14  and  C_15
REMARK    8  A    between atoms: C_15  and  C_16
REMARK    9  A    between atoms: N_22  and  C_23
REMARK   10  A    between atoms: C_30  and  C_32
REMARK   11  A    between atoms: C_32  and  N_33
REMARK                            x       y       z     vdW  Elec       q    Type
REMARK                         _______ _______ _______ _____ _____    ______ ____
ROOT
ATOM      1  C   UNL     1       3.679  -0.729  -0.047  0.00  0.00    +0.197 C 
ENDROOT
BRANCH   1   5
ATOM      2  C   UNL     1       2.134   3.072   1.141  0.00  0.00    -0.045 A 
ATOM      3  C   UNL     1       3.471   2.940   0.819  0.00  0.00    +0.004 A 
ATOM      4  C   UNL     1       3.971   1.710   0.432  0.00  0.00    +0.006 A 
ATOM      5  C   UNL     1       3.134   0.612   0.371  0.00  0.00    -0.018 A 
ATOM      6  C   UNL     1       1.796   0.744   0.694  0.00  0.00    +0.006 A 
ATOM      7  C   UNL     1       1.296   1.974   1.079  0.00  0.00    +0.004 A 
BRANCH   2   9
ATOM      8  C   UNL     1       2.314   4.895   2.812  0.00  0.00    +0.012 C 
ATOM      9  C   UNL     1       1.587   4.414   1.554  0.00  0.00    +0.013 C 
ATOM     10  C   UNL     1       1.801   5.422   0.424  0.00  0.00    +0.012 C 
ENDBRANCH   2   9
ENDBRANCH   1   5
BRANCH   1  11
ATOM     11  C   UNL     1       4.080  -0.677  -1.499  0.00  0.00    +0.239 C 
ATOM     12  O   UNL     1       5.119  -0.141  -1.822  0.00  0.00    -0.273 OA
ATOM     13  N   UNL     1       3.285  -1.228  -2.438  0.00  0.00    -0.311 N 
ATOM     14  H   UNL     1       2.455  -1.657  -2.180  0.00  0.00    +0.149 HD
BRANCH  13  15
ATOM     15  C   UNL     1       3.676  -1.177  -3.849  0.00  0.00    +0.135 C 
BRANCH  15  16
ATOM     16  C   UNL     1       2.607  -1.868  -4.699  0.00  0.00    +0.135 C 
ATOM     17  C   UNL     1       3.008  -1.820  -6.186  0.00  0.00    +0.035 C 
ATOM     18  C   UNL     1       3.068  -3.308  -6.611  0.00  0.00    +0.031 C 
ATOM     19  C   UNL     1       2.193  -3.990  -5.528  0.00  0.00    +0.160 C 
ATOM     20  O   UNL     1       2.507  -3.253  -4.327  0.00  0.00    -0.375 OA
ENDBRANCH  15  16
ENDBRANCH  13  15
ENDBRANCH   1  11
BRANCH   1  21
ATOM     21  N   UNL     1       4.849  -1.058   0.771  0.00  0.00    -0.251 N 
ATOM     22  C   UNL     1       4.724  -1.177   2.108  0.00  0.00    +0.242 C 
ATOM     23  O   UNL     1       3.643  -1.012   2.633  0.00  0.00    -0.273 OA
BRANCH  21  24
ATOM     24  C   UNL     1       6.097  -1.248   0.165  0.00  0.00    +0.073 A 
ATOM     25  C   UNL     1       6.922  -0.160  -0.085  0.00  0.00    +0.026 A 
ATOM     26  C   UNL     1       8.154  -0.351  -0.679  0.00  0.00    +0.002 A 
ATOM     27  C   UNL     1       8.563  -1.623  -1.034  0.00  0.00    +0.003 A 
ATOM     28  C   UNL     1       7.743  -2.710  -0.791  0.00  0.00    +0.040 A 
ATOM     29  C   UNL     1       6.510  -2.526  -0.193  0.00  0.00    +0.145 A 
ATOM     30  F   UNL     1       5.708  -3.588   0.043  0.00  0.00    -0.204 F 
ENDBRANCH  21  24
BRANCH  22  31
ATOM     31  C   UNL     1       5.927  -1.515   2.950  0.00  0.00    +0.242 C 
BRANCH  31  32
ATOM     32  N   UNL     1       5.532  -1.587   4.359  0.00  0.00    -0.235 N 
ATOM     33  C   UNL     1       5.535  -0.556   5.268  0.00  0.00    +0.090 A 
ATOM     34  C   UNL     1       5.876   0.791   5.200  0.00  0.00    +0.029 A 
ATOM     35  C   UNL     1       5.766   1.577   6.313  0.00  0.00    +0.002 A 
ATOM     36  C   UNL     1       5.316   1.042   7.513  0.00  0.00    +0.002 A 
ATOM     37  C   UNL     1       4.968  -0.274   7.604  0.00  0.00    +0.032 A 
ATOM     38  C   UNL     1       5.077  -1.102   6.479  0.00  0.00    +0.113 A 
ATOM     39  N   UNL     1       4.827  -2.410   6.269  0.00  0.00    -0.129 NA
ATOM     40  N   UNL     1       5.082  -2.723   5.048  0.00  0.00    -0.064 NA
ENDBRANCH  31  32
ENDBRANCH  22  31
ENDBRANCH   1  21
TORSDOF 9
