REMARK  Name = ZINC11105628
REMARK  9 active torsions:
REMARK  status: ('A' for Active; 'I' for Inactive)
REMARK    1  A    between atoms: C_4  and  C_7
REMARK    2  A    between atoms: C_7  and  C_9
REMARK    3  A    between atoms: C_7  and  S_22
REMARK    4  A    between atoms: N_11  and  C_12
REMARK    5  A    between atoms: C_16  and  N_18
REMARK    6  A    between atoms: S_22  and  C_23
REMARK    7  A    between atoms: N_27  and  C_28
REMARK    8  A    between atoms: C_28  and  C_29
REMARK    9  A    between atoms: C_29  and  C_30
REMARK                            x       y       z     vdW  Elec       q    Type
REMARK                         _______ _______ _______ _____ _____    ______ ____
ROOT
ATOM      1  C   UNL     1      -0.290   5.915   0.184  0.00  0.00    +0.170 C 
ENDROOT
BRANCH   1   5
ATOM      2  C   UNL     1       2.400   5.801   3.501  0.00  0.00    +0.000 A 
ATOM      3  C   UNL     1       2.862   5.531   2.226  0.00  0.00    +0.000 A 
ATOM      4  C   UNL     1       1.992   5.568   1.153  0.00  0.00    +0.005 A 
ATOM      5  C   UNL     1       0.659   5.875   1.354  0.00  0.00    -0.025 A 
ATOM      6  C   UNL     1       0.197   6.149   2.628  0.00  0.00    +0.005 A 
ATOM      7  C   UNL     1       1.067   6.108   3.702  0.00  0.00    +0.000 A 
ENDBRANCH   1   5
BRANCH   1   8
ATOM      8  C   UNL     1      -0.889   7.293   0.070  0.00  0.00    +0.235 C 
ATOM      9  O   UNL     1      -1.964   7.531   0.579  0.00  0.00    -0.274 OA
ATOM     10  N   UNL     1      -0.230   8.262  -0.596  0.00  0.00    -0.284 N 
ATOM     11  H   UNL     1       0.663   8.094  -0.937  0.00  0.00    +0.155 HD
BRANCH  10  12
ATOM     12  C   UNL     1      -0.834   9.508  -0.797  0.00  0.00    +0.036 A 
ATOM     13  C   UNL     1      -2.208   9.595  -0.977  0.00  0.00    +0.025 A 
ATOM     14  C   UNL     1      -2.801  10.827  -1.170  0.00  0.00    +0.024 A 
ATOM     15  C   UNL     1      -2.027  11.973  -1.194  0.00  0.00    +0.071 A 
ATOM     16  C   UNL     1      -0.657  11.889  -1.021  0.00  0.00    +0.146 A 
ATOM     17  C   UNL     1      -0.059  10.660  -0.822  0.00  0.00    +0.057 A 
ATOM     18 CL   UNL     1      -2.775  13.520  -1.443  0.00  0.00    -0.081 Cl
BRANCH  16  19
ATOM     19  N   UNL     1       0.169  13.118  -1.048  0.00  0.00    +0.058 N 
ATOM     20  O   UNL     1       1.375  13.044  -0.895  0.00  0.00    -0.126 OA
ATOM     21  O   UNL     1      -0.358  14.202  -1.223  0.00  0.00    -0.126 OA
ENDBRANCH  16  19
ENDBRANCH  10  12
ENDBRANCH   1   8
BRANCH   1  22
ATOM     22  S   UNL     1      -1.610   4.703   0.436  0.00  0.00    -0.068 S 
BRANCH  22  23
ATOM     23  C   UNL     1      -0.672   3.213   0.382  0.00  0.00    +0.192 A 
ATOM     24  N   UNL     1       0.625   3.113   0.204  0.00  0.00    -0.123 NA
ATOM     25  N   UNL     1       0.975   1.876   0.220  0.00  0.00    -0.137 NA
ATOM     26  C   UNL     1      -0.069   1.119   0.407  0.00  0.00    +0.225 A 
ATOM     27  N   UNL     1      -1.156   1.943   0.512  0.00  0.00    -0.308 N 
BRANCH  27  28
ATOM     28  C   UNL     1      -2.550   1.545   0.724  0.00  0.00    +0.130 C 
BRANCH  28  29
ATOM     29  C   UNL     1      -3.264   1.452  -0.626  0.00  0.00    +0.064 C 
BRANCH  29  30
ATOM     30  C   UNL     1      -4.698   1.042  -0.409  0.00  0.00    -0.009 A 
ATOM     31  C   UNL     1      -5.788   1.824  -0.209  0.00  0.00    +0.011 A 
ATOM     32  C   UNL     1      -7.020   1.223  -0.031  0.00  0.00    +0.008 A 
ATOM     33  C   UNL     1      -7.102  -0.130  -0.061  0.00  0.00    +0.045 A 
ATOM     34  S   UNL     1      -5.404  -0.596  -0.355  0.00  0.00    -0.102 S 
ENDBRANCH  29  30
ENDBRANCH  28  29
ENDBRANCH  27  28
ENDBRANCH  22  23
ENDBRANCH   1  22
TORSDOF 9
