REMARK  Name = ZINC01971825
REMARK  6 active torsions:
REMARK  status: ('A' for Active; 'I' for Inactive)
REMARK    1  A    between atoms: C_4  and  C_7
REMARK    2  A    between atoms: C_8  and  C_21
REMARK    3  A    between atoms: C_14  and  C_15
REMARK    4  A    between atoms: N_23  and  N_24
REMARK    5  A    between atoms: C_25  and  C_26
REMARK    6  A    between atoms: C_29  and  O_32
REMARK                            x       y       z     vdW  Elec       q    Type
REMARK                         _______ _______ _______ _____ _____    ______ ____
ROOT
ATOM      1  C   UNL     1      -8.510   1.487   0.101  0.00  0.00    +0.027 A 
ATOM      2  C   UNL     1      -7.286   0.800   0.152  0.00  0.00    +0.114 A 
ATOM      3  C   UNL     1      -7.304  -0.591  -0.142  0.00  0.00    +0.278 A 
ATOM      4  O   UNL     1      -6.272  -1.238  -0.118  0.00  0.00    -0.266 OA
ATOM      5  N   UNL     1      -8.473  -1.187  -0.441  0.00  0.00    -0.242 N 
ATOM      6  H   UNL     1      -8.477  -2.167  -0.638  0.00  0.00    +0.192 HD
ATOM      7  N   UNL     1      -9.581  -0.544  -0.484  0.00  0.00    -0.170 NA
ATOM      8  C   UNL     1      -9.673   0.740  -0.235  0.00  0.00    +0.100 A 
ENDROOT
BRANCH   1  12
ATOM      9  C   UNL     1      -8.734   5.648   0.920  0.00  0.00    +0.000 A 
ATOM     10  C   UNL     1      -8.097   5.205  -0.226  0.00  0.00    +0.001 A 
ATOM     11  C   UNL     1      -8.021   3.855  -0.498  0.00  0.00    +0.008 A 
ATOM     12  C   UNL     1      -8.588   2.935   0.386  0.00  0.00    -0.015 A 
ATOM     13  C   UNL     1      -9.234   3.389   1.538  0.00  0.00    +0.008 A 
ATOM     14  C   UNL     1      -9.298   4.742   1.800  0.00  0.00    +0.001 A 
ENDBRANCH   1  12
BRANCH   8  15
ATOM     15  C   UNL     1     -10.991   1.414  -0.304  0.00  0.00    +0.003 A 
ATOM     16  C   UNL     1     -12.139   0.754   0.132  0.00  0.00    +0.010 A 
ATOM     17  C   UNL     1     -13.362   1.389   0.071  0.00  0.00    +0.001 A 
ATOM     18  C   UNL     1     -13.453   2.674  -0.433  0.00  0.00    +0.000 A 
ATOM     19  C   UNL     1     -12.319   3.332  -0.873  0.00  0.00    +0.001 A 
ATOM     20  C   UNL     1     -11.089   2.709  -0.811  0.00  0.00    +0.010 A 
ENDBRANCH   8  15
BRANCH   2  21
ATOM     21  C   UNL     1      -6.034   1.493   0.491  0.00  0.00    +0.269 C 
ATOM     22  O   UNL     1      -6.059   2.659   0.840  0.00  0.00    -0.268 OA
ATOM     23  N   UNL     1      -4.859   0.838   0.414  0.00  0.00    -0.203 N 
ATOM     24  H   UNL     1      -4.844  -0.109   0.206  0.00  0.00    +0.178 HD
BRANCH  23  25
ATOM     25  N   UNL     1      -3.658   1.525   0.636  0.00  0.00    -0.187 NA
ATOM     26  C   UNL     1      -2.526   0.894   0.562  0.00  0.00    +0.138 C 
BRANCH  26  27
ATOM     27  C   UNL     1      -1.262   1.617   0.795  0.00  0.00    -0.005 A 
ATOM     28  C   UNL     1      -0.043   0.939   0.716  0.00  0.00    +0.013 A 
ATOM     29  C   UNL     1       1.136   1.620   0.929  0.00  0.00    +0.046 A 
ATOM     30  C   UNL     1       1.113   2.977   1.227  0.00  0.00    +0.117 A 
ATOM     31  C   UNL     1      -0.097   3.653   1.312  0.00  0.00    +0.046 A 
ATOM     32  C   UNL     1      -1.281   2.980   1.101  0.00  0.00    +0.013 A 
BRANCH  30  33
ATOM     33  O   UNL     1       2.278   3.644   1.436  0.00  0.00    -0.507 OA
ATOM     34  H   UNL     1       2.660   4.027   0.634  0.00  0.00    +0.292 HD
ENDBRANCH  30  33
ENDBRANCH  26  27
ENDBRANCH  23  25
ENDBRANCH   2  21
TORSDOF 6
