REMARK  Name = ZINC63844663
REMARK  3 active torsions:
REMARK  status: ('A' for Active; 'I' for Inactive)
REMARK    1  A    between atoms: C_1  and  C_2
REMARK    2  A    between atoms: C_6  and  N_9
REMARK    3  A    between atoms: C_21  and  C_23
REMARK                            x       y       z     vdW  Elec       q    Type
REMARK                         _______ _______ _______ _____ _____    ______ ____
ROOT
ATOM      1  N   UNL     1       3.327  -2.953   2.591  0.00  0.00    -0.274 N 
ATOM      2  C   UNL     1       2.351  -3.740   2.097  0.00  0.00    +0.305 C 
ATOM      3  O   UNL     1       1.628  -3.328   1.211  0.00  0.00    -0.253 OA
ATOM      4  N   UNL     1       2.178  -4.985   2.584  0.00  0.00    -0.271 N 
ATOM      5  C   UNL     1       1.196  -5.900   1.984  0.00  0.00    +0.116 C 
ATOM      6  C   UNL     1       1.932  -7.103   1.381  0.00  0.00    +0.074 C 
ATOM      7  C   UNL     1       2.959  -7.592   2.371  0.00  0.00    +0.040 A 
ATOM      8  H   UNL     1       4.837  -7.384   4.857  0.00  0.00    +0.167 HD
ATOM      9  C   UNL     1       3.422  -6.865   3.411  0.00  0.00    +0.063 A 
ATOM     10  N   UNL     1       4.331  -7.635   4.068  0.00  0.00    -0.348 N 
ATOM     11  C   UNL     1       4.397  -8.816   3.410  0.00  0.00    +0.171 A 
ATOM     12  N   UNL     1       3.571  -8.780   2.397  0.00  0.00    -0.349 N 
ATOM     13  C   UNL     1       2.971  -5.466   3.730  0.00  0.00    +0.174 C 
ATOM     14  H   UNL     1       3.856  -3.253   3.347  0.00  0.00    +0.153 HD
ATOM     15  H   UNL     1       3.426  -9.501   1.765  0.00  0.00    +0.166 HD
ENDROOT
BRANCH   1  20
ATOM     16  C   UNL     1       6.555   0.189  -0.047  0.00  0.00    +0.037 C 
ATOM     17  C   UNL     1       6.048  -0.712   1.081  0.00  0.00    +0.126 C 
ATOM     18  N   UNL     1       5.316   0.075   2.122  0.00  0.00    -0.242 NA
ATOM     19  N   UNL     1       4.432  -0.802   2.881  0.00  0.00    -0.227 NA
ATOM     20  C   UNL     1       3.589  -1.644   1.987  0.00  0.00    +0.218 C 
ATOM     21  S   UNL     1       4.676  -1.804   0.506  0.00  0.00    -0.102 S 
ATOM     22  H   UNL     1       4.800   0.835   1.705  0.00  0.00    +0.142 HD
ATOM     23  H   UNL     1       3.861  -0.273   3.523  0.00  0.00    +0.143 HD
ENDBRANCH   1  20
BRANCH  13  24
ATOM     24  C   UNL     1       2.122  -5.476   4.975  0.00  0.00    +0.068 A 
ATOM     25  C   UNL     1       2.724  -5.374   6.214  0.00  0.00    +0.025 A 
ATOM     26  C   UNL     1       1.934  -5.384   7.353  0.00  0.00    +0.003 A 
ATOM     27  C   UNL     1       0.560  -5.498   7.201  0.00  0.00    +0.020 A 
ATOM     28  C   UNL     1       0.029  -5.597   5.929  0.00  0.00    +0.111 A 
ATOM     29  N   UNL     1       0.811  -5.578   4.868  0.00  0.00    -0.258 NA
ENDBRANCH  13  24
TORSDOF 2
