REMARK  Name = ZINC66176087
REMARK  6 active torsions:
REMARK  status: ('A' for Active; 'I' for Inactive)
REMARK    1  A    between atoms: C_1  and  N_2
REMARK    2  A    between atoms: N_2  and  C_3
REMARK    3  A    between atoms: N_17  and  C_18
REMARK    4  A    between atoms: C_23  and  S_24
REMARK    5  A    between atoms: S_24  and  C_25
REMARK    6  A    between atoms: C_25  and  C_26
REMARK                            x       y       z     vdW  Elec       q    Type
REMARK                         _______ _______ _______ _____ _____    ______ ____
ROOT
ATOM      1  C   UNL     1      -0.126   1.129   0.485  0.00  0.00    +0.134 C 
ATOM      2  N   UNL     1      -0.090  -0.327   0.327  0.00  0.00    -0.285 N 
ATOM      3  C   UNL     1      -0.058  -0.870  -0.906  0.00  0.00    +0.306 C 
ATOM      4  O   UNL     1      -0.028  -2.078  -1.038  0.00  0.00    -0.252 OA
ATOM      5  N   UNL     1      -0.058  -0.073  -1.994  0.00  0.00    -0.268 N 
ATOM      6  H   UNL     1       0.004   0.889  -1.890  0.00  0.00    +0.156 HD
ENDROOT
BRANCH   2   7
ATOM      7  C   UNL     1      -0.089  -1.192   1.509  0.00  0.00    +0.080 C 
ATOM      8  C   UNL     1      -1.359  -0.942   2.325  0.00  0.00    +0.041 C 
ATOM      9  C   UNL     1      -1.372  -1.874   3.541  0.00  0.00    +0.108 C 
ATOM     10  N   UNL     1      -0.124  -1.685   4.294  0.00  0.00    -0.317 N 
ATOM     11  C   UNL     1       1.155  -1.814   3.583  0.00  0.00    +0.108 C 
ATOM     12  C   UNL     1       1.140  -0.883   2.366  0.00  0.00    +0.041 C 
ATOM     13  C   UNL     1      -0.154  -1.391   5.652  0.00  0.00    +0.099 A 
ATOM     14  C   UNL     1       1.036  -1.330   6.370  0.00  0.00    +0.042 A 
ATOM     15  C   UNL     1       0.992  -1.036   7.721  0.00  0.00    +0.005 A 
ATOM     16  C   UNL     1      -0.245  -0.812   8.310  0.00  0.00    +0.018 A 
ATOM     17  C   UNL     1      -1.386  -0.889   7.537  0.00  0.00    +0.084 A 
ATOM     18  N   UNL     1      -1.313  -1.166   6.249  0.00  0.00    -0.350 N 
ATOM     19  H   UNL     1      -2.131  -1.210   5.728  0.00  0.00    +0.166 HD
ENDBRANCH   2   7
BRANCH   5  20
ATOM     20  C   UNL     1      -0.148  -0.635  -3.275  0.00  0.00    +0.048 A 
ATOM     21  C   UNL     1      -0.897  -1.784  -3.478  0.00  0.00    +0.024 A 
ATOM     22  C   UNL     1      -0.984  -2.338  -4.742  0.00  0.00    +0.002 A 
ATOM     23  C   UNL     1      -0.326  -1.749  -5.807  0.00  0.00    +0.001 A 
ATOM     24  C   UNL     1       0.422  -0.603  -5.613  0.00  0.00    +0.016 A 
ATOM     25  C   UNL     1       0.511  -0.038  -4.349  0.00  0.00    +0.030 A 
BRANCH  25  26
ATOM     26  S   UNL     1       1.458   1.427  -4.100  0.00  0.00    -0.114 S 
BRANCH  26  27
ATOM     27  C   UNL     1       2.107   1.815  -5.749  0.00  0.00    +0.169 C 
BRANCH  27  28
ATOM     28  C   UNL     1       2.947   3.064  -5.677  0.00  0.00    +0.221 C 
ATOM     29  O   UNL     1       3.094   3.636  -4.618  0.00  0.00    -0.275 OA
ATOM     30  N   UNL     1       3.535   3.546  -6.790  0.00  0.00    -0.329 N 
ATOM     31  H   UNL     1       3.418   3.089  -7.637  0.00  0.00    +0.145 HD
ATOM     32  H   UNL     1       4.076   4.350  -6.744  0.00  0.00    +0.145 HD
ENDBRANCH  27  28
ENDBRANCH  26  27
ENDBRANCH  25  26
ENDBRANCH   5  20
TORSDOF 5
