REMARK  Name = ZINC66755375
REMARK  10 active torsions:
REMARK  status: ('A' for Active; 'I' for Inactive)
REMARK    1  A    between atoms: C_1  and  C_2
REMARK    2  A    between atoms: C_5  and  C_7
REMARK    3  A    between atoms: C_8  and  C_9
REMARK    4  A    between atoms: N_11  and  C_12
REMARK    5  A    between atoms: C_12  and  C_14
REMARK    6  A    between atoms: C_12  and  C_15
REMARK    7  A    between atoms: C_19  and  S_21
REMARK    8  A    between atoms: S_21  and  N_24
REMARK    9  A    between atoms: N_24  and  C_25
REMARK   10  A    between atoms: N_24  and  C_26
REMARK                            x       y       z     vdW  Elec       q    Type
REMARK                         _______ _______ _______ _____ _____    ______ ____
ROOT
ATOM      1  C   UNL     1       6.104  -5.019  -0.052  0.00  0.00    +0.100 C 
ATOM      2  C   UNL     1       6.318  -5.489  -1.492  0.00  0.00    +0.033 C 
ENDROOT
BRANCH   1   3
ATOM      3  C   UNL     1       7.426  -4.611   0.545  0.00  0.00    -0.026 A 
ATOM      4  C   UNL     1       7.958  -3.367   0.260  0.00  0.00    +0.005 A 
ATOM      5  C   UNL     1       9.171  -2.992   0.807  0.00  0.00    +0.002 A 
ATOM      6  C   UNL     1       9.852  -3.861   1.639  0.00  0.00    +0.028 A 
ATOM      7  C   UNL     1       9.320  -5.104   1.925  0.00  0.00    +0.106 A 
ATOM      8  C   UNL     1       8.105  -5.478   1.381  0.00  0.00    +0.034 A 
BRANCH   7   9
ATOM      9  S   UNL     1      10.188  -6.212   2.985  0.00  0.00    +0.060 S 
ATOM     10  O   UNL     1       9.742  -7.521   2.658  0.00  0.00    -0.153 OA
ATOM     11  O   UNL     1      11.558  -5.838   2.929  0.00  0.00    -0.153 OA
BRANCH   9  12
ATOM     12  N   UNL     1       9.678  -5.910   4.531  0.00  0.00    -0.183 NA
ATOM     13  C   UNL     1       8.527  -6.634   5.077  0.00  0.00    +0.131 C 
ATOM     14  C   UNL     1      10.377  -4.920   5.353  0.00  0.00    +0.131 C 
ENDBRANCH   9  12
ENDBRANCH   7   9
ENDBRANCH   1   3
BRANCH   1  17
ATOM     15  C   UNL     1       3.857  -4.077  -0.037  0.00  0.00    +0.237 C 
ATOM     16  O   UNL     1       3.413  -5.211  -0.040  0.00  0.00    -0.271 OA
ATOM     17  N   UNL     1       5.190  -3.875  -0.042  0.00  0.00    -0.305 N 
ATOM     18  H   UNL     1       5.543  -2.972  -0.039  0.00  0.00    +0.150 HD
BRANCH  15  20
ATOM     19  C   UNL     1       1.633  -3.175  -0.022  0.00  0.00    +0.051 C 
ATOM     20  C   UNL     1       2.973  -2.971  -0.027  0.00  0.00    +0.071 C 
BRANCH  19  25
ATOM     21  C   UNL     1      -0.018   1.503   0.010  0.00  0.00    +0.086 C 
ATOM     22  C   UNL     1       0.002  -0.004   0.002  0.00  0.00    +0.103 A 
ATOM     23  C   UNL     1      -1.088  -0.803   0.003  0.00  0.00    +0.045 A 
ATOM     24  C   UNL     1      -0.630  -2.130  -0.007  0.00  0.00    +0.049 A 
ATOM     25  C   UNL     1       0.749  -2.069  -0.013  0.00  0.00    +0.128 A 
ATOM     26  O   UNL     1       1.104  -0.767  -0.013  0.00  0.00    -0.461 OA
ENDBRANCH  19  25
ENDBRANCH  15  20
ENDBRANCH   1  17
TORSDOF 6
