REMARK  Name = ZINC31046698
REMARK  12 active torsions:
REMARK  status: ('A' for Active; 'I' for Inactive)
REMARK    1  A    between atoms: C_1  and  C_2
REMARK    2  A    between atoms: C_2  and  C_3
REMARK    3  A    between atoms: C_2  and  C_4
REMARK    4  A    between atoms: C_4  and  C_5
REMARK    5  A    between atoms: C_5  and  C_7
REMARK    6  A    between atoms: C_5  and  N_15
REMARK    7  A    between atoms: C_10  and  O_13
REMARK    8  A    between atoms: O_13  and  C_14
REMARK    9  A    between atoms: C_16  and  C_18
REMARK   10  A    between atoms: N_23  and  C_25
REMARK   11  A    between atoms: C_25  and  C_26
REMARK   12  A    between atoms: C_28  and  C_31
REMARK                            x       y       z     vdW  Elec       q    Type
REMARK                         _______ _______ _______ _____ _____    ______ ____
ROOT
ATOM      1  C   UNL     1       0.002  -0.004   0.002  0.00  0.00    +0.058 C 
ATOM      2  C   UNL     1       0.761  -0.506   1.233  0.00  0.00    +0.009 C 
ATOM      3  C   UNL     1       2.177   0.078   1.224  0.00  0.00    -0.018 C 
ATOM      4  C   UNL     1       2.093   1.605   1.197  0.00  0.00    -0.078 C 
ATOM      5  N   UNL     1       1.359   2.036   0.000  0.00  0.00    +0.386 N 
ATOM      6  C   UNL     1      -0.019   1.526   0.010  0.00  0.00    -0.065 C 
ATOM      7  H   UNL     1       1.867   1.609  -0.877  0.00  0.00    -0.081 HD
ENDROOT
BRANCH   1   9
ATOM      8  N   UNL     1      -1.639  -1.855   0.033  0.00  0.00    -0.308 N 
ATOM      9  C   UNL     1      -1.411  -0.527   0.035  0.00  0.00    +0.215 C 
ATOM     10  O   UNL     1      -2.344   0.248   0.062  0.00  0.00    -0.276 OA
ATOM     11  H   UNL     1      -0.793  -2.558   0.009  0.00  0.00    +0.149 HD
BRANCH   8  12
ATOM     12  C   UNL     1      -3.012  -2.363   0.065  0.00  0.00    +0.103 C 
BRANCH  12  13
ATOM     13  C   UNL     1      -3.052  -3.742  -0.542  0.00  0.00    -0.027 A 
ATOM     14  C   UNL     1      -2.033  -4.640  -0.283  0.00  0.00    +0.009 A 
ATOM     15  C   UNL     1      -2.070  -5.906  -0.833  0.00  0.00    +0.046 A 
ATOM     16  C   UNL     1      -3.125  -6.273  -1.656  0.00  0.00    +0.120 A 
ATOM     17  C   UNL     1      -4.144  -5.369  -1.919  0.00  0.00    +0.046 A 
ATOM     18  C   UNL     1      -4.105  -4.105  -1.361  0.00  0.00    +0.009 A 
BRANCH  16  19
ATOM     19  O   UNL     1      -3.161  -7.517  -2.203  0.00  0.00    -0.495 OA
ATOM     20  C   UNL     1      -2.079  -8.395  -1.888  0.00  0.00    +0.277 C 
ENDBRANCH  16  19
ENDBRANCH  12  13
BRANCH  12  21
ATOM     21  C   UNL     1      -3.498  -2.429   1.514  0.00  0.00    +0.030 C 
BRANCH  21  23
ATOM     22  C   UNL     1      -4.646  -0.216   1.342  0.00  0.00    +0.007 C 
ATOM     23  C   UNL     1      -3.577  -1.014   2.091  0.00  0.00    -0.015 C 
ATOM     24  C   UNL     1      -3.942  -1.088   3.575  0.00  0.00    +0.007 C 
ENDBRANCH  21  23
ENDBRANCH  12  21
ENDBRANCH   8  12
ENDBRANCH   1   9
BRANCH   5  25
ATOM     25  C   UNL     1       1.378   3.499  -0.132  0.00  0.00    +0.022 C 
BRANCH  25  26
ATOM     26  C   UNL     1       2.776   4.006   0.106  0.00  0.00    +0.211 A 
ATOM     27  N   UNL     1       3.710   4.168  -0.798  0.00  0.00    -0.193 NA
ATOM     28  C   UNL     1       4.785   4.641  -0.129  0.00  0.00    +0.202 A 
ATOM     29  N   UNL     1       4.448   4.731   1.131  0.00  0.00    -0.056 NA
ATOM     30  O   UNL     1       3.300   4.371   1.281  0.00  0.00    -0.340 OA
BRANCH  28  31
ATOM     31  C   UNL     1       6.104   4.989  -0.715  0.00  0.00    +0.023 A 
ATOM     32  C   UNL     1       6.323   4.837  -2.083  0.00  0.00    +0.013 A 
ATOM     33  C   UNL     1       7.549   5.168  -2.623  0.00  0.00    +0.021 A 
ATOM     34  C   UNL     1       8.564   5.639  -1.808  0.00  0.00    +0.041 A 
ATOM     35  C   UNL     1       8.352   5.786  -0.447  0.00  0.00    +0.021 A 
ATOM     36  C   UNL     1       7.128   5.464   0.102  0.00  0.00    +0.013 A 
ATOM     37 CL   UNL     1      10.106   6.047  -2.493  0.00  0.00    -0.084 Cl
ENDBRANCH  28  31
ENDBRANCH  25  26
ENDBRANCH   5  25
TORSDOF 9
