REMARK  Name = ZINC13501190
REMARK  11 active torsions:
REMARK  status: ('A' for Active; 'I' for Inactive)
REMARK    1  A    between atoms: C_1  and  C_2
REMARK    2  A    between atoms: C_2  and  C_3
REMARK    3  A    between atoms: C_3  and  C_5
REMARK    4  A    between atoms: C_3  and  N_73
REMARK    5  A    between atoms: N_9  and  C_10
REMARK    6  A    between atoms: C_15  and  C_16
REMARK    7  A    between atoms: C_15  and  N_73
REMARK    8  A    between atoms: C_20  and  O_28
REMARK    9  A    between atoms: O_28  and  C_29
REMARK   10  A    between atoms: C_29  and  C_30
REMARK   11  A    between atoms: C_31  and  N_73
REMARK                            x       y       z     vdW  Elec       q    Type
REMARK                         _______ _______ _______ _____ _____    ______ ____
ROOT
ATOM      1  N   UNL     1       3.198  -2.182  -1.326  0.00  0.00    +0.391 N 
ATOM      2  H   UNL     1       4.172  -1.976  -1.075  0.00  0.00    -0.080 HD
ENDROOT
BRANCH   1   3
ATOM      3  C   UNL     1       2.926  -1.644  -2.676  0.00  0.00    -0.067 C 
ATOM      4  C   UNL     1       1.544  -2.086  -3.162  0.00  0.00    -0.015 C 
ATOM      5  C   UNL     1       1.290  -1.519  -4.560  0.00  0.00    -0.002 C 
ATOM      6  C   UNL     1       2.360  -2.039  -5.523  0.00  0.00    -0.000 C 
ATOM      7  C   UNL     1       3.741  -1.598  -5.037  0.00  0.00    -0.002 C 
ATOM      8  C   UNL     1       3.996  -2.164  -3.639  0.00  0.00    -0.015 C 
ENDBRANCH   1   3
BRANCH   1   9
ATOM      9  C   UNL     1       2.302  -1.543  -0.339  0.00  0.00    +0.003 C 
BRANCH   9  10
ATOM     10  C   UNL     1       2.221  -0.066  -0.624  0.00  0.00    +0.138 A 
ATOM     11  N   UNL     1       3.220   0.731  -0.917  0.00  0.00    -0.115 NA
ATOM     12  N   UNL     1       2.746   1.916  -1.091  0.00  0.00    -0.023 NA
ATOM     13  N   UNL     1       1.471   1.897  -0.916  0.00  0.00    -0.044 NA
ATOM     14  N   UNL     1       1.109   0.692  -0.627  0.00  0.00    -0.228 N 
BRANCH  14  15
ATOM     15  C   UNL     1      -0.256   0.236  -0.354  0.00  0.00    +0.111 C 
ATOM     16  C   UNL     1      -1.169   0.549  -1.557  0.00  0.00    +0.027 C 
ATOM     17  C   UNL     1      -2.521   0.949  -0.913  0.00  0.00    +0.002 C 
ATOM     18  C   UNL     1      -2.081   1.752   0.337  0.00  0.00    +0.002 C 
ATOM     19  C   UNL     1      -0.836   1.000   0.850  0.00  0.00    +0.027 C 
ENDBRANCH  14  15
ENDBRANCH   9  10
BRANCH   9  21
ATOM     20  C   UNL     1       1.945  -1.142   2.101  0.00  0.00    +0.002 C 
ATOM     21  C   UNL     1       2.880  -1.762   1.061  0.00  0.00    -0.011 C 
ENDBRANCH   9  21
ENDBRANCH   1   9
BRANCH   1  22
ATOM     22  C   UNL     1       2.998  -3.646  -1.316  0.00  0.00    -0.036 C 
BRANCH  22  23
ATOM     23  C   UNL     1       3.748  -4.227  -0.145  0.00  0.00    +0.001 A 
ATOM     24  C   UNL     1       3.067  -4.824   0.864  0.00  0.00    +0.017 A 
ATOM     25  C   UNL     1       3.824  -5.383   1.985  0.00  0.00    +0.002 A 
ATOM     26  C   UNL     1       3.175  -6.015   3.051  0.00  0.00    +0.055 A 
ATOM     27  C   UNL     1       3.920  -6.527   4.094  0.00  0.00    +0.121 A 
ATOM     28  C   UNL     1       5.308  -6.416   4.089  0.00  0.00    +0.047 A 
ATOM     29  C   UNL     1       5.958  -5.795   3.045  0.00  0.00    +0.030 A 
ATOM     30  C   UNL     1       5.227  -5.272   1.984  0.00  0.00    +0.049 A 
ATOM     31  N   UNL     1       5.860  -4.648   0.928  0.00  0.00    -0.322 N 
ATOM     32  H   UNL     1       6.827  -4.572   0.928  0.00  0.00    +0.169 HD
ATOM     33  C   UNL     1       5.156  -4.143  -0.100  0.00  0.00    +0.251 A 
ATOM     34  O   UNL     1       5.748  -3.598  -1.015  0.00  0.00    -0.268 OA
BRANCH  27  35
ATOM     35  O   UNL     1       3.295  -7.143   5.133  0.00  0.00    -0.492 OA
BRANCH  35  36
ATOM     36  C   UNL     1       4.124  -7.651   6.180  0.00  0.00    +0.225 C 
ATOM     37  C   UNL     1       3.249  -8.304   7.252  0.00  0.00    +0.048 C 
ENDBRANCH  35  36
ENDBRANCH  27  35
ENDBRANCH  22  23
ENDBRANCH   1  22
TORSDOF 9
