REMARK  Name = ZINC45047477
REMARK  5 active torsions:
REMARK  status: ('A' for Active; 'I' for Inactive)
REMARK    1  A    between atoms: C_1  and  C_2
REMARK    2  A    between atoms: C_7  and  C_9
REMARK    3  A    between atoms: C_7  and  N_12
REMARK    4  A    between atoms: N_15  and  C_16
REMARK    5  A    between atoms: C_16  and  C_22
REMARK                            x       y       z     vdW  Elec       q    Type
REMARK                         _______ _______ _______ _____ _____    ______ ____
ROOT
ATOM      1  N   UNL     1       1.940   1.480   1.250  0.00  0.00    -0.284 N 
ATOM      2  C   UNL     1       3.078   2.171   1.040  0.00  0.00    +0.301 C 
ATOM      3  O   UNL     1       4.122   1.578   0.845  0.00  0.00    -0.253 OA
ATOM      4  N   UNL     1       3.060   3.519   1.048  0.00  0.00    -0.294 N 
ATOM      5  H   UNL     1       1.108   1.953   1.407  0.00  0.00    +0.151 HD
ATOM      6  H   UNL     1       2.228   3.992   1.204  0.00  0.00    +0.151 HD
ENDROOT
BRANCH   1  12
ATOM      7  C   UNL     1       2.331   1.537   3.718  0.00  0.00    +0.007 C 
ATOM      8  C   UNL     1       2.352   0.007   3.710  0.00  0.00    -0.012 C 
ATOM      9  C   UNL     1       0.934  -0.523   3.933  0.00  0.00    +0.003 C 
ATOM     10  C   UNL     1       0.019  -0.019   2.815  0.00  0.00    +0.003 C 
ATOM     11  C   UNL     1       0.542  -0.515   1.466  0.00  0.00    +0.037 C 
ATOM     12  C   UNL     1       1.960   0.016   1.242  0.00  0.00    +0.137 C 
ATOM     13  C   UNL     1       2.875  -0.488   2.360  0.00  0.00    +0.040 C 
BRANCH  12  14
ATOM     14  C   UNL     1       2.475  -0.472  -0.087  0.00  0.00    +0.379 C 
ATOM     15  O   UNL     1       2.796   0.329  -0.948  0.00  0.00    -0.244 OA
ATOM     16  O   UNL     1       2.571  -1.669  -0.302  0.00  0.00    -0.244 OA
ENDBRANCH  12  14
ENDBRANCH   1  12
BRANCH   4  17
ATOM     17  C   UNL     1       4.297   4.269   0.820  0.00  0.00    +0.033 C 
ATOM     18  C   UNL     1       5.319   3.908   1.899  0.00  0.00    +0.025 C 
ATOM     19  C   UNL     1       4.754   4.262   3.276  0.00  0.00    +0.002 C 
ATOM     20  C   UNL     1       4.459   5.762   3.335  0.00  0.00    +0.000 C 
ATOM     21  C   UNL     1       3.437   6.124   2.256  0.00  0.00    +0.002 C 
ATOM     22  C   UNL     1       4.002   5.769   0.879  0.00  0.00    +0.025 C 
ATOM     23  C   UNL     1       4.862   3.915  -0.557  0.00  0.00    +0.031 C 
ENDBRANCH   4  17
TORSDOF 3
