REMARK  Name = ZINC51095182
REMARK  5 active torsions:
REMARK  status: ('A' for Active; 'I' for Inactive)
REMARK    1  A    between atoms: C_1  and  C_2
REMARK    2  A    between atoms: C_2  and  C_4
REMARK    3  A    between atoms: C_2  and  N_11
REMARK    4  A    between atoms: C_12  and  C_14
REMARK    5  A    between atoms: N_20  and  N_21
REMARK                            x       y       z     vdW  Elec       q    Type
REMARK                         _______ _______ _______ _____ _____    ______ ____
ROOT
ATOM      1  N   UNL     1       0.688  -0.476  -1.203  0.00  0.00    -0.305 N 
ATOM      2  C   UNL     1       0.006  -0.608  -2.358  0.00  0.00    +0.246 C 
ATOM      3  O   UNL     1      -1.178  -0.335  -2.400  0.00  0.00    -0.270 OA
ATOM      4  H   UNL     1       1.632  -0.695  -1.170  0.00  0.00    +0.150 HD
ENDROOT
BRANCH   2   5
ATOM      5  C   UNL     1       0.697  -1.084  -3.572  0.00  0.00    +0.055 A 
ATOM      6  C   UNL     1      -0.002  -1.219  -4.782  0.00  0.00    +0.018 A 
ATOM      7  C   UNL     1       0.679  -1.664  -5.883  0.00  0.00    +0.045 A 
ATOM      8  C   UNL     1       2.035  -1.967  -5.772  0.00  0.00    +0.132 A 
ATOM      9  N   UNL     1       2.671  -1.831  -4.617  0.00  0.00    -0.239 NA
ATOM     10  C   UNL     1       2.055  -1.401  -3.536  0.00  0.00    +0.126 A 
ATOM     11  N   UNL     1       2.726  -2.418  -6.884  0.00  0.00    -0.268 N 
ATOM     12  H   UNL     1       2.267  -2.520  -7.732  0.00  0.00    +0.167 HD
BRANCH  11  13
ATOM     13  N   UNL     1       4.055  -2.718  -6.786  0.00  0.00    -0.255 NA
ATOM     14  H   UNL     1       4.219  -3.403  -6.064  0.00  0.00    +0.140 HD
ATOM     15  H   UNL     1       4.421  -3.031  -7.672  0.00  0.00    +0.140 HD
ENDBRANCH  11  13
ENDBRANCH   2   5
BRANCH   1  17
ATOM     16  C   UNL     1      -0.019   1.526   0.010  0.00  0.00    +0.033 C 
ATOM     17  C   UNL     1       0.002  -0.004   0.002  0.00  0.00    +0.100 C 
BRANCH  17  18
ATOM     18  C   UNL     1       0.731  -0.503   1.223  0.00  0.00    -0.026 A 
ATOM     19  C   UNL     1       2.113  -0.514   1.247  0.00  0.00    +0.005 A 
ATOM     20  C   UNL     1       2.782  -0.971   2.366  0.00  0.00    +0.001 A 
ATOM     21  C   UNL     1       2.070  -1.419   3.463  0.00  0.00    +0.015 A 
ATOM     22  C   UNL     1       0.687  -1.409   3.440  0.00  0.00    +0.018 A 
ATOM     23  C   UNL     1       0.018  -0.945   2.321  0.00  0.00    +0.020 A 
ATOM     24 BR   UNL     1      -0.289  -2.021   4.939  0.00  0.00    -0.050 Br
ENDBRANCH  17  18
ENDBRANCH   1  17
TORSDOF 4
