REMARK  Name = ZINC40558350
REMARK  2 active torsions:
REMARK  status: ('A' for Active; 'I' for Inactive)
REMARK    1  A    between atoms: C_3  and  C_18
REMARK    2  A    between atoms: C_13  and  C_15
REMARK                            x       y       z     vdW  Elec       q    Type
REMARK                         _______ _______ _______ _____ _____    ______ ____
ROOT
ATOM      1  C   UNL     1      -0.056   1.759   0.633  0.00  0.00    +0.021 C 
ATOM      2  C   UNL     1       1.420   1.961   0.197  0.00  0.00    +0.033 C 
ATOM      3  C   UNL     1       2.126   0.720   0.781  0.00  0.00    +0.163 C 
ATOM      4  N   UNL     1       1.098  -0.312   0.985  0.00  0.00    -0.274 N 
ATOM      5  C   UNL     1      -0.201   0.220   0.534  0.00  0.00    +0.110 C 
ATOM      6  C   UNL     1       1.308  -1.540   1.499  0.00  0.00    +0.306 C 
ATOM      7  O   UNL     1       2.393  -1.824   1.970  0.00  0.00    -0.252 OA
ATOM      8  N   UNL     1       0.317  -2.453   1.491  0.00  0.00    -0.272 N 
ATOM      9  C   UNL     1      -0.938  -2.352   0.723  0.00  0.00    +0.110 C 
ATOM     10  C   UNL     1      -1.944  -3.247   1.488  0.00  0.00    +0.021 C 
ATOM     11  C   UNL     1      -1.034  -4.417   1.947  0.00  0.00    +0.036 C 
ATOM     12  C   UNL     1       0.310  -3.717   2.241  0.00  0.00    +0.190 C 
ENDROOT
BRANCH   3  13
ATOM     13  C   UNL     1       3.171   0.222  -0.184  0.00  0.00    +0.231 C 
ATOM     14  O   UNL     1       3.081  -0.892  -0.653  0.00  0.00    -0.274 OA
ATOM     15  N   UNL     1       4.204   1.016  -0.526  0.00  0.00    -0.328 N 
ATOM     16  H   UNL     1       4.276   1.908  -0.151  0.00  0.00    +0.145 HD
ATOM     17  H   UNL     1       4.877   0.697  -1.148  0.00  0.00    +0.145 HD
ENDBRANCH   3  13
BRANCH  12  18
ATOM     18  C   UNL     1       1.454  -4.588   1.788  0.00  0.00    +0.376 C 
ATOM     19  O   UNL     1       1.734  -5.598   2.410  0.00  0.00    -0.244 OA
ATOM     20  O   UNL     1       2.099  -4.281   0.800  0.00  0.00    -0.244 OA
ENDBRANCH  12  18
TORSDOF 2
