REMARK  Name = ZINC09391495
REMARK  16 active torsions:
REMARK  status: ('A' for Active; 'I' for Inactive)
REMARK    1  A    between atoms: C_1  and  C_2
REMARK    2  A    between atoms: C_2  and  C_3
REMARK    3  A    between atoms: C_3  and  C_4
REMARK    4  A    between atoms: C_4  and  N_5
REMARK    5  A    between atoms: N_5  and  C_6
REMARK    6  A    between atoms: N_5  and  S_7
REMARK    7  A    between atoms: S_7  and  C_10
REMARK    8  A    between atoms: C_13  and  C_16
REMARK    9  A    between atoms: N_18  and  C_19
REMARK   10  A    between atoms: C_20  and  C_31
REMARK   11  A    between atoms: C_24  and  C_29
REMARK   12  A    between atoms: C_24  and  C_30
REMARK   13  A    between atoms: C_25  and  C_27
REMARK   14  A    between atoms: C_25  and  C_28
REMARK   15  A    between atoms: C_31  and  O_33
REMARK   16  A    between atoms: O_33  and  C_34
REMARK                            x       y       z     vdW  Elec       q    Type
REMARK                         _______ _______ _______ _____ _____    ______ ____
ROOT
ATOM      1  C   UNL     1      -3.120   3.066   4.884  0.00  0.00    +0.249 C 
ATOM      2  O   UNL     1      -3.929   2.304   5.377  0.00  0.00    -0.270 OA
ATOM      3  N   UNL     1      -2.920   4.281   5.431  0.00  0.00    -0.275 N 
ATOM      4  H   UNL     1      -2.275   4.890   5.039  0.00  0.00    +0.156 HD
ENDROOT
BRANCH   3   5
ATOM      5  C   UNL     1      -3.635   4.662   6.554  0.00  0.00    +0.086 A 
ATOM      6  C   UNL     1      -3.568   5.863   7.255  0.00  0.00    +0.091 A 
ATOM      7  C   UNL     1      -4.436   6.010   8.404  0.00  0.00    -0.024 A 
ATOM      8  C   UNL     1      -5.222   4.945   8.682  0.00  0.00    -0.016 A 
ATOM      9  S   UNL     1      -4.828   3.759   7.429  0.00  0.00    -0.079 S 
ATOM     10  C   UNL     1      -6.192   4.826   9.813  0.00  0.00    -0.041 C 
ATOM     11  C   UNL     1      -5.974   7.313   9.821  0.00  0.00    -0.069 C 
ATOM     12  C   UNL     1      -4.535   7.240   9.296  0.00  0.00    +0.024 C 
ATOM     13  C   UNL     1      -6.922   7.612   8.656  0.00  0.00    -0.010 C 
ATOM     14  C   UNL     1      -6.056   8.489  10.812  0.00  0.00    -0.010 C 
ATOM     15  C   UNL     1      -7.540   4.324   9.277  0.00  0.00    -0.005 C 
ATOM     16  C   UNL     1      -5.654   3.776  10.804  0.00  0.00    -0.005 C 
ATOM     17  N   UNL     1      -6.386   6.097  10.568  0.00  0.00    +0.389 N 
ATOM     18  H   UNL     1      -5.833   6.046  11.432  0.00  0.00    -0.084 HD
ATOM     19  H   UNL     1      -7.381   6.184  10.803  0.00  0.00    -0.084 HD
BRANCH   6  20
ATOM     20  C   UNL     1      -2.650   6.925   6.838  0.00  0.00    +0.342 C 
ATOM     21  O   UNL     1      -3.018   7.770   6.044  0.00  0.00    -0.245 OA
BRANCH  20  22
ATOM     22  O   UNL     1      -1.396   6.965   7.334  0.00  0.00    -0.464 OA
ATOM     23  C   UNL     1      -0.541   8.046   6.876  0.00  0.00    +0.280 C 
ENDBRANCH  20  22
ENDBRANCH   6  20
ENDBRANCH   3   5
BRANCH   1  27
ATOM     24  C   UNL     1      -0.927   1.900   1.439  0.00  0.00    +0.106 A 
ATOM     25  C   UNL     1      -0.715   3.147   2.002  0.00  0.00    +0.029 A 
ATOM     26  C   UNL     1      -1.427   3.534   3.118  0.00  0.00    +0.015 A 
ATOM     27  C   UNL     1      -2.357   2.660   3.686  0.00  0.00    +0.037 A 
ATOM     28  C   UNL     1      -2.562   1.402   3.117  0.00  0.00    +0.015 A 
ATOM     29  C   UNL     1      -1.846   1.030   1.998  0.00  0.00    +0.029 A 
BRANCH  24  30
ATOM     30  S   UNL     1      -0.017   1.417   0.010  0.00  0.00    +0.061 S 
ATOM     31  O   UNL     1       0.002  -0.004   0.002  0.00  0.00    -0.153 OA
ATOM     32  O   UNL     1       1.172   2.195   0.003  0.00  0.00    -0.153 OA
BRANCH  30  33
ATOM     33  N   UNL     1      -0.897   1.885  -1.312  0.00  0.00    -0.180 NA
ATOM     34  C   UNL     1      -0.691   3.213  -1.897  0.00  0.00    +0.131 C 
BRANCH  33  35
ATOM     35  C   UNL     1      -1.883   0.973  -1.897  0.00  0.00    +0.109 C 
BRANCH  35  36
ATOM     36  C   UNL     1      -3.267   1.280  -1.323  0.00  0.00    +0.017 C 
BRANCH  36  38
ATOM     37  C   UNL     1      -5.680   0.634  -1.359  0.00  0.00    +0.004 C 
ATOM     38  C   UNL     1      -4.296   0.327  -1.934  0.00  0.00    -0.002 C 
ENDBRANCH  36  38
ENDBRANCH  35  36
ENDBRANCH  33  35
ENDBRANCH  30  33
ENDBRANCH  24  30
ENDBRANCH   1  27
TORSDOF 9
