REMARK  Name = ZINC41246463
REMARK  7 active torsions:
REMARK  status: ('A' for Active; 'I' for Inactive)
REMARK    1  A    between atoms: C_1  and  C_2
REMARK    2  A    between atoms: C_2  and  C_3
REMARK    3  A    between atoms: C_3  and  C_4
REMARK    4  A    between atoms: C_4  and  S_5
REMARK    5  A    between atoms: S_5  and  N_8
REMARK    6  A    between atoms: C_14  and  C_16
REMARK    7  A    between atoms: C_16  and  C_17
REMARK                            x       y       z     vdW  Elec       q    Type
REMARK                         _______ _______ _______ _____ _____    ______ ____
ROOT
ATOM      1  N   UNL     1       1.595  -4.293   2.580  0.00  0.00    -0.178 NA
ATOM      2  C   UNL     1       0.483  -5.056   3.162  0.00  0.00    +0.128 C 
ATOM      3  C   UNL     1      -0.145  -5.923   2.063  0.00  0.00    +0.125 C 
ATOM      4  N   UNL     1       0.927  -6.650   1.369  0.00  0.00    -0.299 N 
ATOM      5  C   UNL     1       2.040  -5.887   0.787  0.00  0.00    +0.125 C 
ATOM      6  C   UNL     1       2.664  -5.020   1.881  0.00  0.00    +0.128 C 
ATOM      7  C   UNL     1       0.891  -7.994   1.269  0.00  0.00    +0.220 C 
ATOM      8  O   UNL     1      -0.033  -8.613   1.754  0.00  0.00    -0.275 OA
ENDROOT
BRANCH   1   9
ATOM      9  S   UNL     1       1.640  -2.642   2.703  0.00  0.00    +0.032 S 
ATOM     10  O   UNL     1       3.019  -2.309   2.619  0.00  0.00    -0.158 OA
ATOM     11  O   UNL     1       0.893  -2.345   3.874  0.00  0.00    -0.158 OA
BRANCH   9  12
ATOM     12  C   UNL     1       0.763  -2.041   1.233  0.00  0.00    +0.185 C 
BRANCH  12  13
ATOM     13  C   UNL     1       0.742  -0.511   1.242  0.00  0.00    +0.024 C 
BRANCH  13  15
ATOM     14  C   UNL     1      -0.019   1.526   0.010  0.00  0.00    +0.004 C 
ATOM     15  C   UNL     1       0.002  -0.004   0.002  0.00  0.00    -0.002 C 
ENDBRANCH  13  15
ENDBRANCH  12  13
ENDBRANCH   9  12
ENDBRANCH   1   9
BRANCH   7  16
ATOM     16  C   UNL     1       1.997  -8.727   0.555  0.00  0.00    +0.133 C 
BRANCH  16  17
ATOM     17  C   UNL     1       1.719 -10.207   0.584  0.00  0.00    -0.014 A 
ATOM     18  C   UNL     1       2.188 -11.091   1.480  0.00  0.00    +0.087 A 
ATOM     19  N   UNL     1       1.724 -12.344   1.187  0.00  0.00    -0.360 N 
ATOM     20  H   UNL     1       1.927 -13.146   1.692  0.00  0.00    +0.165 HD
ATOM     21  C   UNL     1       0.924 -12.297   0.067  0.00  0.00    +0.047 A 
ATOM     22  C   UNL     1       0.881 -10.955  -0.356  0.00  0.00    +0.003 A 
ATOM     23  C   UNL     1       0.131 -10.603  -1.480  0.00  0.00    +0.010 A 
ATOM     24  C   UNL     1      -0.561 -11.563  -2.162  0.00  0.00    +0.001 A 
ATOM     25  C   UNL     1      -0.525 -12.887  -1.747  0.00  0.00    +0.002 A 
ATOM     26  C   UNL     1       0.216 -13.259  -0.646  0.00  0.00    +0.026 A 
ENDBRANCH  16  17
ENDBRANCH   7  16
TORSDOF 6
