REMARK  Name = ZINC36359235
REMARK  7 active torsions:
REMARK  status: ('A' for Active; 'I' for Inactive)
REMARK    1  A    between atoms: C_8  and  O_9
REMARK    2  A    between atoms: C_10  and  N_12
REMARK    3  A    between atoms: C_13  and  C_15
REMARK    4  A    between atoms: N_17  and  C_18
REMARK    5  A    between atoms: C_18  and  C_19
REMARK    6  A    between atoms: C_19  and  C_20
REMARK    7  A    between atoms: C_23  and  O_26
REMARK                            x       y       z     vdW  Elec       q    Type
REMARK                         _______ _______ _______ _____ _____    ______ ____
ROOT
ATOM      1  N   UNL     1       1.205  -2.087  -0.020  0.00  0.00    -0.277 N 
ATOM      2  C   UNL     1       0.048  -2.768   0.089  0.00  0.00    +0.303 C 
ATOM      3  O   UNL     1      -1.009  -2.171   0.103  0.00  0.00    -0.265 OA
ATOM      4  H   UNL     1       2.044  -2.566  -0.112  0.00  0.00    +0.155 HD
ENDROOT
BRANCH   1  13
ATOM      5  C   UNL     1       0.154   1.381   0.639  0.00  0.00    +0.003 A 
ATOM      6  C   UNL     1       1.149   2.105   0.055  0.00  0.00    +0.012 A 
ATOM      7  C   UNL     1       2.213   1.449  -0.584  0.00  0.00    +0.025 A 
ATOM      8  C   UNL     1       2.241   0.033  -0.616  0.00  0.00    +0.007 A 
ATOM      9  C   UNL     1       3.305  -0.622  -1.256  0.00  0.00    +0.010 A 
ATOM     10  C   UNL     1       4.296   0.108  -1.839  0.00  0.00    +0.004 A 
ATOM     11  C   UNL     1       4.274   1.500  -1.811  0.00  0.00    +0.046 A 
ATOM     12  C   UNL     1       3.255   2.174  -1.198  0.00  0.00    +0.125 A 
ATOM     13  C   UNL     1       1.198  -0.693  -0.002  0.00  0.00    +0.042 A 
ATOM     14  C   UNL     1       0.171  -0.010   0.616  0.00  0.00    +0.024 A 
BRANCH  12  15
ATOM     15  O   UNL     1       3.247   3.531  -1.179  0.00  0.00    -0.506 OA
ATOM     16  H   UNL     1       3.696   3.917  -0.415  0.00  0.00    +0.292 HD
ENDBRANCH  12  15
ENDBRANCH   1  13
BRANCH   2  17
ATOM     17  C   UNL     1       0.066  -4.258   0.194  0.00  0.00    +0.299 C 
ATOM     18  O   UNL     1       1.122  -4.854   0.180  0.00  0.00    -0.265 OA
ATOM     19  N   UNL     1      -1.092  -4.939   0.303  0.00  0.00    -0.307 N 
ATOM     20  H   UNL     1      -1.937  -4.462   0.314  0.00  0.00    +0.149 HD
BRANCH  19  21
ATOM     21  C   UNL     1      -1.075  -6.400   0.406  0.00  0.00    +0.109 C 
BRANCH  21  22
ATOM     22  C   UNL     1      -2.509  -6.921   0.518  0.00  0.00    +0.054 C 
BRANCH  22  23
ATOM     23  C   UNL     1      -2.491  -8.424   0.624  0.00  0.00    -0.046 A 
ATOM     24  C   UNL     1      -2.541  -9.197  -0.522  0.00  0.00    +0.007 A 
ATOM     25  C   UNL     1      -2.525 -10.575  -0.428  0.00  0.00    +0.045 A 
ATOM     26  C   UNL     1      -2.459 -11.183   0.817  0.00  0.00    +0.117 A 
ATOM     27  C   UNL     1      -2.409 -10.406   1.965  0.00  0.00    +0.045 A 
ATOM     28  C   UNL     1      -2.420  -9.028   1.865  0.00  0.00    +0.007 A 
BRANCH  26  29
ATOM     29  O   UNL     1      -2.444 -12.539   0.912  0.00  0.00    -0.507 OA
ATOM     30  H   UNL     1      -1.558 -12.925   0.896  0.00  0.00    +0.292 HD
ENDBRANCH  26  29
ENDBRANCH  22  23
ENDBRANCH  21  22
ENDBRANCH  19  21
ENDBRANCH   2  17
TORSDOF 7
