REMARK  Name = ZINC35172513
REMARK  13 active torsions:
REMARK  status: ('A' for Active; 'I' for Inactive)
REMARK    1  A    between atoms: C_1  and  C_2
REMARK    2  A    between atoms: C_7  and  N_8
REMARK    3  A    between atoms: C_9  and  N_17
REMARK    4  A    between atoms: C_11  and  C_13
REMARK    5  A    between atoms: C_13  and  C_14
REMARK    6  A    between atoms: C_13  and  C_15
REMARK    7  A    between atoms: C_13  and  C_16
REMARK    8  A    between atoms: C_18  and  C_20
REMARK    9  A    between atoms: C_20  and  N_21
REMARK   10  A    between atoms: N_21  and  C_22
REMARK   11  A    between atoms: C_22  and  C_23
REMARK   12  A    between atoms: C_28  and  C_30
REMARK   13  A    between atoms: C_33  and  C_35
REMARK                            x       y       z     vdW  Elec       q    Type
REMARK                         _______ _______ _______ _____ _____    ______ ____
ROOT
ATOM      1  N   UNL     1       0.560  -1.706   3.937  0.00  0.00    -0.269 N 
ATOM      2  C   UNL     1       0.659  -2.058   5.234  0.00  0.00    +0.236 C 
ATOM      3  O   UNL     1       0.592  -1.210   6.099  0.00  0.00    -0.274 OA
ATOM      4  H   UNL     1       0.613  -2.384   3.245  0.00  0.00    +0.156 HD
ENDROOT
BRANCH   1   6
ATOM      5  N   UNL     1       0.146   0.115   2.338  0.00  0.00    -0.218 N 
ATOM      6  C   UNL     1       0.380  -0.368   3.589  0.00  0.00    +0.129 A 
ATOM      7  C   UNL     1       0.404   0.695   4.439  0.00  0.00    +0.069 A 
ATOM      8  C   UNL     1       0.181   1.852   3.686  0.00  0.00    +0.071 A 
ATOM      9  N   UNL     1       0.032   1.508   2.432  0.00  0.00    -0.169 NA
BRANCH   5  16
ATOM     10  C   UNL     1      -2.054   0.609   0.602  0.00  0.00    +0.046 C 
ATOM     11  C   UNL     1      -1.014  -0.436   0.291  0.00  0.00    -0.025 A 
ATOM     12  C   UNL     1      -1.108  -1.183  -0.868  0.00  0.00    +0.005 A 
ATOM     13  C   UNL     1      -0.154  -2.142  -1.153  0.00  0.00    +0.000 A 
ATOM     14  C   UNL     1       0.897  -2.357  -0.281  0.00  0.00    +0.002 A 
ATOM     15  C   UNL     1       0.997  -1.614   0.879  0.00  0.00    +0.028 A 
ATOM     16  C   UNL     1       0.044  -0.645   1.165  0.00  0.00    +0.070 A 
ENDBRANCH   5  16
BRANCH   8  17
ATOM     17  C   UNL     1       0.126   3.257   4.226  0.00  0.00    +0.006 C 
ATOM     18  C   UNL     1       1.543   3.736   4.549  0.00  0.00    +0.017 C 
ATOM     19  C   UNL     1      -0.499   4.182   3.179  0.00  0.00    +0.017 C 
ATOM     20  C   UNL     1      -0.723   3.282   5.499  0.00  0.00    +0.017 C 
ENDBRANCH   8  17
ENDBRANCH   1   6
BRANCH   2  21
ATOM     21  C   UNL     1       0.854  -3.504   5.610  0.00  0.00    +0.204 C 
BRANCH  21  22
ATOM     22  N   UNL     1       0.932  -3.624   7.068  0.00  0.00    -0.285 N 
ATOM     23  C   UNL     1       2.125  -3.536   7.689  0.00  0.00    +0.220 C 
ATOM     24  O   UNL     1       3.135  -3.358   7.040  0.00  0.00    -0.275 OA
BRANCH  23  25
ATOM     25  C   UNL     1       2.205  -3.659   9.188  0.00  0.00    +0.083 C 
ATOM     26  C   UNL     1       2.581  -2.405   9.981  0.00  0.00    +0.022 C 
ATOM     27  C   UNL     1       3.589  -3.548   9.833  0.00  0.00    +0.032 C 
BRANCH  27  28
ATOM     28  C   UNL     1       3.860  -4.398  11.048  0.00  0.00    -0.044 A 
ATOM     29  C   UNL     1       3.081  -4.253  12.181  0.00  0.00    +0.004 A 
ATOM     30  C   UNL     1       3.329  -5.032  13.295  0.00  0.00    +0.000 A 
ATOM     31  C   UNL     1       4.357  -5.957  13.277  0.00  0.00    +0.000 A 
ATOM     32  C   UNL     1       5.135  -6.103  12.144  0.00  0.00    +0.000 A 
ATOM     33  C   UNL     1       4.884  -5.326  11.028  0.00  0.00    +0.004 A 
ENDBRANCH  27  28
ENDBRANCH  23  25
BRANCH  22  34
ATOM     34  C   UNL     1      -0.287  -3.839   7.852  0.00  0.00    +0.182 C 
BRANCH  34  35
ATOM     35  C   UNL     1      -0.537  -5.318   7.996  0.00  0.00    +0.122 A 
ATOM     36  C   UNL     1      -0.081  -6.099   8.992  0.00  0.00    +0.046 A 
ATOM     37  C   UNL     1      -0.549  -7.408   8.733  0.00  0.00    +0.041 A 
ATOM     38  C   UNL     1      -1.264  -7.348   7.595  0.00  0.00    +0.195 A 
ATOM     39  O   UNL     1      -1.258  -6.078   7.156  0.00  0.00    -0.466 OA
ENDBRANCH  34  35
ENDBRANCH  22  34
ENDBRANCH  21  22
ENDBRANCH   2  21
TORSDOF 9
