REMARK  Name = ZINC00071812
REMARK  4 active torsions:
REMARK  status: ('A' for Active; 'I' for Inactive)
REMARK    1  A    between atoms: C_1  and  C_2
REMARK    2  A    between atoms: C_3  and  C_17
REMARK    3  A    between atoms: C_4  and  C_10
REMARK    4  A    between atoms: C_14  and  O_16
REMARK                            x       y       z     vdW  Elec       q    Type
REMARK                         _______ _______ _______ _____ _____    ______ ____
ROOT
ATOM      1  C   UNL     1       5.741   3.093   2.586  0.00  0.00    +0.061 C 
ATOM      2  C   UNL     1       5.151   2.299   1.450  0.00  0.00    +0.017 C 
ATOM      3  C   UNL     1       3.815   2.306   1.257  0.00  0.00    +0.056 C 
ATOM      4  C   UNL     1       3.264   1.494   0.103  0.00  0.00    +0.139 C 
ATOM      5  N   UNL     1       4.238   0.758  -0.720  0.00  0.00    -0.315 N 
ATOM      6  C   UNL     1       5.545   0.850  -0.402  0.00  0.00    +0.135 C 
ATOM      7  S   UNL     1       6.689  -0.001  -1.351  0.00  0.00    -0.019 S 
ATOM      8  N   UNL     1       5.977   1.583   0.631  0.00  0.00    -0.300 N 
ATOM      9  H   UNL     1       3.947   0.220  -1.473  0.00  0.00    +0.149 HD
ATOM     10  H   UNL     1       6.930   1.608   0.807  0.00  0.00    +0.154 HD
ENDROOT
BRANCH   3  11
ATOM     11  C   UNL     1       2.957   3.048   2.105  0.00  0.00    +0.249 C 
ATOM     12  O   UNL     1       2.558   4.145   1.758  0.00  0.00    -0.270 OA
ATOM     13  N   UNL     1       2.583   2.541   3.296  0.00  0.00    -0.267 N 
ATOM     14  C   UNL     1       1.654   3.219   4.082  0.00  0.00    +0.125 A 
ATOM     15  C   UNL     1       1.448   4.580   3.884  0.00  0.00    +0.044 A 
ATOM     16  C   UNL     1       0.518   5.241   4.667  0.00  0.00    +0.005 A 
ATOM     17  C   UNL     1      -0.168   4.517   5.634  0.00  0.00    +0.020 A 
ATOM     18  C   UNL     1       0.092   3.168   5.779  0.00  0.00    +0.113 A 
ATOM     19  N   UNL     1       0.981   2.564   5.014  0.00  0.00    -0.240 NA
ATOM     20  H   UNL     1       2.961   1.703   3.607  0.00  0.00    +0.157 HD
ENDBRANCH   3  11
BRANCH   4  21
ATOM     21  C   UNL     1       2.282   0.497   0.663  0.00  0.00    -0.019 A 
ATOM     22  C   UNL     1       2.740  -0.676   1.235  0.00  0.00    +0.006 A 
ATOM     23  C   UNL     1       1.842  -1.593   1.750  0.00  0.00    +0.004 A 
ATOM     24  C   UNL     1       0.485  -1.338   1.695  0.00  0.00    +0.045 A 
ATOM     25  C   UNL     1       0.024  -0.162   1.122  0.00  0.00    +0.117 A 
ATOM     26  C   UNL     1       0.927   0.756   0.606  0.00  0.00    +0.051 A 
BRANCH  25  27
ATOM     27  O   UNL     1      -1.311   0.088   1.062  0.00  0.00    -0.507 OA
ATOM     28  H   UNL     1      -1.658   0.559   1.832  0.00  0.00    +0.292 HD
ENDBRANCH  25  27
ENDBRANCH   4  21
TORSDOF 3
