REMARK  Name = ZINC35091489
REMARK  15 active torsions:
REMARK  status: ('A' for Active; 'I' for Inactive)
REMARK    1  A    between atoms: C_1  and  C_2
REMARK    2  A    between atoms: C_2  and  C_3
REMARK    3  A    between atoms: C_6  and  N_9
REMARK    4  A    between atoms: C_19  and  C_20
REMARK    5  A    between atoms: C_20  and  C_22
REMARK    6  A    between atoms: C_20  and  N_23
REMARK    7  A    between atoms: N_23  and  C_24
REMARK    8  A    between atoms: C_24  and  C_25
REMARK    9  A    between atoms: C_25  and  N_26
REMARK   10  A    between atoms: N_26  and  C_27
REMARK   11  A    between atoms: N_26  and  C_28
REMARK   12  A    between atoms: N_31  and  C_32
REMARK   13  A    between atoms: C_32  and  C_33
REMARK   14  A    between atoms: C_32  and  C_34
REMARK   15  A    between atoms: C_32  and  C_35
REMARK                            x       y       z     vdW  Elec       q    Type
REMARK                         _______ _______ _______ _____ _____    ______ ____
ROOT
ATOM      1  N   UNL     1       2.670  -1.736   4.509  0.00  0.00    -0.263 N 
ATOM      2  C   UNL     1       4.009  -1.919   4.435  0.00  0.00    +0.266 A 
ATOM      3  O   UNL     1       4.607  -1.794   3.382  0.00  0.00    -0.267 OA
ATOM      4  C   UNL     1       4.713  -2.272   5.676  0.00  0.00    +0.065 A 
ATOM      5  C   UNL     1       6.091  -2.481   5.708  0.00  0.00    +0.015 A 
ATOM      6  C   UNL     1       6.700  -2.809   6.899  0.00  0.00    +0.001 A 
ATOM      7  C   UNL     1       5.954  -2.934   8.063  0.00  0.00    +0.002 A 
ATOM      8  C   UNL     1       4.592  -2.733   8.053  0.00  0.00    +0.028 A 
ATOM      9  C   UNL     1       3.951  -2.398   6.859  0.00  0.00    +0.078 A 
ATOM     10  N   UNL     1       2.612  -2.190   6.804  0.00  0.00    -0.231 NA
ATOM     11  C   UNL     1       2.017  -1.873   5.694  0.00  0.00    +0.138 A 
ENDROOT
BRANCH   1  15
ATOM     12  C   UNL     1       0.530  -0.731   1.077  0.00  0.00    -0.047 A 
ATOM     13  C   UNL     1       0.308  -1.947   1.697  0.00  0.00    +0.005 A 
ATOM     14  C   UNL     1       1.016  -2.283   2.834  0.00  0.00    +0.026 A 
ATOM     15  C   UNL     1       1.951  -1.399   3.355  0.00  0.00    +0.051 A 
ATOM     16  C   UNL     1       2.171  -0.178   2.731  0.00  0.00    +0.026 A 
ATOM     17  C   UNL     1       1.464   0.150   1.590  0.00  0.00    +0.005 A 
BRANCH  12  19
ATOM     18  C   UNL     1       0.516  -0.853  -1.400  0.00  0.00    +0.009 C 
ATOM     19  C   UNL     1      -0.244  -0.367  -0.164  0.00  0.00    +0.032 C 
ENDBRANCH  12  19
ENDBRANCH   1  15
BRANCH  11  20
ATOM     20  C   UNL     1       0.526  -1.652   5.720  0.00  0.00    +0.141 C 
ATOM     21  C   UNL     1       0.208  -0.259   5.174  0.00  0.00    +0.036 C 
BRANCH  20  22
ATOM     22  N   UNL     1       0.040  -1.760   7.098  0.00  0.00    -0.278 N 
ATOM     23  C   UNL     1       0.590  -1.003   8.067  0.00  0.00    +0.303 C 
ATOM     24  O   UNL     1       0.236  -1.143   9.222  0.00  0.00    -0.253 OA
ATOM     25  N   UNL     1       1.531  -0.090   7.757  0.00  0.00    -0.294 N 
ATOM     26  H   UNL     1       1.778   0.057   6.831  0.00  0.00    +0.151 HD
BRANCH  25  27
ATOM     27  C   UNL     1       2.181   0.682   8.819  0.00  0.00    +0.028 C 
ATOM     28  C   UNL     1       2.894  -0.272   9.780  0.00  0.00    +0.031 C 
ATOM     29  C   UNL     1       3.202   1.641   8.202  0.00  0.00    +0.031 C 
ATOM     30  C   UNL     1       1.127   1.484   9.585  0.00  0.00    +0.031 C 
ENDBRANCH  25  27
BRANCH  22  31
ATOM     31  C   UNL     1      -1.044  -2.691   7.421  0.00  0.00    +0.091 C 
BRANCH  31  32
ATOM     32  C   UNL     1      -0.453  -4.052   7.794  0.00  0.00    -0.060 C 
BRANCH  32  33
ATOM     33  N   UNL     1      -1.539  -4.986   8.119  0.00  0.00    +0.377 N 
ATOM     34  C   UNL     1      -2.349  -5.230   6.918  0.00  0.00    -0.097 C 
ATOM     35  C   UNL     1      -0.970  -6.255   8.592  0.00  0.00    -0.097 C 
ATOM     36  H   UNL     1      -2.120  -4.588   8.841  0.00  0.00    -0.083 HD
ENDBRANCH  32  33
ENDBRANCH  31  32
ENDBRANCH  22  31
ENDBRANCH  20  22
ENDBRANCH  11  20
TORSDOF 8
