REMARK  Name = ZINC50693506
REMARK  3 active torsions:
REMARK  status: ('A' for Active; 'I' for Inactive)
REMARK    1  A    between atoms: C_2  and  C_9
REMARK    2  A    between atoms: C_6  and  N_7
REMARK    3  A    between atoms: N_11  and  C_12
REMARK                            x       y       z     vdW  Elec       q    Type
REMARK                         _______ _______ _______ _____ _____    ______ ____
ROOT
ATOM      1  C   UNL     1      -0.017   1.385   0.010  0.00  0.00    +0.056 A 
ATOM      2  C   UNL     1       1.197   2.078   0.002  0.00  0.00    +0.047 A 
ATOM      3  C   UNL     1       2.384   1.335  -0.013  0.00  0.00    +0.053 A 
ATOM      4  C   UNL     1       2.314  -0.044  -0.020  0.00  0.00    +0.132 A 
ATOM      5  N   UNL     1       1.149  -0.666  -0.013  0.00  0.00    -0.221 NA
ATOM      6  C   UNL     1       0.002  -0.004   0.002  0.00  0.00    +0.119 A 
ATOM      7 CL   UNL     1       3.780  -0.975  -0.040  0.00  0.00    -0.062 Cl
ENDROOT
BRANCH   6   8
ATOM      8  N   UNL     1      -1.197  -0.708   0.010  0.00  0.00    -0.343 N 
ATOM      9  H   UNL     1      -2.041  -0.229   0.021  0.00  0.00    +0.144 HD
ATOM     10  H   UNL     1      -1.190  -1.678   0.005  0.00  0.00    +0.144 HD
ENDBRANCH   6   8
BRANCH   2  11
ATOM     11  C   UNL     1       1.227   3.555   0.009  0.00  0.00    +0.280 C 
ATOM     12  O   UNL     1       0.070   4.255   0.023  0.00  0.00    -0.265 OA
ATOM     13  N   UNL     1       2.375   4.188   0.001  0.00  0.00    -0.181 NA
BRANCH  13  14
ATOM     14  C   UNL     1       2.403   5.547   0.008  0.00  0.00    +0.218 A 
ATOM     15  N   UNL     1       1.399   6.423   0.028  0.00  0.00    -0.122 NA
ATOM     16  N   UNL     1       1.673   7.657   0.030  0.00  0.00    -0.148 NA
ATOM     17  C   UNL     1       2.908   8.100   0.013  0.00  0.00    +0.183 A 
ATOM     18  S   UNL     1       3.796   6.667   0.001  0.00  0.00    -0.034 S 
ENDBRANCH  13  14
ENDBRANCH   2  11
TORSDOF 3
