REMARK  Name = ZINC41976917
REMARK  5 active torsions:
REMARK  status: ('A' for Active; 'I' for Inactive)
REMARK    1  A    between atoms: C_1  and  C_2
REMARK    2  A    between atoms: C_2  and  C_3
REMARK    3  A    between atoms: C_2  and  C_10
REMARK    4  A    between atoms: C_2  and  S_13
REMARK    5  A    between atoms: S_13  and  C_14
REMARK                            x       y       z     vdW  Elec       q    Type
REMARK                         _______ _______ _______ _____ _____    ______ ____
ROOT
ATOM      1  C   UNL     1      -0.059   1.509  -0.214  0.00  0.00    +0.040 C 
ATOM      2  C   UNL     1       0.002  -0.004   0.002  0.00  0.00    +0.148 C 
ENDROOT
BRANCH   2   3
ATOM      3  C   UNL     1       0.736  -0.299   1.285  0.00  0.00    -0.007 A 
ATOM      4  C   UNL     1       1.262   0.736   2.034  0.00  0.00    +0.006 A 
ATOM      5  C   UNL     1       1.935   0.466   3.211  0.00  0.00    +0.000 A 
ATOM      6  C   UNL     1       2.083  -0.841   3.639  0.00  0.00    +0.001 A 
ATOM      7  C   UNL     1       1.557  -1.877   2.890  0.00  0.00    +0.015 A 
ATOM      8  C   UNL     1       0.879  -1.606   1.715  0.00  0.00    +0.023 A 
ATOM      9 BR   UNL     1       0.154  -3.022   0.693  0.00  0.00    -0.050 Br
ENDBRANCH   2   3
BRANCH   2  10
ATOM     10  C   UNL     1      -1.398  -0.556   0.086  0.00  0.00    +0.376 C 
ATOM     11  O   UNL     1      -1.804  -1.321  -0.772  0.00  0.00    -0.244 OA
ATOM     12  O   UNL     1      -2.124  -0.238   1.012  0.00  0.00    -0.244 OA
ENDBRANCH   2  10
BRANCH   2  13
ATOM     13  S   UNL     1       0.875  -0.779  -1.387  0.00  0.00    -0.064 S 
BRANCH  13  14
ATOM     14  C   UNL     1      -0.094  -0.347  -2.793  0.00  0.00    +0.185 A 
ATOM     15  N   UNL     1       0.157  -0.704  -4.072  0.00  0.00    -0.254 N 
ATOM     16  H   UNL     1       0.898  -1.242  -4.391  0.00  0.00    +0.191 HD
ATOM     17  N   UNL     1      -0.870  -0.141  -4.847  0.00  0.00    -0.160 NA
ATOM     18  C   UNL     1      -1.658   0.503  -4.029  0.00  0.00    +0.245 A 
ATOM     19  N   UNL     1      -1.194   0.375  -2.785  0.00  0.00    -0.209 NA
ENDBRANCH  13  14
ENDBRANCH   2  13
TORSDOF 4
