REMARK  Name = ZINC16636638
REMARK  6 active torsions:
REMARK  status: ('A' for Active; 'I' for Inactive)
REMARK    1  A    between atoms: C_4  and  C_7
REMARK    2  A    between atoms: C_7  and  C_8
REMARK    3  A    between atoms: C_7  and  N_14
REMARK    4  A    between atoms: C_15  and  C_17
REMARK    5  A    between atoms: N_20  and  C_23
REMARK    6  A    between atoms: C_28  and  N_29
REMARK                            x       y       z     vdW  Elec       q    Type
REMARK                         _______ _______ _______ _____ _____    ______ ____
ROOT
ATOM      1  N   UNL     1       4.663  -0.027   0.843  0.00  0.00    -0.304 N 
ATOM      2  C   UNL     1       4.674  -0.302   2.162  0.00  0.00    +0.217 C 
ATOM      3  O   UNL     1       3.896  -1.113   2.619  0.00  0.00    -0.275 OA
ATOM      4  H   UNL     1       5.285   0.621   0.477  0.00  0.00    +0.150 HD
ENDROOT
BRANCH   2   5
ATOM      5  C   UNL     1       5.653   0.397   3.070  0.00  0.00    +0.078 C 
ATOM      6  C   UNL     1       7.082   0.085   2.618  0.00  0.00    +0.031 C 
ATOM      7  C   UNL     1       8.072   0.747   3.580  0.00  0.00    +0.106 C 
ATOM      8  N   UNL     1       7.847   0.243   4.940  0.00  0.00    -0.328 N 
ATOM      9  C   UNL     1       6.497   0.573   5.413  0.00  0.00    +0.106 C 
ATOM     10  C   UNL     1       5.460  -0.095   4.507  0.00  0.00    +0.031 C 
BRANCH   8  11
ATOM     11  C   UNL     1       8.818   0.727   5.820  0.00  0.00    +0.060 A 
ATOM     12  C   UNL     1       8.907   2.090   6.077  0.00  0.00    +0.025 A 
ATOM     13  C   UNL     1       9.864   2.564   6.952  0.00  0.00    +0.002 A 
ATOM     14  C   UNL     1      10.741   1.687   7.563  0.00  0.00    +0.002 A 
ATOM     15  C   UNL     1      10.658   0.331   7.306  0.00  0.00    +0.034 A 
ATOM     16  C   UNL     1       9.700  -0.152   6.436  0.00  0.00    +0.147 A 
BRANCH  16  17
ATOM     17  N   UNL     1       9.612  -1.603   6.161  0.00  0.00    +0.058 N 
ATOM     18  O   UNL     1      10.386  -2.373   6.702  0.00  0.00    -0.126 OA
ATOM     19  O   UNL     1       8.767  -2.028   5.394  0.00  0.00    -0.126 OA
ENDBRANCH  16  17
ENDBRANCH   8  11
ENDBRANCH   2   5
BRANCH   1  20
ATOM     20  C   UNL     1       3.711  -0.707  -0.039  0.00  0.00    +0.134 C 
BRANCH  20  24
ATOM     21  C   UNL     1      -0.017   1.378   0.010  0.00  0.00    +0.000 A 
ATOM     22  C   UNL     1       1.171   2.086   0.002  0.00  0.00    +0.000 A 
ATOM     23  C   UNL     1       2.377   1.411  -0.014  0.00  0.00    +0.006 A 
ATOM     24  C   UNL     1       2.396   0.029  -0.022  0.00  0.00    -0.023 A 
ATOM     25  C   UNL     1       1.208  -0.679  -0.014  0.00  0.00    +0.006 A 
ATOM     26  C   UNL     1       0.002  -0.004   0.002  0.00  0.00    +0.000 A 
ENDBRANCH  20  24
BRANCH  20  27
ATOM     27  C   UNL     1       4.256  -0.729  -1.444  0.00  0.00    -0.023 A 
ATOM     28  C   UNL     1       4.904   0.382  -1.952  0.00  0.00    +0.006 A 
ATOM     29  C   UNL     1       5.408   0.360  -3.239  0.00  0.00    +0.000 A 
ATOM     30  C   UNL     1       5.255  -0.769  -4.022  0.00  0.00    +0.000 A 
ATOM     31  C   UNL     1       4.602  -1.878  -3.516  0.00  0.00    +0.000 A 
ATOM     32  C   UNL     1       4.103  -1.858  -2.227  0.00  0.00    +0.006 A 
ENDBRANCH  20  27
ENDBRANCH   1  20
TORSDOF 6
