REMARK  Name = ZINC39944427
REMARK  8 active torsions:
REMARK  status: ('A' for Active; 'I' for Inactive)
REMARK    1  A    between atoms: C_4  and  C_7
REMARK    2  A    between atoms: C_9  and  C_17
REMARK    3  A    between atoms: C_17  and  C_19
REMARK    4  A    between atoms: C_19  and  O_20
REMARK    5  A    between atoms: O_20  and  C_21
REMARK    6  A    between atoms: C_21  and  C_23
REMARK    7  A    between atoms: N_26  and  S_29
REMARK    8  A    between atoms: S_29  and  C_32
REMARK                            x       y       z     vdW  Elec       q    Type
REMARK                         _______ _______ _______ _____ _____    ______ ____
ROOT
ATOM      1  C   UNL     1       4.247  -0.425   2.511  0.00  0.00    +0.199 C 
ATOM      2  O   UNL     1       4.150   0.784   2.454  0.00  0.00    -0.289 OA
ENDROOT
BRANCH   1   4
ATOM      3  C   UNL     1       3.711  -0.707  -0.038  0.00  0.00    +0.144 C 
ATOM      4  C   UNL     1       4.049  -1.204   1.351  0.00  0.00    +0.034 C 
ATOM      5  C   UNL     1       4.122  -2.581   1.246  0.00  0.00    +0.007 A 
ATOM      6  C   UNL     1       4.398  -3.604   2.183  0.00  0.00    +0.010 A 
ATOM      7  C   UNL     1       4.405  -4.899   1.795  0.00  0.00    +0.001 A 
ATOM      8  C   UNL     1       4.143  -5.291   0.472  0.00  0.00    +0.002 A 
ATOM      9  C   UNL     1       3.868  -4.394  -0.498  0.00  0.00    +0.026 A 
ATOM     10  C   UNL     1       3.841  -2.961  -0.161  0.00  0.00    +0.044 A 
ATOM     11  N   UNL     1       3.611  -1.900  -0.884  0.00  0.00    -0.373 N 
ATOM     12  H   UNL     1       3.405  -1.900  -1.831  0.00  0.00    +0.161 HD
BRANCH   3  16
ATOM     13  C   UNL     1      -0.017   1.378   0.010  0.00  0.00    +0.000 A 
ATOM     14  C   UNL     1       1.171   2.086   0.002  0.00  0.00    +0.000 A 
ATOM     15  C   UNL     1       2.377   1.411  -0.013  0.00  0.00    +0.006 A 
ATOM     16  C   UNL     1       2.396   0.029  -0.020  0.00  0.00    -0.021 A 
ATOM     17  C   UNL     1       1.208  -0.679  -0.012  0.00  0.00    +0.006 A 
ATOM     18  C   UNL     1       0.002  -0.004   0.002  0.00  0.00    +0.000 A 
ENDBRANCH   3  16
ENDBRANCH   1   4
BRANCH   1  19
ATOM     19  C   UNL     1       4.579  -1.093   3.820  0.00  0.00    +0.311 C 
BRANCH  19  20
ATOM     20  O   UNL     1       4.731  -0.101   4.837  0.00  0.00    -0.456 OA
BRANCH  20  21
ATOM     21  C   UNL     1       5.030  -0.534   6.072  0.00  0.00    +0.311 C 
ATOM     22  O   UNL     1       5.159  -1.717   6.282  0.00  0.00    -0.251 OA
BRANCH  21  23
ATOM     23  C   UNL     1       5.206   0.454   7.195  0.00  0.00    +0.100 C 
ATOM     24  C   UNL     1       6.345   1.417   6.854  0.00  0.00    +0.032 C 
ATOM     25  C   UNL     1       6.498   2.442   7.982  0.00  0.00    +0.110 C 
ATOM     26  N   UNL     1       6.675   1.724   9.252  0.00  0.00    -0.180 NA
ATOM     27  C   UNL     1       5.684   0.709   9.634  0.00  0.00    +0.110 C 
ATOM     28  C   UNL     1       5.540  -0.296   8.487  0.00  0.00    +0.032 C 
BRANCH  26  29
ATOM     29  S   UNL     1       7.968   2.052  10.233  0.00  0.00    +0.045 S 
ATOM     30  O   UNL     1       8.176   0.856  10.971  0.00  0.00    -0.157 OA
ATOM     31  O   UNL     1       8.972   2.547   9.358  0.00  0.00    -0.157 OA
BRANCH  29  32
ATOM     32  C   UNL     1       7.393   3.374  11.335  0.00  0.00    +0.213 C 
ATOM     33  C   UNL     1       8.459   3.726  12.406  0.00  0.00    +0.066 C 
ATOM     34  C   UNL     1       7.814   4.005  13.725  0.00  0.00    -0.017 C 
ATOM     35  C   UNL     1       6.581   3.595  13.952  0.00  0.00    +0.038 C 
ATOM     36  S   UNL     1       6.051   2.785  12.452  0.00  0.00    -0.105 S 
ENDBRANCH  29  32
ENDBRANCH  26  29
ENDBRANCH  21  23
ENDBRANCH  20  21
ENDBRANCH  19  20
ENDBRANCH   1  19
TORSDOF 8
