REMARK  Name = ZINC16327898
REMARK  9 active torsions:
REMARK  status: ('A' for Active; 'I' for Inactive)
REMARK    1  A    between atoms: C_1  and  C_2
REMARK    2  A    between atoms: C_2  and  C_3
REMARK    3  A    between atoms: C_7  and  C_29
REMARK    4  A    between atoms: C_8  and  N_9
REMARK    5  A    between atoms: C_13  and  S_15
REMARK    6  A    between atoms: S_15  and  C_16
REMARK    7  A    between atoms: C_16  and  C_17
REMARK    8  A    between atoms: C_24  and  C_28
REMARK    9  A    between atoms: C_29  and  C_30
REMARK                            x       y       z     vdW  Elec       q    Type
REMARK                         _______ _______ _______ _____ _____    ______ ____
ROOT
ATOM      1  N   UNL     1       6.460   4.284  11.608  0.00  0.00    -0.292 N 
ATOM      2  C   UNL     1       6.628   3.276  10.665  0.00  0.00    +0.187 A 
ATOM      3  N   UNL     1       6.035   2.102  10.581  0.00  0.00    -0.125 NA
ATOM      4  N   UNL     1       6.350   1.247   9.550  0.00  0.00    -0.133 NA
ATOM      5  C   UNL     1       7.252   1.603   8.655  0.00  0.00    +0.160 A 
ATOM      6  S   UNL     1       7.707   3.228   9.242  0.00  0.00    -0.024 S 
ATOM      7  H   UNL     1       6.950   5.116  11.522  0.00  0.00    +0.154 HD
ENDROOT
BRANCH   1  13
ATOM      8  C   UNL     1       4.215   4.245  12.494  0.00  0.00    -0.026 A 
ATOM      9  C   UNL     1       3.351   4.055  13.555  0.00  0.00    +0.005 A 
ATOM     10  C   UNL     1       3.848   3.728  14.803  0.00  0.00    +0.001 A 
ATOM     11  C   UNL     1       5.210   3.585  14.993  0.00  0.00    +0.005 A 
ATOM     12  C   UNL     1       6.079   3.769  13.936  0.00  0.00    -0.026 A 
ATOM     13  C   UNL     1       5.583   4.097  12.680  0.00  0.00    +0.039 A 
BRANCH   8  15
ATOM     14  C   UNL     1       2.182   4.933  11.251  0.00  0.00    +0.009 C 
ATOM     15  C   UNL     1       3.672   4.608  11.136  0.00  0.00    +0.033 C 
ENDBRANCH   8  15
BRANCH  12  16
ATOM     16  C   UNL     1       7.564   3.612  14.143  0.00  0.00    +0.033 C 
ATOM     17  C   UNL     1       8.187   4.982  14.418  0.00  0.00    +0.009 C 
ENDBRANCH  12  16
ENDBRANCH   1  13
BRANCH   5  18
ATOM     18  S   UNL     1       7.843   0.716   7.252  0.00  0.00    -0.091 S 
BRANCH  18  19
ATOM     19  C   UNL     1       6.926  -0.849   7.304  0.00  0.00    +0.132 C 
BRANCH  19  20
ATOM     20  C   UNL     1       7.343  -1.714   6.143  0.00  0.00    +0.059 A 
ATOM     21  C   UNL     1       8.172  -2.798   6.352  0.00  0.00    +0.094 A 
ATOM     22  C   UNL     1       8.545  -3.587   5.258  0.00  0.00    +0.259 A 
ATOM     23  O   UNL     1       9.278  -4.552   5.410  0.00  0.00    -0.267 OA
ATOM     24  N   UNL     1       8.083  -3.264   4.031  0.00  0.00    -0.268 N 
ATOM     25  C   UNL     1       8.437  -4.021   2.956  0.00  0.00    +0.096 A 
ATOM     26  C   UNL     1       7.983  -3.720   1.719  0.00  0.00    +0.021 A 
ATOM     27  C   UNL     1       7.146  -2.612   1.526  0.00  0.00    -0.046 A 
ATOM     28  C   UNL     1       6.785  -1.848   2.596  0.00  0.00    +0.050 A 
ATOM     29  C   UNL     1       7.264  -2.180   3.876  0.00  0.00    +0.141 A 
ATOM     30  N   UNL     1       6.912  -1.435   4.922  0.00  0.00    -0.233 NA
ATOM     31  C   UNL     1       6.643  -2.272   0.147  0.00  0.00    +0.044 C 
ENDBRANCH  19  20
ENDBRANCH  18  19
ENDBRANCH   5  18
TORSDOF 6
