REMARK  Name = ZINC35870340
REMARK  8 active torsions:
REMARK  status: ('A' for Active; 'I' for Inactive)
REMARK    1  A    between atoms: C_1  and  C_2
REMARK    2  A    between atoms: C_2  and  C_3
REMARK    3  A    between atoms: C_3  and  C_5
REMARK    4  A    between atoms: C_3  and  N_6
REMARK    5  A    between atoms: C_7  and  C_9
REMARK    6  A    between atoms: C_14  and  N_33
REMARK    7  A    between atoms: N_22  and  C_25
REMARK    8  A    between atoms: C_25  and  C_26
REMARK                            x       y       z     vdW  Elec       q    Type
REMARK                         _______ _______ _______ _____ _____    ______ ____
ROOT
ATOM      1  C   UNL     1       4.271   0.470  -2.304  0.00  0.00    +0.098 C 
ATOM      2  C   UNL     1       4.384   1.836  -1.629  0.00  0.00    +0.051 C 
ATOM      3  C   UNL     1       3.710   2.875  -2.487  0.00  0.00    -0.023 A 
ATOM      4  C   UNL     1       3.215   4.024  -1.894  0.00  0.00    +0.038 A 
ATOM      5  C   UNL     1       2.588   4.987  -2.662  0.00  0.00    +0.127 A 
ATOM      6  C   UNL     1       2.454   4.806  -4.026  0.00  0.00    +0.034 A 
ATOM      7  C   UNL     1       2.948   3.665  -4.624  0.00  0.00    +0.025 A 
ATOM      8  C   UNL     1       3.581   2.694  -3.853  0.00  0.00    +0.033 A 
ATOM      9  N   UNL     1       4.084   1.549  -4.491  0.00  0.00    -0.329 N 
ATOM     10  C   UNL     1       4.826   0.556  -3.730  0.00  0.00    +0.069 C 
ATOM     11  C   UNL     1       4.800  -0.829  -4.355  0.00  0.00    -0.055 C 
ATOM     12  N   UNL     1       4.888  -0.773  -5.813  0.00  0.00    +0.385 N 
ATOM     13  C   UNL     1       3.723  -0.041  -6.332  0.00  0.00    -0.059 C 
ATOM     14  C   UNL     1       3.857   1.427  -5.933  0.00  0.00    +0.087 C 
ATOM     15  H   UNL     1       5.734  -0.295  -6.083  0.00  0.00    -0.081 HD
ENDROOT
BRANCH   1  17
ATOM     16  N   UNL     1       2.125  -0.091  -1.209  0.00  0.00    -0.312 N 
ATOM     17  C   UNL     1       2.824   0.051  -2.353  0.00  0.00    +0.218 C 
ATOM     18  O   UNL     1       2.289  -0.157  -3.421  0.00  0.00    -0.275 OA
ATOM     19  H   UNL     1       2.553   0.075  -0.355  0.00  0.00    +0.149 HD
BRANCH  16  20
ATOM     20  C   UNL     1       0.718  -0.497  -1.257  0.00  0.00    +0.070 C 
ATOM     21  C   UNL     1       0.630  -2.023  -1.329  0.00  0.00    +0.028 C 
BRANCH  20  23
ATOM     22  C   UNL     1      -0.019   1.526   0.010  0.00  0.00    +0.005 C 
ATOM     23  C   UNL     1       0.002  -0.004   0.002  0.00  0.00    +0.018 C 
ENDBRANCH  20  23
ENDBRANCH  16  20
ENDBRANCH   1  17
BRANCH   5  24
ATOM     24  N   UNL     1       2.061   6.213  -2.023  0.00  0.00    +0.056 N 
ATOM     25  O   UNL     1       2.178   6.372  -0.830  0.00  0.00    -0.126 OA
ATOM     26  O   UNL     1       1.513   7.056  -2.694  0.00  0.00    -0.126 OA
ENDBRANCH   5  24
BRANCH  12  27
ATOM     27  C   UNL     1       4.894  -2.137  -6.359  0.00  0.00    -0.043 C 
BRANCH  27  28
ATOM     28  C   UNL     1       5.108  -2.081  -7.849  0.00  0.00    -0.064 A 
ATOM     29  C   UNL     1       4.022  -1.988  -8.700  0.00  0.00    +0.003 A 
ATOM     30  C   UNL     1       4.218  -1.937 -10.067  0.00  0.00    +0.020 A 
ATOM     31  C   UNL     1       5.500  -1.977 -10.585  0.00  0.00    +0.041 A 
ATOM     32  C   UNL     1       6.587  -2.070  -9.733  0.00  0.00    +0.020 A 
ATOM     33  C   UNL     1       6.390  -2.116  -8.365  0.00  0.00    +0.003 A 
ATOM     34 CL   UNL     1       5.747  -1.913 -12.302  0.00  0.00    -0.084 Cl
ENDBRANCH  27  28
ENDBRANCH  12  27
TORSDOF 6
