REMARK  Name = ZINC28910044
REMARK  9 active torsions:
REMARK  status: ('A' for Active; 'I' for Inactive)
REMARK    1  A    between atoms: C_1  and  C_2
REMARK    2  A    between atoms: C_2  and  C_4
REMARK    3  A    between atoms: C_2  and  N_16
REMARK    4  A    between atoms: N_9  and  C_10
REMARK    5  A    between atoms: N_16  and  C_17
REMARK    6  A    between atoms: C_20  and  N_23
REMARK    7  A    between atoms: C_24  and  C_26
REMARK    8  A    between atoms: C_26  and  C_27
REMARK    9  A    between atoms: C_26  and  C_28
REMARK                            x       y       z     vdW  Elec       q    Type
REMARK                         _______ _______ _______ _____ _____    ______ ____
ROOT
ATOM      1  C   UNL     1      -0.041   1.312  -0.282  0.00  0.00    +0.038 C 
ATOM      2  C   UNL     1      -0.012  -0.203  -0.066  0.00  0.00    +0.154 C 
ENDROOT
BRANCH   2   3
ATOM      3  C   UNL     1      -1.423  -0.722   0.034  0.00  0.00    +0.240 C 
ATOM      4  O   UNL     1      -1.790  -1.290   1.040  0.00  0.00    -0.273 OA
ATOM      5  N   UNL     1      -2.277  -0.556  -0.995  0.00  0.00    -0.239 N 
ATOM      6  C   UNL     1      -3.539  -1.021  -0.906  0.00  0.00    +0.306 C 
ATOM      7  O   UNL     1      -3.907  -1.590   0.103  0.00  0.00    -0.252 OA
ATOM      8  N   UNL     1      -4.393  -0.855  -1.935  0.00  0.00    -0.296 N 
ATOM      9  H   UNL     1      -1.984  -0.102  -1.801  0.00  0.00    +0.159 HD
ATOM     10  H   UNL     1      -4.099  -0.400  -2.740  0.00  0.00    +0.151 HD
BRANCH   8  11
ATOM     11  C   UNL     1      -5.765  -1.360  -1.838  0.00  0.00    +0.074 C 
ATOM     12  C   UNL     1      -6.642  -0.322  -1.134  0.00  0.00    +0.022 C 
ATOM     13  C   UNL     1      -8.074  -0.850  -1.032  0.00  0.00    +0.002 C 
ATOM     14  C   UNL     1      -8.622  -1.112  -2.437  0.00  0.00    +0.000 C 
ATOM     15  C   UNL     1      -7.745  -2.150  -3.141  0.00  0.00    +0.002 C 
ATOM     16  C   UNL     1      -6.312  -1.622  -3.242  0.00  0.00    +0.022 C 
ENDBRANCH   8  11
ENDBRANCH   2   3
BRANCH   2  17
ATOM     17  N   UNL     1       0.709  -0.506   1.172  0.00  0.00    -0.333 N 
ATOM     18  H   UNL     1       0.220  -0.630   2.001  0.00  0.00    +0.147 HD
BRANCH  17  19
ATOM     19  C   UNL     1       2.104  -0.617   1.161  0.00  0.00    +0.028 A 
ATOM     20  C   UNL     1       2.805  -0.433  -0.024  0.00  0.00    +0.025 A 
ATOM     21  C   UNL     1       4.181  -0.542  -0.035  0.00  0.00    +0.025 A 
ATOM     22  C   UNL     1       4.864  -0.836   1.137  0.00  0.00    +0.034 A 
ATOM     23  C   UNL     1       4.163  -1.020   2.322  0.00  0.00    +0.025 A 
ATOM     24  C   UNL     1       2.787  -0.904   2.335  0.00  0.00    +0.025 A 
BRANCH  22  25
ATOM     25  N   UNL     1       6.261  -0.947   1.126  0.00  0.00    -0.285 N 
ATOM     26  C   UNL     1       6.991  -0.180   0.291  0.00  0.00    +0.220 C 
ATOM     27  O   UNL     1       6.449   0.672  -0.380  0.00  0.00    -0.275 OA
ATOM     28  H   UNL     1       6.703  -1.575   1.718  0.00  0.00    +0.155 HD
BRANCH  26  29
ATOM     29  C   UNL     1       8.481  -0.383   0.192  0.00  0.00    +0.069 C 
ATOM     30  C   UNL     1       8.772  -1.812  -0.269  0.00  0.00    +0.017 C 
ATOM     31  C   UNL     1       9.064   0.608  -0.818  0.00  0.00    +0.017 C 
ENDBRANCH  26  29
ENDBRANCH  22  25
ENDBRANCH  17  19
ENDBRANCH   2  17
TORSDOF 6
