REMARK  Name = ZINC32605522
REMARK  7 active torsions:
REMARK  status: ('A' for Active; 'I' for Inactive)
REMARK    1  A    between atoms: C_7  and  N_30
REMARK    2  A    between atoms: C_8  and  C_11
REMARK    3  A    between atoms: N_13  and  N_14
REMARK    4  A    between atoms: C_15  and  C_17
REMARK    5  A    between atoms: C_20  and  S_23
REMARK    6  A    between atoms: S_23  and  N_26
REMARK    7  A    between atoms: N_26  and  C_27
REMARK                            x       y       z     vdW  Elec       q    Type
REMARK                         _______ _______ _______ _____ _____    ______ ____
ROOT
ATOM      1  C   UNL     1      -3.756   5.817   0.045  0.00  0.00    +0.263 C 
ATOM      2  O   UNL     1      -4.779   5.166   0.139  0.00  0.00    -0.269 OA
ATOM      3  N   UNL     1      -3.818   7.160  -0.055  0.00  0.00    -0.230 N 
ATOM      4  H   UNL     1      -2.893   7.748  -0.140  0.00  0.00    +0.173 HD
ENDROOT
BRANCH   1  12
ATOM      5  C   UNL     1       0.314   1.210  -0.006  0.00  0.00    +0.001 A 
ATOM      6  C   UNL     1       1.441   2.027   0.011  0.00  0.00    +0.002 A 
ATOM      7  C   UNL     1       1.324   3.385   0.030  0.00  0.00    +0.026 A 
ATOM      8  C   UNL     1       0.050   3.976   0.034  0.00  0.00    +0.048 A 
ATOM      9  C   UNL     1      -1.093   3.142   0.017  0.00  0.00    +0.020 A 
ATOM     10  C   UNL     1      -0.938   1.750  -0.008  0.00  0.00    +0.012 A 
ATOM     11  C   UNL     1      -2.378   3.737   0.021  0.00  0.00    +0.047 A 
ATOM     12  C   UNL     1      -2.449   5.138   0.041  0.00  0.00    +0.075 A 
ATOM     13  C   UNL     1      -1.261   5.886   0.056  0.00  0.00    +0.098 A 
ATOM     14  N   UNL     1      -0.087   5.309   0.053  0.00  0.00    -0.360 N 
ATOM     15  H   UNL     1       0.805   5.953   0.066  0.00  0.00    +0.165 HD
BRANCH  11  16
ATOM     16  N   UNL     1      -3.519   2.967   0.005  0.00  0.00    -0.357 N 
ATOM     17  H   UNL     1      -4.508   3.448   0.008  0.00  0.00    +0.142 HD
ATOM     18  H   UNL     1      -3.442   1.869  -0.011  0.00  0.00    +0.142 HD
ENDBRANCH  11  16
ENDBRANCH   1  12
BRANCH   3  19
ATOM     19  N   UNL     1      -5.061   7.805  -0.051  0.00  0.00    -0.230 N 
ATOM     20  C   UNL     1      -5.123   9.148  -0.151  0.00  0.00    +0.260 C 
ATOM     21  O   UNL     1      -4.101   9.799  -0.244  0.00  0.00    -0.269 OA
ATOM     22  H   UNL     1      -5.986   7.217   0.034  0.00  0.00    +0.173 HD
BRANCH  20  23
ATOM     23  C   UNL     1      -6.435   9.829  -0.147  0.00  0.00    +0.038 A 
ATOM     24  C   UNL     1      -7.612   9.085  -0.045  0.00  0.00    +0.015 A 
ATOM     25  C   UNL     1      -8.832   9.727  -0.037  0.00  0.00    +0.029 A 
ATOM     26  C   UNL     1      -8.893  11.106  -0.140  0.00  0.00    +0.105 A 
ATOM     27  C   UNL     1      -7.731  11.849  -0.246  0.00  0.00    +0.029 A 
ATOM     28  C   UNL     1      -6.503  11.220  -0.250  0.00  0.00    +0.015 A 
BRANCH  26  29
ATOM     29  S   UNL     1     -10.457  11.918  -0.136  0.00  0.00    +0.059 S 
ATOM     30  O   UNL     1     -11.365  11.046   0.522  0.00  0.00    -0.153 OA
ATOM     31  O   UNL     1     -10.222  13.248   0.306  0.00  0.00    -0.153 OA
BRANCH  29  32
ATOM     32  N   UNL     1     -10.958  12.024  -1.710  0.00  0.00    -0.187 NA
ATOM     33  H   UNL     1     -10.904  12.993  -2.228  0.00  0.00    +0.148 HD
BRANCH  32  34
ATOM     34  C   UNL     1     -11.259  10.806  -2.466  0.00  0.00    +0.077 C 
ATOM     35  C   UNL     1     -10.951  10.810  -3.965  0.00  0.00    +0.022 C 
ATOM     36  C   UNL     1     -12.402  10.870  -3.482  0.00  0.00    +0.022 C 
ENDBRANCH  32  34
ENDBRANCH  29  32
ENDBRANCH  26  29
ENDBRANCH  20  23
ENDBRANCH   3  19
TORSDOF 7
