REMARK  Name = ZINC43429359
REMARK  10 active torsions:
REMARK  status: ('A' for Active; 'I' for Inactive)
REMARK    1  A    between atoms: C_1  and  C_2
REMARK    2  A    between atoms: C_2  and  C_3
REMARK    3  A    between atoms: C_2  and  C_4
REMARK    4  A    between atoms: C_2  and  C_5
REMARK    5  A    between atoms: C_5  and  C_6
REMARK    6  A    between atoms: C_6  and  C_7
REMARK    7  A    between atoms: C_6  and  C_8
REMARK    8  A    between atoms: C_6  and  N_9
REMARK    9  A    between atoms: C_10  and  C_12
REMARK   10  A    between atoms: C_20  and  N_22
REMARK                            x       y       z     vdW  Elec       q    Type
REMARK                         _______ _______ _______ _____ _____    ______ ____
ROOT
ATOM      1  C   UNL     1       5.340  -0.470  -4.235  0.00  0.00    +0.062 A 
ATOM      2  C   UNL     1       4.828  -1.039  -5.363  0.00  0.00    +0.096 A 
ATOM      3  N   UNL     1       5.805  -1.168  -6.295  0.00  0.00    -0.360 N 
ATOM      4  H   UNL     1       5.679  -1.547  -7.179  0.00  0.00    +0.165 HD
ATOM      5  C   UNL     1       7.002  -0.685  -5.808  0.00  0.00    +0.049 A 
ATOM      6  C   UNL     1       6.769  -0.221  -4.503  0.00  0.00    +0.012 A 
ATOM      7  C   UNL     1       7.809   0.332  -3.760  0.00  0.00    +0.012 A 
ATOM      8  C   UNL     1       9.060   0.426  -4.304  0.00  0.00    +0.023 A 
ATOM      9  C   UNL     1       9.300  -0.028  -5.599  0.00  0.00    +0.027 A 
ATOM     10  C   UNL     1       8.279  -0.587  -6.349  0.00  0.00    +0.049 A 
ENDROOT
BRANCH   1  12
ATOM     11  N   UNL     1       3.297  -0.447  -2.901  0.00  0.00    -0.306 N 
ATOM     12  C   UNL     1       4.610  -0.159  -2.998  0.00  0.00    +0.246 C 
ATOM     13  O   UNL     1       5.191   0.357  -2.063  0.00  0.00    -0.270 OA
ATOM     14  H   UNL     1       2.834  -0.859  -3.647  0.00  0.00    +0.150 HD
BRANCH  11  15
ATOM     15  C   UNL     1       2.569  -0.137  -1.667  0.00  0.00    +0.030 C 
ATOM     16  C   UNL     1       2.772   1.337  -1.312  0.00  0.00    +0.031 C 
ATOM     17  C   UNL     1       3.098  -1.014  -0.530  0.00  0.00    +0.031 C 
BRANCH  15  18
ATOM     18  C   UNL     1       1.078  -0.412  -1.873  0.00  0.00    +0.031 C 
BRANCH  18  20
ATOM     19  C   UNL     1       1.012  -0.865  -4.329  0.00  0.00    +0.010 C 
ATOM     20  C   UNL     1       0.641   0.136  -3.232  0.00  0.00    -0.036 C 
ATOM     21  C   UNL     1       1.347   1.467  -3.497  0.00  0.00    +0.010 C 
ATOM     22  C   UNL     1      -0.873   0.353  -3.232  0.00  0.00    +0.010 C 
ENDBRANCH  18  20
ENDBRANCH  15  18
ENDBRANCH  11  15
ENDBRANCH   1  12
BRANCH   9  23
ATOM     23  N   UNL     1      10.584   0.075  -6.144  0.00  0.00    -0.358 N 
ATOM     24  H   UNL     1      11.303   0.461  -5.620  0.00  0.00    +0.142 HD
ATOM     25  H   UNL     1      10.755  -0.240  -7.045  0.00  0.00    +0.142 HD
ENDBRANCH   9  23
TORSDOF 5
