REMARK  Name = ZINC32527838
REMARK  11 active torsions:
REMARK  status: ('A' for Active; 'I' for Inactive)
REMARK    1  A    between atoms: C_1  and  C_2
REMARK    2  A    between atoms: N_6  and  C_15
REMARK    3  A    between atoms: C_12  and  O_13
REMARK    4  A    between atoms: O_13  and  C_14
REMARK    5  A    between atoms: C_15  and  C_16
REMARK    6  A    between atoms: C_16  and  C_17
REMARK    7  A    between atoms: C_22  and  C_31
REMARK    8  A    between atoms: C_23  and  C_25
REMARK    9  A    between atoms: C_25  and  O_27
REMARK   10  A    between atoms: O_27  and  C_28
REMARK   11  A    between atoms: C_28  and  C_29
REMARK                            x       y       z     vdW  Elec       q    Type
REMARK                         _______ _______ _______ _____ _____    ______ ____
ROOT
ATOM      1  C   UNL     1      -1.859   6.080   1.488  0.00  0.00    +0.118 C 
ENDROOT
BRANCH   1   2
ATOM      2  C   UNL     1      -3.175   6.814   1.505  0.00  0.00    +0.220 C 
ATOM      3  O   UNL     1      -3.671   7.194   0.465  0.00  0.00    -0.275 OA
ATOM      4  N   UNL     1      -3.801   7.048   2.675  0.00  0.00    -0.265 N 
ATOM      5  C   UNL     1      -5.010   7.722   2.690  0.00  0.00    +0.165 A 
ATOM      6  N   UNL     1      -5.769   8.037   3.728  0.00  0.00    -0.229 NA
ATOM      7  C   UNL     1      -6.894   8.687   3.581  0.00  0.00    +0.062 A 
ATOM      8  C   UNL     1      -7.280   9.029   2.292  0.00  0.00    +0.120 A 
ATOM      9  S   UNL     1      -5.915   8.359   1.353  0.00  0.00    -0.045 S 
ATOM     10  C   UNL     1      -7.746   9.046   4.771  0.00  0.00    +0.067 C 
ATOM     11  H   UNL     1      -3.352   6.704   3.618  0.00  0.00    +0.157 HD
BRANCH   8  12
ATOM     12  C   UNL     1      -8.471   9.740   1.831  0.00  0.00    +0.348 C 
ATOM     13  O   UNL     1      -9.299  10.123   2.636  0.00  0.00    -0.244 OA
BRANCH  12  14
ATOM     14  O   UNL     1      -8.651   9.971   0.514  0.00  0.00    -0.457 OA
BRANCH  14  15
ATOM     15  C   UNL     1      -9.838  10.671   0.135  0.00  0.00    +0.259 C 
BRANCH  15  16
ATOM     16  C   UNL     1      -9.867  10.836  -1.362  0.00  0.00    +0.006 C 
ATOM     17  C   UNL     1     -10.971  10.595  -2.026  0.00  0.00    +0.007 C 
ENDBRANCH  15  16
ENDBRANCH  14  15
ENDBRANCH  12  14
ENDBRANCH   8  12
ENDBRANCH   1   2
BRANCH   1  18
ATOM     18  C   UNL     1      -1.367   5.948   0.046  0.00  0.00    +0.135 C 
BRANCH  18  24
ATOM     19  C   UNL     1       3.731   3.242  -0.020  0.00  0.00    +0.044 C 
ATOM     20  C   UNL     1       2.394   3.938  -0.003  0.00  0.00    -0.036 A 
ATOM     21  C   UNL     1       2.318   5.292  -0.038  0.00  0.00    +0.074 A 
ATOM     22  C   UNL     1       1.061   5.933  -0.020  0.00  0.00    +0.252 A 
ATOM     23  O   UNL     1       1.014   7.151  -0.051  0.00  0.00    -0.268 OA
ATOM     24  N   UNL     1      -0.087   5.234   0.029  0.00  0.00    -0.305 N 
ATOM     25  C   UNL     1      -0.077   3.855   0.066  0.00  0.00    +0.094 A 
ATOM     26  C   UNL     1       1.150   3.168   0.051  0.00  0.00    +0.005 A 
ATOM     27  C   UNL     1       1.167   1.769   0.086  0.00  0.00    +0.010 A 
ATOM     28  C   UNL     1      -0.010   1.077   0.136  0.00  0.00    +0.004 A 
ATOM     29  C   UNL     1      -1.225   1.748   0.145  0.00  0.00    +0.048 A 
ATOM     30  C   UNL     1      -1.268   3.129   0.117  0.00  0.00    +0.144 A 
BRANCH  30  31
ATOM     31  O   UNL     1      -2.463   3.777   0.132  0.00  0.00    -0.493 OA
ATOM     32  C   UNL     1      -3.639   2.967   0.185  0.00  0.00    +0.277 C 
ENDBRANCH  30  31
ENDBRANCH  18  24
ENDBRANCH   1  18
TORSDOF 8
