REMARK  Name = ZINC29314384
REMARK  5 active torsions:
REMARK  status: ('A' for Active; 'I' for Inactive)
REMARK    1  A    between atoms: C_1  and  C_2
REMARK    2  A    between atoms: C_4  and  C_16
REMARK    3  A    between atoms: C_6  and  C_8
REMARK    4  A    between atoms: N_10  and  C_11
REMARK    5  A    between atoms: C_20  and  N_22
REMARK                            x       y       z     vdW  Elec       q    Type
REMARK                         _______ _______ _______ _____ _____    ______ ____
ROOT
ATOM      1  C   UNL     1      -0.018   1.503   0.010  0.00  0.00    +0.044 C 
ATOM      2  C   UNL     1       0.002  -0.004   0.002  0.00  0.00    -0.046 A 
ATOM      3  C   UNL     1       0.006  -0.705  -1.193  0.00  0.00    +0.031 A 
ATOM      4  C   UNL     1       0.025  -2.099  -1.166  0.00  0.00    +0.072 A 
ATOM      5  N   UNL     1       0.039  -2.753  -0.015  0.00  0.00    -0.242 NA
ATOM      6  C   UNL     1       0.035  -2.112   1.147  0.00  0.00    +0.131 A 
ATOM      7  C   UNL     1       0.023  -0.718   1.190  0.00  0.00    +0.036 A 
ENDROOT
BRANCH   4   8
ATOM      8  C   UNL     1       0.029  -2.858  -2.441  0.00  0.00    +0.002 A 
ATOM      9  C   UNL     1       0.020  -2.178  -3.659  0.00  0.00    +0.010 A 
ATOM     10  C   UNL     1       0.024  -2.885  -4.844  0.00  0.00    +0.002 A 
ATOM     11  C   UNL     1       0.037  -4.267  -4.830  0.00  0.00    +0.023 A 
ATOM     12  C   UNL     1       0.046  -4.953  -3.621  0.00  0.00    +0.025 A 
ATOM     13  C   UNL     1       0.048  -4.250  -2.425  0.00  0.00    +0.032 A 
BRANCH  12  14
ATOM     14  N   UNL     1       0.059  -6.350  -3.611  0.00  0.00    -0.358 N 
ATOM     15  H   UNL     1       0.061  -6.841  -4.447  0.00  0.00    +0.142 HD
ATOM     16  H   UNL     1       0.066  -6.828  -2.767  0.00  0.00    +0.142 HD
ENDBRANCH  12  14
ENDBRANCH   4   8
BRANCH   6  17
ATOM     17  C   UNL     1       0.051  -2.883   2.409  0.00  0.00    +0.299 C 
ATOM     18  O   UNL     1       0.068  -4.235   2.375  0.00  0.00    -0.263 OA
ATOM     19  N   UNL     1       0.048  -2.258   3.557  0.00  0.00    -0.167 NA
BRANCH  19  20
ATOM     20  C   UNL     1       0.062  -2.972   4.726  0.00  0.00    +0.292 A 
ATOM     21  N   UNL     1       0.060  -2.472   5.950  0.00  0.00    -0.113 NA
ATOM     22  N   UNL     1       0.078  -3.577   6.816  0.00  0.00    -0.175 N 
ATOM     23  N   UNL     1       0.089  -4.637   6.082  0.00  0.00    -0.047 NA
ATOM     24  N   UNL     1       0.074  -4.306   4.840  0.00  0.00    -0.088 NA
ATOM     25  H   UNL     1       0.083  -3.548   7.786  0.00  0.00    +0.214 HD
ENDBRANCH  19  20
ENDBRANCH   6  17
TORSDOF 4
