REMARK  Name = ZINC67260951
REMARK  8 active torsions:
REMARK  status: ('A' for Active; 'I' for Inactive)
REMARK    1  A    between atoms: C_1  and  C_2
REMARK    2  A    between atoms: C_2  and  C_3
REMARK    3  A    between atoms: C_2  and  C_4
REMARK    4  A    between atoms: C_7  and  C_10
REMARK    5  A    between atoms: N_15  and  C_20
REMARK    6  A    between atoms: C_20  and  C_21
REMARK    7  A    between atoms: C_21  and  C_22
REMARK    8  A    between atoms: N_24  and  C_25
REMARK                            x       y       z     vdW  Elec       q    Type
REMARK                         _______ _______ _______ _____ _____    ______ ____
ROOT
ATOM      1  C   UNL     1       2.698  -1.861  -4.737  0.00  0.00    +0.094 A 
ATOM      2  C   UNL     1       3.849  -2.664  -4.774  0.00  0.00    +0.063 A 
ATOM      3  C   UNL     1       4.119  -2.846  -6.115  0.00  0.00    +0.132 A 
ATOM      4  C   UNL     1       5.160  -3.570  -6.849  0.00  0.00    +0.277 A 
ATOM      5  O   UNL     1       6.030  -4.181  -6.256  0.00  0.00    -0.265 OA
ATOM      6  N   UNL     1       5.131  -3.543  -8.200  0.00  0.00    -0.312 N 
ATOM      7  C   UNL     1       4.137  -2.845  -8.856  0.00  0.00    +0.109 A 
ATOM      8  C   UNL     1       3.190  -2.186  -8.200  0.00  0.00    +0.131 A 
ATOM      9  N   UNL     1       3.153  -2.168  -6.814  0.00  0.00    -0.233 N 
ATOM     10  N   UNL     1       2.342  -1.612  -5.983  0.00  0.00    -0.166 NA
ENDROOT
BRANCH   1  14
ATOM     11  C   UNL     1       0.707  -0.490  -1.238  0.00  0.00    -0.045 A 
ATOM     12  C   UNL     1       0.220  -0.149  -2.486  0.00  0.00    +0.004 A 
ATOM     13  C   UNL     1       0.862  -0.591  -3.625  0.00  0.00    +0.010 A 
ATOM     14  C   UNL     1       2.004  -1.382  -3.516  0.00  0.00    +0.002 A 
ATOM     15  C   UNL     1       2.491  -1.722  -2.255  0.00  0.00    +0.010 A 
ATOM     16  C   UNL     1       1.844  -1.270  -1.123  0.00  0.00    +0.004 A 
BRANCH  11  18
ATOM     17  C   UNL     1      -0.019   1.526   0.010  0.00  0.00    +0.012 C 
ATOM     18  C   UNL     1       0.002  -0.004   0.002  0.00  0.00    +0.013 C 
ATOM     19  C   UNL     1      -1.433  -0.534   0.013  0.00  0.00    +0.012 C 
ENDBRANCH  11  18
ENDBRANCH   1  14
BRANCH   6  20
ATOM     20  C   UNL     1       6.156  -4.254  -8.969  0.00  0.00    +0.134 C 
BRANCH  20  21
ATOM     21  C   UNL     1       5.687  -5.685  -9.242  0.00  0.00    +0.117 C 
BRANCH  21  22
ATOM     22  C   UNL     1       6.741  -6.416 -10.033  0.00  0.00    +0.215 C 
ATOM     23  O   UNL     1       7.766  -5.849 -10.347  0.00  0.00    -0.276 OA
ATOM     24  N   UNL     1       6.544  -7.700 -10.392  0.00  0.00    -0.312 N 
ATOM     25  H   UNL     1       5.724  -8.154 -10.140  0.00  0.00    +0.149 HD
BRANCH  24  26
ATOM     26  C   UNL     1       7.569  -8.412 -11.160  0.00  0.00    +0.073 C 
ATOM     27  C   UNL     1       7.382  -8.120 -12.651  0.00  0.00    +0.022 C 
ATOM     28  C   UNL     1       8.452  -8.863 -13.453  0.00  0.00    +0.002 C 
ATOM     29  C   UNL     1       8.322 -10.368 -13.207  0.00  0.00    +0.000 C 
ATOM     30  C   UNL     1       8.508 -10.659 -11.717  0.00  0.00    +0.002 C 
ATOM     31  C   UNL     1       7.438  -9.916 -10.914  0.00  0.00    +0.022 C 
ENDBRANCH  24  26
ENDBRANCH  21  22
ENDBRANCH  20  21
ENDBRANCH   6  20
TORSDOF 6
