REMARK  Name = ZINC09911843
REMARK  15 active torsions:
REMARK  status: ('A' for Active; 'I' for Inactive)
REMARK    1  A    between atoms: C_1  and  C_2
REMARK    2  A    between atoms: C_4  and  C_33
REMARK    3  A    between atoms: N_11  and  C_12
REMARK    4  A    between atoms: C_12  and  C_13
REMARK    5  A    between atoms: C_13  and  C_14
REMARK    6  A    between atoms: C_14  and  N_67
REMARK    7  A    between atoms: C_15  and  N_67
REMARK    8  A    between atoms: C_16  and  N_67
REMARK    9  A    between atoms: C_17  and  C_19
REMARK   10  A    between atoms: C_19  and  C_20
REMARK   11  A    between atoms: C_20  and  C_21
REMARK   12  A    between atoms: C_21  and  S_22
REMARK   13  A    between atoms: S_22  and  C_25
REMARK   14  A    between atoms: C_28  and  O_31
REMARK   15  A    between atoms: O_31  and  C_32
REMARK                            x       y       z     vdW  Elec       q    Type
REMARK                         _______ _______ _______ _____ _____    ______ ____
ROOT
ATOM      1  C   UNL     1       1.310   0.690 -13.247  0.00  0.00    +0.044 C 
ATOM      2  C   UNL     1       1.007   0.856 -11.780  0.00  0.00    -0.049 A 
ATOM      3  C   UNL     1       1.886   0.370 -10.823  0.00  0.00    +0.009 A 
ATOM      4  C   UNL     1       1.635   0.508  -9.484  0.00  0.00    -0.024 A 
ATOM      5  C   UNL     1       0.461   1.155  -9.032  0.00  0.00    +0.083 A 
ATOM      6  C   UNL     1      -0.411   1.637 -10.034  0.00  0.00    +0.041 A 
ATOM      7  C   UNL     1      -0.151   1.494 -11.374  0.00  0.00    +0.020 A 
ATOM      8  S   UNL     1      -1.723   2.360  -9.078  0.00  0.00    -0.052 S 
ATOM      9  C   UNL     1      -1.053   1.989  -7.463  0.00  0.00    +0.168 A 
ATOM     10  N   UNL     1       0.069   1.376  -7.758  0.00  0.00    -0.224 NA
ATOM     11  N   UNL     1      -1.582   2.281  -6.215  0.00  0.00    -0.250 N 
ATOM     12  C   UNL     1      -0.919   1.915  -5.101  0.00  0.00    +0.221 C 
ATOM     13  O   UNL     1       0.140   1.331  -5.189  0.00  0.00    -0.275 OA
ATOM     14  C   UNL     1       2.620  -0.035  -8.481  0.00  0.00    +0.046 C 
ENDROOT
BRANCH  11  15
ATOM     15  C   UNL     1      -2.861   2.987  -6.109  0.00  0.00    +0.114 C 
BRANCH  15  16
ATOM     16  C   UNL     1      -2.609   4.496  -6.071  0.00  0.00    +0.001 C 
BRANCH  16  17
ATOM     17  C   UNL     1      -3.945   5.233  -5.960  0.00  0.00    -0.078 C 
BRANCH  17  20
ATOM     18  C   UNL     1      -4.961   7.429  -6.056  0.00  0.00    -0.097 C 
ATOM     19  C   UNL     1      -2.989   7.066  -4.699  0.00  0.00    -0.097 C 
ATOM     20  N   UNL     1      -3.687   6.688  -5.946  0.00  0.00    +0.376 N 
ATOM     21  H   UNL     1      -3.091   6.929  -6.747  0.00  0.00    -0.083 HD
ENDBRANCH  17  20
ENDBRANCH  16  17
ENDBRANCH  15  16
ENDBRANCH  11  15
BRANCH  12  22
ATOM     22  C   UNL     1      -1.493   2.232  -3.744  0.00  0.00    +0.098 C 
BRANCH  22  23
ATOM     23  C   UNL     1      -0.551   1.712  -2.657  0.00  0.00    +0.032 C 
BRANCH  23  24
ATOM     24  C   UNL     1      -1.135   2.034  -1.279  0.00  0.00    +0.172 C 
BRANCH  24  25
ATOM     25  S   UNL     1      -0.017   1.417   0.010  0.00  0.00    -0.003 S 
ATOM     26  O   UNL     1       0.002  -0.004   0.002  0.00  0.00    -0.169 OA
ATOM     27  O   UNL     1       1.195   2.158   0.002  0.00  0.00    -0.169 OA
BRANCH  25  28
ATOM     28  C   UNL     1      -0.798   1.847   1.530  0.00  0.00    +0.088 A 
ATOM     29  C   UNL     1      -0.520   3.063   2.128  0.00  0.00    +0.030 A 
ATOM     30  C   UNL     1      -1.135   3.405   3.317  0.00  0.00    +0.047 A 
ATOM     31  C   UNL     1      -2.023   2.524   3.916  0.00  0.00    +0.120 A 
ATOM     32  C   UNL     1      -2.296   1.303   3.316  0.00  0.00    +0.047 A 
ATOM     33  C   UNL     1      -1.683   0.967   2.125  0.00  0.00    +0.030 A 
BRANCH  31  34
ATOM     34  O   UNL     1      -2.626   2.856   5.088  0.00  0.00    -0.495 OA
ATOM     35  C   UNL     1      -2.298   4.129   5.647  0.00  0.00    +0.277 C 
ENDBRANCH  31  34
ENDBRANCH  25  28
ENDBRANCH  24  25
ENDBRANCH  23  24
ENDBRANCH  22  23
ENDBRANCH  12  22
TORSDOF 10
