REMARK  Name = ZINC21467236
REMARK  9 active torsions:
REMARK  status: ('A' for Active; 'I' for Inactive)
REMARK    1  A    between atoms: C_4  and  C_7
REMARK    2  A    between atoms: C_7  and  C_30
REMARK    3  A    between atoms: N_8  and  N_9
REMARK    4  A    between atoms: C_10  and  C_12
REMARK    5  A    between atoms: C_12  and  O_13
REMARK    6  A    between atoms: O_13  and  C_14
REMARK    7  A    between atoms: C_14  and  C_16
REMARK    8  A    between atoms: C_19  and  S_22
REMARK    9  A    between atoms: S_22  and  N_25
REMARK                            x       y       z     vdW  Elec       q    Type
REMARK                         _______ _______ _______ _____ _____    ______ ____
ROOT
ATOM      1  N   UNL     1      -5.037   6.803   8.001  0.00  0.00    -0.204 N 
ATOM      2  C   UNL     1      -5.255   6.492   6.708  0.00  0.00    +0.270 C 
ATOM      3  O   UNL     1      -4.887   7.247   5.832  0.00  0.00    -0.270 OA
ATOM      4  H   UNL     1      -5.370   6.118   8.795  0.00  0.00    +0.177 HD
ENDROOT
BRANCH   1   6
ATOM      5  C   UNL     1      -4.275   8.354   9.586  0.00  0.00    +0.096 C 
ATOM      6  N   UNL     1      -4.386   7.998   8.334  0.00  0.00    -0.179 NA
BRANCH   5  10
ATOM      7  C   UNL     1      -1.963  11.764  10.628  0.00  0.00    +0.000 A 
ATOM      8  C   UNL     1      -1.905  11.259   9.341  0.00  0.00    +0.001 A 
ATOM      9  C   UNL     1      -2.653  10.152   8.997  0.00  0.00    +0.010 A 
ATOM     10  C   UNL     1      -3.470   9.542   9.949  0.00  0.00    +0.002 A 
ATOM     11  C   UNL     1      -3.529  10.060  11.243  0.00  0.00    +0.010 A 
ATOM     12  C   UNL     1      -2.772  11.164  11.577  0.00  0.00    +0.001 A 
ENDBRANCH   5  10
BRANCH   5  13
ATOM     13  C   UNL     1      -4.955   7.570  10.642  0.00  0.00    +0.002 A 
ATOM     14  C   UNL     1      -6.247   7.087  10.433  0.00  0.00    +0.010 A 
ATOM     15  C   UNL     1      -6.874   6.352  11.418  0.00  0.00    +0.001 A 
ATOM     16  C   UNL     1      -6.227   6.104  12.616  0.00  0.00    +0.000 A 
ATOM     17  C   UNL     1      -4.948   6.585  12.832  0.00  0.00    +0.001 A 
ATOM     18  C   UNL     1      -4.309   7.316  11.852  0.00  0.00    +0.010 A 
ENDBRANCH   5  13
ENDBRANCH   1   6
BRANCH   2  19
ATOM     19  C   UNL     1      -5.955   5.206   6.349  0.00  0.00    +0.329 C 
BRANCH  19  20
ATOM     20  O   UNL     1      -6.068   5.103   4.906  0.00  0.00    -0.452 OA
BRANCH  20  21
ATOM     21  C   UNL     1      -6.674   4.004   4.417  0.00  0.00    +0.340 C 
ATOM     22  O   UNL     1      -7.096   3.155   5.176  0.00  0.00    -0.245 OA
BRANCH  21  23
ATOM     23  C   UNL     1      -6.825   3.831   2.957  0.00  0.00    +0.059 A 
ATOM     24  C   UNL     1      -7.453   2.693   2.447  0.00  0.00    +0.017 A 
ATOM     25  C   UNL     1      -7.591   2.538   1.084  0.00  0.00    +0.029 A 
ATOM     26  C   UNL     1      -7.109   3.507   0.222  0.00  0.00    +0.106 A 
ATOM     27  C   UNL     1      -6.482   4.635   0.720  0.00  0.00    +0.029 A 
ATOM     28  C   UNL     1      -6.341   4.805   2.082  0.00  0.00    +0.017 A 
BRANCH  26  29
ATOM     29  S   UNL     1      -7.290   3.301  -1.519  0.00  0.00    +0.061 S 
ATOM     30  O   UNL     1      -7.418   1.905  -1.751  0.00  0.00    -0.153 OA
ATOM     31  O   UNL     1      -6.272   4.084  -2.128  0.00  0.00    -0.153 OA
BRANCH  29  32
ATOM     32  N   UNL     1      -8.735   3.987  -1.946  0.00  0.00    -0.177 NA
ATOM     33  C   UNL     1     -10.031   3.296  -1.993  0.00  0.00    +0.109 C 
ATOM     34  C   UNL     1     -11.082   4.322  -2.465  0.00  0.00    +0.018 C 
ATOM     35  C   UNL     1     -10.222   5.379  -3.208  0.00  0.00    +0.018 C 
ATOM     36  C   UNL     1      -8.933   5.391  -2.349  0.00  0.00    +0.109 C 
ENDBRANCH  29  32
ENDBRANCH  26  29
ENDBRANCH  21  23
ENDBRANCH  20  21
ENDBRANCH  19  20
ENDBRANCH   2  19
TORSDOF 9
