REMARK  Name = ZINC12218784
REMARK  8 active torsions:
REMARK  status: ('A' for Active; 'I' for Inactive)
REMARK    1  A    between atoms: C_5  and  N_7
REMARK    2  A    between atoms: C_12  and  C_13
REMARK    3  A    between atoms: C_12  and  N_72
REMARK    4  A    between atoms: C_17  and  O_19
REMARK    5  A    between atoms: O_19  and  C_20
REMARK    6  A    between atoms: C_20  and  C_21
REMARK    7  A    between atoms: C_28  and  C_30
REMARK    8  A    between atoms: C_30  and  C_31
REMARK                            x       y       z     vdW  Elec       q    Type
REMARK                         _______ _______ _______ _____ _____    ______ ____
ROOT
ATOM      1  C   UNL     1      -1.220   1.750   0.017  0.00  0.00    -0.060 A 
ATOM      2  C   UNL     1      -0.013   1.076   0.008  0.00  0.00    +0.002 A 
ATOM      3  C   UNL     1       1.176   1.782   0.000  0.00  0.00    +0.004 A 
ATOM      4  C   UNL     1       1.160   3.164   0.008  0.00  0.00    +0.045 A 
ATOM      5  C   UNL     1      -0.050   3.842   0.023  0.00  0.00    +0.121 A 
ATOM      6  C   UNL     1      -1.242   3.131   0.031  0.00  0.00    +0.047 A 
ENDROOT
BRANCH   1   7
ATOM      7  C   UNL     1      -2.514   0.977   0.019  0.00  0.00    -0.043 C 
BRANCH   7  13
ATOM      8  N   UNL     1      -3.771  -0.905   3.587  0.00  0.00    -0.331 N 
ATOM      9  C   UNL     1      -4.715  -0.002   2.915  0.00  0.00    +0.086 C 
ATOM     10  C   UNL     1      -4.294   0.179   1.455  0.00  0.00    -0.059 C 
ATOM     11  C   UNL     1      -1.983  -0.186   2.077  0.00  0.00    -0.059 C 
ATOM     12  C   UNL     1      -2.405  -0.366   3.537  0.00  0.00    +0.086 C 
ATOM     13  N   UNL     1      -2.927   0.742   1.419  0.00  0.00    +0.384 N 
ATOM     14  H   UNL     1      -2.922   1.637   1.923  0.00  0.00    -0.081 HD
BRANCH   8  19
ATOM     15  C   UNL     1      -4.670  -0.347   7.107  0.00  0.00    +0.002 A 
ATOM     16  C   UNL     1      -4.943  -1.639   7.517  0.00  0.00    +0.003 A 
ATOM     17  C   UNL     1      -4.828  -2.689   6.625  0.00  0.00    +0.040 A 
ATOM     18  C   UNL     1      -4.439  -2.450   5.320  0.00  0.00    +0.144 A 
ATOM     19  C   UNL     1      -4.165  -1.152   4.905  0.00  0.00    +0.065 A 
ATOM     20  C   UNL     1      -4.277  -0.101   5.806  0.00  0.00    +0.026 A 
ATOM     21  F   UNL     1      -4.326  -3.477   4.449  0.00  0.00    -0.204 F 
ENDBRANCH   8  19
ENDBRANCH   7  13
ENDBRANCH   1   7
BRANCH   5  22
ATOM     22  O   UNL     1      -0.069   5.201   0.031  0.00  0.00    -0.492 OA
BRANCH  22  23
ATOM     23  C   UNL     1       1.196   5.867   0.023  0.00  0.00    +0.234 C 
BRANCH  23  24
ATOM     24  C   UNL     1       0.975   7.381   0.034  0.00  0.00    +0.044 C 
ATOM     25  C   UNL     1       0.314   7.791   1.352  0.00  0.00    +0.010 C 
ATOM     26  C   UNL     1       0.062   9.301   1.350  0.00  0.00    +0.019 C 
ATOM     27  C   UNL     1       1.400  10.037   1.230  0.00  0.00    +0.108 C 
ATOM     28  N   UNL     1       2.108   9.542   0.042  0.00  0.00    -0.301 N 
ATOM     29  C   UNL     1       2.323   8.095  -0.101  0.00  0.00    +0.114 C 
ATOM     30  C   UNL     1       2.552  10.398  -0.900  0.00  0.00    +0.218 C 
ATOM     31  O   UNL     1       3.135   9.977  -1.876  0.00  0.00    -0.276 OA
BRANCH  30  32
ATOM     32  C   UNL     1       2.324  11.879  -0.739  0.00  0.00    +0.127 C 
BRANCH  32  33
ATOM     33  C   UNL     1       2.921  12.620  -1.937  0.00  0.00    +0.169 C 
ATOM     34  C   UNL     1       2.815  14.120  -1.744  0.00  0.00    +0.241 C 
ATOM     35  O   UNL     1       3.318  14.781  -0.861  0.00  0.00    -0.273 OA
ATOM     36  N   UNL     1       2.046  14.564  -2.757  0.00  0.00    -0.239 N 
ATOM     37  C   UNL     1       1.656  13.564  -3.555  0.00  0.00    +0.307 C 
ATOM     38  O   UNL     1       0.956  13.717  -4.537  0.00  0.00    -0.252 OA
ATOM     39  N   UNL     1       2.125  12.370  -3.151  0.00  0.00    -0.287 N 
ATOM     40  H   UNL     1       1.806  15.494  -2.891  0.00  0.00    +0.159 HD
ATOM     41  H   UNL     1       1.970  11.512  -3.576  0.00  0.00    +0.151 HD
ENDBRANCH  32  33
ENDBRANCH  30  32
ENDBRANCH  23  24
ENDBRANCH  22  23
ENDBRANCH   5  22
TORSDOF 8
