REMARK  Name = ZINC17207826
REMARK  9 active torsions:
REMARK  status: ('A' for Active; 'I' for Inactive)
REMARK    1  A    between atoms: C_1  and  C_2
REMARK    2  A    between atoms: C_5  and  C_26
REMARK    3  A    between atoms: C_10  and  C_12
REMARK    4  A    between atoms: C_12  and  C_13
REMARK    5  A    between atoms: C_13  and  C_14
REMARK    6  A    between atoms: C_20  and  C_22
REMARK    7  A    between atoms: C_22  and  C_23
REMARK    8  A    between atoms: C_23  and  C_24
REMARK    9  A    between atoms: C_23  and  C_25
REMARK                            x       y       z     vdW  Elec       q    Type
REMARK                         _______ _______ _______ _____ _____    ______ ____
ROOT
ATOM      1  C   UNL     1       5.538  -2.522   1.660  0.00  0.00    +0.219 C 
ATOM      2  O   UNL     1       5.635  -1.314   1.624  0.00  0.00    -0.275 OA
ATOM      3  N   UNL     1       6.644  -3.284   1.766  0.00  0.00    -0.263 N 
ATOM      4  C   UNL     1       7.897  -2.685   1.835  0.00  0.00    +0.188 A 
ATOM      5  N   UNL     1       8.209  -1.404   1.818  0.00  0.00    -0.126 NA
ATOM      6  N   UNL     1       9.406  -1.007   1.889  0.00  0.00    -0.145 NA
ATOM      7  C   UNL     1      10.373  -1.897   1.983  0.00  0.00    +0.104 A 
ATOM      8  S   UNL     1       9.415  -3.407   1.970  0.00  0.00    -0.035 S 
ATOM      9  H   UNL     1       6.567  -4.251   1.795  0.00  0.00    +0.157 HD
ENDROOT
BRANCH   1  10
ATOM     10  C   UNL     1       4.180  -3.171   1.585  0.00  0.00    +0.105 C 
BRANCH  10  11
ATOM     11  C   UNL     1       3.103  -2.090   1.470  0.00  0.00    +0.105 C 
BRANCH  11  19
ATOM     12  C   UNL     1      -0.019   1.526   0.010  0.00  0.00    +0.009 C 
ATOM     13  C   UNL     1       0.002  -0.004   0.002  0.00  0.00    +0.004 C 
ATOM     14  C   UNL     1      -1.433  -0.534   0.015  0.00  0.00    +0.009 C 
ATOM     15  C   UNL     1      -1.414  -2.064  -0.027  0.00  0.00    +0.004 C 
ATOM     16  C   UNL     1      -0.692  -2.596   1.215  0.00  0.00    +0.111 C 
ATOM     17  N   UNL     1       0.639  -1.977   1.288  0.00  0.00    -0.301 N 
ATOM     18  C   UNL     1       0.742  -0.512   1.244  0.00  0.00    +0.111 C 
ATOM     19  C   UNL     1       1.746  -2.740   1.395  0.00  0.00    +0.216 C 
ATOM     20  O   UNL     1       1.648  -3.948   1.431  0.00  0.00    -0.276 OA
ATOM     21  C   UNL     1      -0.680  -2.532  -1.285  0.00  0.00    +0.009 C 
ENDBRANCH  11  19
ENDBRANCH  10  11
ENDBRANCH   1  10
BRANCH   7  22
ATOM     22  C   UNL     1      11.864  -1.700   2.080  0.00  0.00    +0.068 C 
BRANCH  22  23
ATOM     23  C   UNL     1      12.268  -1.589   3.552  0.00  0.00    -0.011 C 
ATOM     24  C   UNL     1      11.989  -2.918   4.258  0.00  0.00    +0.007 C 
ATOM     25  C   UNL     1      13.760  -1.265   3.647  0.00  0.00    +0.007 C 
ENDBRANCH  22  23
ENDBRANCH   7  22
TORSDOF 5
