REMARK  Name = ZINC03982483
REMARK  15 active torsions:
REMARK  status: ('A' for Active; 'I' for Inactive)
REMARK    1  A    between atoms: C_1  and  C_2
REMARK    2  A    between atoms: C_2  and  C_3
REMARK    3  A    between atoms: C_3  and  C_4
REMARK    4  A    between atoms: C_7  and  C_12
REMARK    5  A    between atoms: N_9  and  C_11
REMARK    6  A    between atoms: N_14  and  C_15
REMARK    7  A    between atoms: C_15  and  C_17
REMARK    8  A    between atoms: C_15  and  C_33
REMARK    9  A    between atoms: C_19  and  O_32
REMARK   10  A    between atoms: C_21  and  O_31
REMARK   11  A    between atoms: C_23  and  O_30
REMARK   12  A    between atoms: C_25  and  S_28
REMARK   13  A    between atoms: S_28  and  C_29
REMARK   14  A    between atoms: C_33  and  C_35
REMARK   15  A    between atoms: C_33  and  O_36
REMARK                            x       y       z     vdW  Elec       q    Type
REMARK                         _______ _______ _______ _____ _____    ______ ____
ROOT
ATOM      1  C   UNL     1       1.505  -6.280  -1.181  0.00  0.00    +0.132 C 
ENDROOT
BRANCH   1   2
ATOM      2  C   UNL     1       2.320  -6.667  -2.416  0.00  0.00    +0.173 C 
ATOM      3  C   UNL     1       1.414  -7.383  -3.422  0.00  0.00    +0.176 C 
ATOM      4  C   UNL     1       0.884  -8.674  -2.791  0.00  0.00    +0.177 C 
ATOM      5  C   UNL     1       2.070  -9.541  -2.357  0.00  0.00    +0.184 C 
ATOM      6  C   UNL     1       2.950  -8.742  -1.393  0.00  0.00    +0.207 C 
ATOM      7  O   UNL     1       3.384  -7.540  -2.031  0.00  0.00    -0.356 OA
BRANCH   6   8
ATOM      8  S   UNL     1       4.395  -9.736  -0.928  0.00  0.00    -0.131 S 
ATOM      9  C   UNL     1       5.158  -8.796   0.422  0.00  0.00    +0.087 C 
ENDBRANCH   6   8
BRANCH   5  10
ATOM     10  O   UNL     1       2.834  -9.915  -3.506  0.00  0.00    -0.386 OA
ATOM     11  H   UNL     1       3.602 -10.466  -3.304  0.00  0.00    +0.210 HD
ENDBRANCH   5  10
BRANCH   4  12
ATOM     12  O   UNL     1       0.081  -8.356  -1.653  0.00  0.00    -0.386 OA
ATOM     13  H   UNL     1      -0.288  -9.128  -1.204  0.00  0.00    +0.210 HD
ENDBRANCH   4  12
BRANCH   3  14
ATOM     14  O   UNL     1       0.318  -6.533  -3.766  0.00  0.00    -0.387 OA
ATOM     15  H   UNL     1      -0.298  -6.923  -4.401  0.00  0.00    +0.210 HD
ENDBRANCH   3  14
ENDBRANCH   1   2
BRANCH   1  18
ATOM     16  C   UNL     1      -0.768  -5.483  -0.812  0.00  0.00    +0.200 C 
ATOM     17  O   UNL     1      -0.784  -6.100   0.232  0.00  0.00    -0.278 OA
ATOM     18  N   UNL     1       0.330  -5.508  -1.593  0.00  0.00    -0.309 N 
ATOM     19  H   UNL     1       0.342  -5.015  -2.428  0.00  0.00    +0.149 HD
BRANCH  16  22
ATOM     20  C   UNL     1      -2.079  -2.615   0.009  0.00  0.00    -0.029 C 
ATOM     21  C   UNL     1      -1.609  -3.195  -1.351  0.00  0.00    -0.005 C 
ATOM     22  C   UNL     1      -1.977  -4.689  -1.237  0.00  0.00    +0.019 C 
ATOM     23  N   UNL     1      -3.038  -4.802  -0.219  0.00  0.00    +0.386 N 
ATOM     24  C   UNL     1      -3.357  -3.447   0.281  0.00  0.00    -0.075 C 
ATOM     25  C   UNL     1      -4.237  -5.402  -0.819  0.00  0.00    -0.095 C 
ATOM     26  H   UNL     1      -2.716  -5.378   0.544  0.00  0.00    -0.081 HD
BRANCH  20  27
ATOM     27  C   UNL     1      -2.410  -1.126  -0.115  0.00  0.00    +0.001 C 
BRANCH  27  29
ATOM     28  C   UNL     1      -1.453   1.155  -0.460  0.00  0.00    +0.004 C 
ATOM     29  C   UNL     1      -1.121  -0.333  -0.336  0.00  0.00    -0.003 C 
ENDBRANCH  27  29
ENDBRANCH  20  27
ENDBRANCH  16  22
ENDBRANCH   1  18
BRANCH   1  30
ATOM     30  C   UNL     1       2.369  -5.433  -0.244  0.00  0.00    +0.134 C 
ATOM     31  C   UNL     1       1.550  -5.036   0.985  0.00  0.00    +0.039 C 
BRANCH  30  32
ATOM     32  O   UNL     1       3.509  -6.190   0.167  0.00  0.00    -0.390 OA
ATOM     33  H   UNL     1       4.131  -6.384  -0.548  0.00  0.00    +0.210 HD
ENDBRANCH  30  32
ENDBRANCH   1  30
TORSDOF 11
