REMARK  Name = ZINC08789305
REMARK  13 active torsions:
REMARK  status: ('A' for Active; 'I' for Inactive)
REMARK    1  A    between atoms: C_1  and  C_2
REMARK    2  A    between atoms: C_2  and  O_3
REMARK    3  A    between atoms: O_3  and  C_4
REMARK    4  A    between atoms: C_4  and  C_6
REMARK    5  A    between atoms: C_10  and  N_11
REMARK    6  A    between atoms: C_12  and  C_14
REMARK    7  A    between atoms: C_14  and  N_15
REMARK    8  A    between atoms: C_22  and  C_31
REMARK    9  A    between atoms: C_23  and  C_25
REMARK   10  A    between atoms: C_25  and  O_27
REMARK   11  A    between atoms: O_27  and  C_28
REMARK   12  A    between atoms: C_28  and  C_29
REMARK   13  A    between atoms: C_28  and  C_30
REMARK                            x       y       z     vdW  Elec       q    Type
REMARK                         _______ _______ _______ _____ _____    ______ ____
ROOT
ATOM      1  N   UNL     1       3.996   0.330  -1.699  0.00  0.00    -0.278 N 
ATOM      2  C   UNL     1       2.840   0.972  -1.439  0.00  0.00    +0.238 C 
ATOM      3  O   UNL     1       2.142   1.359  -2.353  0.00  0.00    -0.273 OA
ATOM      4  H   UNL     1       4.553   0.021  -0.969  0.00  0.00    +0.155 HD
ENDROOT
BRANCH   1   9
ATOM      5  C   UNL     1       5.534  -0.518  -3.475  0.00  0.00    +0.091 A 
ATOM      6  C   UNL     1       5.707  -0.622  -4.915  0.00  0.00    -0.021 A 
ATOM      7  C   UNL     1       4.719  -0.073  -5.653  0.00  0.00    -0.004 A 
ATOM      8  S   UNL     1       3.569   0.567  -4.469  0.00  0.00    -0.077 S 
ATOM      9  C   UNL     1       4.388   0.112  -3.011  0.00  0.00    +0.086 A 
ATOM     10  C   UNL     1       4.630  -0.022  -7.148  0.00  0.00    +0.043 C 
ATOM     11  C   UNL     1       6.013  -0.357  -7.726  0.00  0.00    +0.005 C 
ATOM     12  C   UNL     1       6.548  -1.612  -7.030  0.00  0.00    +0.005 C 
ATOM     13  C   UNL     1       6.906  -1.289  -5.578  0.00  0.00    +0.037 C 
BRANCH   5  14
ATOM     14  C   UNL     1       6.530  -1.062  -2.549  0.00  0.00    +0.342 C 
ATOM     15  O   UNL     1       6.437  -2.212  -2.163  0.00  0.00    -0.245 OA
BRANCH  14  16
ATOM     16  O   UNL     1       7.551  -0.288  -2.126  0.00  0.00    -0.461 OA
BRANCH  16  18
ATOM     17  C   UNL     1       9.577   0.129  -0.842  0.00  0.00    +0.048 C 
ATOM     18  C   UNL     1       8.500  -0.894  -1.209  0.00  0.00    +0.229 C 
ENDBRANCH  16  18
ENDBRANCH  14  16
ENDBRANCH   5  14
ENDBRANCH   1   9
BRANCH   2  19
ATOM     19  C   UNL     1       2.413   1.210  -0.013  0.00  0.00    +0.222 C 
BRANCH  19  20
ATOM     20  N   UNL     1       1.133   1.921   0.002  0.00  0.00    -0.290 N 
ATOM     21  C   UNL     1       1.126   3.276   0.008  0.00  0.00    +0.203 A 
ATOM     22  N   UNL     1       0.015   3.961   0.022  0.00  0.00    -0.230 NA
ATOM     23  C   UNL     1      -1.170   3.365   0.030  0.00  0.00    +0.116 A 
ATOM     24  C   UNL     1      -1.296   1.956   0.019  0.00  0.00    +0.076 A 
ATOM     25  C   UNL     1      -0.014   1.214   0.009  0.00  0.00    +0.263 A 
ATOM     26  O   UNL     1       0.002  -0.004   0.002  0.00  0.00    -0.267 OA
ATOM     27  C   UNL     1      -2.602   1.462   0.022  0.00  0.00    -0.015 A 
ATOM     28  C   UNL     1      -3.656   2.330   0.031  0.00  0.00    +0.102 A 
ATOM     29  S   UNL     1      -2.854   3.924   0.048  0.00  0.00    -0.062 S 
ATOM     30  C   UNL     1      -2.847  -0.025   0.015  0.00  0.00    +0.046 C 
BRANCH  28  31
ATOM     31  C   UNL     1      -5.088   2.027   0.036  0.00  0.00    +0.346 C 
ATOM     32  O   UNL     1      -5.466   0.870   0.031  0.00  0.00    -0.244 OA
BRANCH  31  33
ATOM     33  O   UNL     1      -5.990   3.030   0.045  0.00  0.00    -0.458 OA
BRANCH  33  34
ATOM     34  C   UNL     1      -7.393   2.656   0.049  0.00  0.00    +0.171 C 
ATOM     35  C   UNL     1      -8.205   3.728   0.780  0.00  0.00    +0.052 C 
ATOM     36  C   UNL     1      -7.892   2.532  -1.392  0.00  0.00    +0.052 C 
ENDBRANCH  33  34
ENDBRANCH  31  33
ENDBRANCH  28  31
ENDBRANCH  19  20
ENDBRANCH   2  19
TORSDOF 9
