REMARK  Name = ZINC40611922
REMARK  7 active torsions:
REMARK  status: ('A' for Active; 'I' for Inactive)
REMARK    1  A    between atoms: C_4  and  C_7
REMARK    2  A    between atoms: C_7  and  C_8
REMARK    3  A    between atoms: C_7  and  N_14
REMARK    4  A    between atoms: C_21  and  N_35
REMARK    5  A    between atoms: C_22  and  N_26
REMARK    6  A    between atoms: N_26  and  C_27
REMARK    7  A    between atoms: C_27  and  C_28
REMARK                            x       y       z     vdW  Elec       q    Type
REMARK                         _______ _______ _______ _____ _____    ______ ____
ROOT
ATOM      1  N   UNL     1       3.232  -1.670  -1.219  0.00  0.00    -0.289 NA
ATOM      2  C   UNL     1       2.792  -1.441  -2.601  0.00  0.00    +0.104 C 
ATOM      3  C   UNL     1       2.686  -2.785  -3.330  0.00  0.00    +0.122 C 
ATOM      4  N   UNL     1       3.969  -3.492  -3.195  0.00  0.00    -0.311 N 
ATOM      5  C   UNL     1       4.543  -3.640  -1.849  0.00  0.00    +0.122 C 
ATOM      6  C   UNL     1       4.576  -2.263  -1.179  0.00  0.00    +0.104 C 
ATOM      7  C   UNL     1       4.620  -4.004  -4.306  0.00  0.00    +0.157 A 
ATOM      8  C   UNL     1       4.361  -5.301  -4.741  0.00  0.00    +0.205 A 
ATOM      9  C   UNL     1       5.039  -5.768  -5.862  0.00  0.00    +0.155 A 
ATOM     10  N   UNL     1       5.906  -4.963  -6.475  0.00  0.00    -0.218 NA
ATOM     11  C   UNL     1       6.124  -3.741  -6.032  0.00  0.00    +0.225 A 
ATOM     12  N   UNL     1       5.497  -3.261  -4.977  0.00  0.00    -0.218 NA
ENDROOT
BRANCH   8  13
ATOM     13  N   UNL     1       3.389  -6.160  -4.029  0.00  0.00    +0.063 N 
ATOM     14  O   UNL     1       2.225  -6.157  -4.356  0.00  0.00    -0.126 OA
ATOM     15  O   UNL     1       3.759  -6.867  -3.120  0.00  0.00    -0.126 OA
ENDBRANCH   8  13
BRANCH   9  16
ATOM     16  N   UNL     1       4.817  -7.052  -6.334  0.00  0.00    -0.323 N 
ATOM     17  H   UNL     1       4.184  -7.632  -5.883  0.00  0.00    +0.148 HD
BRANCH  16  18
ATOM     18  C   UNL     1       5.538  -7.533  -7.516  0.00  0.00    +0.138 C 
BRANCH  18  19
ATOM     19  C   UNL     1       5.118  -8.948  -7.818  0.00  0.00    -0.030 A 
ATOM     20  C   UNL     1       5.801 -10.008  -7.250  0.00  0.00    +0.006 A 
ATOM     21  C   UNL     1       5.416 -11.306  -7.527  0.00  0.00    +0.020 A 
ATOM     22  C   UNL     1       4.348 -11.545  -8.374  0.00  0.00    +0.041 A 
ATOM     23  C   UNL     1       3.666 -10.485  -8.942  0.00  0.00    +0.020 A 
ATOM     24  C   UNL     1       4.048  -9.187  -8.660  0.00  0.00    +0.006 A 
ATOM     25 CL   UNL     1       3.866 -13.176  -8.723  0.00  0.00    -0.084 Cl
ENDBRANCH  18  19
ENDBRANCH  16  18
ENDBRANCH   9  16
BRANCH   1  26
ATOM     26  C   UNL     1       3.181  -0.427  -0.437  0.00  0.00    +0.117 C 
BRANCH  26  30
ATOM     27  C   UNL     1      -0.761   1.208  -0.622  0.00  0.00    +0.000 A 
ATOM     28  C   UNL     1       0.338   2.044  -0.686  0.00  0.00    +0.000 A 
ATOM     29  C   UNL     1       1.614   1.515  -0.626  0.00  0.00    +0.005 A 
ATOM     30  C   UNL     1       1.790   0.150  -0.502  0.00  0.00    -0.026 A 
ATOM     31  C   UNL     1       0.691  -0.686  -0.437  0.00  0.00    +0.005 A 
ATOM     32  C   UNL     1      -0.584  -0.157  -0.498  0.00  0.00    +0.000 A 
ENDBRANCH  26  30
BRANCH  26  33
ATOM     33  C   UNL     1       3.537  -0.721   0.997  0.00  0.00    -0.026 A 
ATOM     34  C   UNL     1       3.073  -1.875   1.602  0.00  0.00    +0.005 A 
ATOM     35  C   UNL     1       3.400  -2.144   2.918  0.00  0.00    +0.000 A 
ATOM     36  C   UNL     1       4.190  -1.260   3.629  0.00  0.00    +0.000 A 
ATOM     37  C   UNL     1       4.655  -0.108   3.024  0.00  0.00    +0.000 A 
ATOM     38  C   UNL     1       4.332   0.160   1.707  0.00  0.00    +0.005 A 
ENDBRANCH  26  33
ENDBRANCH   1  26
TORSDOF 7
