REMARK  Name = ZINC11908869
REMARK  9 active torsions:
REMARK  status: ('A' for Active; 'I' for Inactive)
REMARK    1  A    between atoms: C_1  and  C_2
REMARK    2  A    between atoms: C_9  and  C_20
REMARK    3  A    between atoms: N_11  and  C_12
REMARK    4  A    between atoms: N_11  and  C_13
REMARK    5  A    between atoms: C_13  and  C_14
REMARK    6  A    between atoms: C_20  and  N_21
REMARK    7  A    between atoms: N_21  and  C_22
REMARK    8  A    between atoms: C_22  and  C_23
REMARK    9  A    between atoms: C_29  and  C_31
REMARK                            x       y       z     vdW  Elec       q    Type
REMARK                         _______ _______ _______ _____ _____    ______ ____
ROOT
ATOM      1  C   UNL     1      -0.502   4.135   2.613  0.00  0.00    +0.044 C 
ATOM      2  C   UNL     1       0.535   3.145   2.148  0.00  0.00    -0.050 A 
ATOM      3  C   UNL     1       1.883   3.494   2.181  0.00  0.00    +0.005 A 
ATOM      4  C   UNL     1       2.844   2.623   1.768  0.00  0.00    +0.026 A 
ATOM      5  C   UNL     1       2.477   1.350   1.300  0.00  0.00    +0.048 A 
ATOM      6  C   UNL     1       1.106   0.997   1.268  0.00  0.00    -0.001 A 
ATOM      7  C   UNL     1       0.142   1.918   1.706  0.00  0.00    +0.013 A 
ATOM      8  C   UNL     1       0.737  -0.280   0.798  0.00  0.00    +0.018 A 
ATOM      9  C   UNL     1       1.723  -1.129   0.393  0.00  0.00    +0.008 A 
ATOM     10  C   UNL     1       3.063  -0.721   0.449  0.00  0.00    +0.104 A 
ATOM     11  N   UNL     1       4.055  -1.595   0.032  0.00  0.00    -0.314 N 
ATOM     12  C   UNL     1       4.901  -2.008   1.160  0.00  0.00    +0.131 C 
ATOM     13  N   UNL     1       3.475   0.494   0.890  0.00  0.00    -0.343 N 
ATOM     14  H   UNL     1       4.467   0.758   0.917  0.00  0.00    +0.167 HD
ENDROOT
BRANCH  11  15
ATOM     15  C   UNL     1       4.863  -1.001  -1.042  0.00  0.00    +0.160 C 
BRANCH  15  16
ATOM     16  C   UNL     1       5.763  -2.055  -1.635  0.00  0.00    +0.053 A 
ATOM     17  C   UNL     1       5.500  -2.802  -2.732  0.00  0.00    +0.045 A 
ATOM     18  C   UNL     1       6.589  -3.655  -2.942  0.00  0.00    +0.134 A 
ATOM     19  N   UNL     1       7.473  -3.427  -2.005  0.00  0.00    -0.182 NA
ATOM     20  N   UNL     1       6.976  -2.418  -1.170  0.00  0.00    -0.280 N 
ATOM     21  H   UNL     1       7.439  -2.034  -0.371  0.00  0.00    +0.189 HD
ENDBRANCH  15  16
ENDBRANCH  11  15
BRANCH   9  22
ATOM     22  C   UNL     1       1.373  -2.504  -0.116  0.00  0.00    +0.146 C 
BRANCH  22  23
ATOM     23  N   UNL     1      -0.076  -2.701  -0.033  0.00  0.00    -0.291 N 
ATOM     24  C   UNL     1      -0.635  -3.118   1.120  0.00  0.00    +0.250 C 
ATOM     25  O   UNL     1       0.060  -3.301   2.101  0.00  0.00    -0.270 OA
BRANCH  24  26
ATOM     26  C   UNL     1      -2.091  -3.351   1.193  0.00  0.00    +0.072 A 
ATOM     27  C   UNL     1      -2.793  -3.767   0.060  0.00  0.00    +0.016 A 
ATOM     28  C   UNL     1      -4.153  -3.983   0.135  0.00  0.00    +0.001 A 
ATOM     29  C   UNL     1      -4.824  -3.790   1.330  0.00  0.00    +0.003 A 
ATOM     30  C   UNL     1      -4.139  -3.378   2.458  0.00  0.00    +0.039 A 
ATOM     31  C   UNL     1      -2.774  -3.162   2.399  0.00  0.00    +0.135 A 
ATOM     32  F   UNL     1      -2.103  -2.765   3.503  0.00  0.00    -0.205 F 
ENDBRANCH  24  26
BRANCH  23  33
ATOM     33  C   UNL     1      -0.918  -2.446  -1.205  0.00  0.00    +0.140 C 
BRANCH  33  34
ATOM     34  C   UNL     1      -0.679  -3.536  -2.252  0.00  0.00    +0.136 C 
ATOM     35  C   UNL     1      -1.560  -3.277  -3.489  0.00  0.00    +0.035 C 
ATOM     36  C   UNL     1      -0.550  -3.150  -4.655  0.00  0.00    +0.031 C 
ATOM     37  C   UNL     1       0.697  -3.872  -4.084  0.00  0.00    +0.160 C 
ATOM     38  O   UNL     1       0.690  -3.503  -2.688  0.00  0.00    -0.375 OA
ENDBRANCH  33  34
ENDBRANCH  23  33
ENDBRANCH  22  23
ENDBRANCH   9  22
TORSDOF 7
