REMARK  Name = ZINC02526562
REMARK  10 active torsions:
REMARK  status: ('A' for Active; 'I' for Inactive)
REMARK    1  A    between atoms: C_1  and  N_2
REMARK    2  A    between atoms: N_2  and  C_3
REMARK    3  A    between atoms: N_2  and  C_4
REMARK    4  A    between atoms: C_4  and  C_5
REMARK    5  A    between atoms: C_5  and  C_6
REMARK    6  A    between atoms: C_6  and  N_7
REMARK    7  A    between atoms: C_9  and  C_18
REMARK    8  A    between atoms: C_14  and  O_16
REMARK    9  A    between atoms: O_16  and  C_17
REMARK   10  A    between atoms: C_19  and  C_25
REMARK                            x       y       z     vdW  Elec       q    Type
REMARK                         _______ _______ _______ _____ _____    ______ ____
ROOT
ATOM      1  N   UNL     1      -4.186  -0.254  -2.519  0.00  0.00    -0.346 N 
ATOM      2  C   UNL     1      -4.963   0.852  -2.672  0.00  0.00    +0.095 A 
ATOM      3  C   UNL     1      -5.432   0.910  -3.951  0.00  0.00    +0.013 A 
ATOM      4  C   UNL     1      -4.893  -0.270  -4.651  0.00  0.00    +0.011 A 
ATOM      5  C   UNL     1      -4.116  -0.959  -3.705  0.00  0.00    +0.050 A 
ATOM      6  C   UNL     1      -3.465  -2.130  -4.077  0.00  0.00    +0.030 A 
ATOM      7  C   UNL     1      -3.581  -2.604  -5.365  0.00  0.00    +0.047 A 
ATOM      8  C   UNL     1      -4.348  -1.920  -6.304  0.00  0.00    +0.121 A 
ATOM      9  C   UNL     1      -5.009  -0.759  -5.950  0.00  0.00    +0.056 A 
ENDROOT
BRANCH   3  10
ATOM     10  C   UNL     1      -6.306   1.949  -4.522  0.00  0.00    +0.059 C 
ATOM     11  C   UNL     1      -5.941   3.239  -4.889  0.00  0.00    +0.059 C 
ATOM     12  C   UNL     1      -7.168   3.881  -5.404  0.00  0.00    +0.252 C 
ATOM     13  O   UNL     1      -7.251   5.018  -5.823  0.00  0.00    -0.270 OA
ATOM     14  N   UNL     1      -8.178   2.996  -5.332  0.00  0.00    -0.248 N 
ATOM     15  C   UNL     1      -7.747   1.828  -4.827  0.00  0.00    +0.252 C 
ATOM     16  O   UNL     1      -8.428   0.839  -4.649  0.00  0.00    -0.270 OA
ATOM     17  H   UNL     1      -9.090   3.175  -5.610  0.00  0.00    +0.158 HD
BRANCH  11  18
ATOM     18  C   UNL     1      -4.603   3.844  -4.785  0.00  0.00    +0.013 A 
ATOM     19  C   UNL     1      -3.533   3.601  -5.594  0.00  0.00    +0.092 A 
ATOM     20  N   UNL     1      -2.470   4.347  -5.185  0.00  0.00    -0.360 N 
ATOM     21  H   UNL     1      -1.596   4.345  -5.606  0.00  0.00    +0.165 HD
ATOM     22  C   UNL     1      -2.813   5.108  -4.087  0.00  0.00    +0.047 A 
ATOM     23  C   UNL     1      -4.159   4.836  -3.789  0.00  0.00    +0.008 A 
ATOM     24  C   UNL     1      -4.780   5.475  -2.719  0.00  0.00    +0.010 A 
ATOM     25  C   UNL     1      -4.069   6.377  -1.958  0.00  0.00    +0.001 A 
ATOM     26  C   UNL     1      -2.742   6.650  -2.253  0.00  0.00    +0.002 A 
ATOM     27  C   UNL     1      -2.112   6.018  -3.303  0.00  0.00    +0.026 A 
ENDBRANCH  11  18
ENDBRANCH   3  10
BRANCH   8  28
ATOM     28  O   UNL     1      -4.453  -2.400  -7.572  0.00  0.00    -0.495 OA
ATOM     29  C   UNL     1      -3.751  -3.608  -7.869  0.00  0.00    +0.277 C 
ENDBRANCH   8  28
BRANCH   1  30
ATOM     30  C   UNL     1      -3.513  -0.640  -1.275  0.00  0.00    +0.120 C 
BRANCH  30  31
ATOM     31  C   UNL     1      -2.078  -0.110  -1.286  0.00  0.00    +0.003 C 
BRANCH  31  32
ATOM     32  C   UNL     1      -1.376  -0.512   0.012  0.00  0.00    -0.078 C 
BRANCH  32  34
ATOM     33  C   UNL     1      -0.018   1.465   0.010  0.00  0.00    -0.097 C 
ATOM     34  N   UNL     1       0.002  -0.004   0.002  0.00  0.00    +0.376 N 
ATOM     35  C   UNL     1       0.713  -0.491   1.192  0.00  0.00    -0.097 C 
ATOM     36  H   UNL     1       0.474  -0.330  -0.828  0.00  0.00    -0.083 HD
ENDBRANCH  32  34
ENDBRANCH  31  32
ENDBRANCH  30  31
ENDBRANCH   1  30
TORSDOF 7
