REMARK  Name = ZINC12657105
REMARK  11 active torsions:
REMARK  status: ('A' for Active; 'I' for Inactive)
REMARK    1  A    between atoms: C_1  and  C_2
REMARK    2  A    between atoms: C_15  and  O_35
REMARK    3  A    between atoms: C_18  and  C_34
REMARK    4  A    between atoms: C_22  and  C_24
REMARK    5  A    between atoms: C_22  and  O_33
REMARK    6  A    between atoms: C_24  and  C_26
REMARK    7  A    between atoms: C_26  and  S_27
REMARK    8  A    between atoms: S_27  and  C_28
REMARK    9  A    between atoms: C_28  and  C_29
REMARK   10  A    between atoms: C_29  and  O_31
REMARK   11  A    between atoms: O_31  and  C_32
REMARK                            x       y       z     vdW  Elec       q    Type
REMARK                         _______ _______ _______ _____ _____    ______ ____
ROOT
ATOM      1  C   UNL     1      -0.691   1.850   1.256  0.00  0.00    +0.016 C 
ATOM      2  C   UNL     1       0.015   1.396  -0.024  0.00  0.00    -0.005 C 
ATOM      3  C   UNL     1      -0.728   1.903  -1.254  0.00  0.00    +0.019 C 
ATOM      4  C   UNL     1      -2.129   1.290  -1.320  0.00  0.00    +0.080 C 
ATOM      5  C   UNL     1      -2.022  -0.211  -1.262  0.00  0.00    +0.156 C 
ATOM      6  O   UNL     1      -2.894  -0.900  -1.753  0.00  0.00    -0.293 OA
ATOM      7  C   UNL     1      -0.874  -0.840  -0.615  0.00  0.00    +0.046 C 
ATOM      8  C   UNL     1       0.077  -0.115  -0.039  0.00  0.00    -0.060 C 
ATOM      9  C   UNL     1       1.250  -0.796   0.626  0.00  0.00    +0.032 C 
ATOM     10  C   UNL     1       2.547  -0.358  -0.058  0.00  0.00    +0.008 C 
ATOM     11  C   UNL     1       2.318   0.934  -0.826  0.00  0.00    -0.001 C 
ATOM     12  C   UNL     1       1.461   1.914  -0.023  0.00  0.00    +0.031 C 
ATOM     13  C   UNL     1       1.554   3.314  -0.614  0.00  0.00    +0.119 C 
ATOM     14  C   UNL     1       2.976   3.885  -0.533  0.00  0.00    +0.038 C 
ATOM     15  C   UNL     1       4.001   2.781  -0.424  0.00  0.00    -0.024 C 
ATOM     16  C   UNL     1       3.583   1.584  -1.300  0.00  0.00    +0.002 C 
ATOM     17  C   UNL     1       4.857   0.726  -1.292  0.00  0.00    +0.047 C 
ATOM     18  C   UNL     1       5.973   1.788  -1.489  0.00  0.00    +0.125 C 
ATOM     19  C   UNL     1       5.375   3.138  -1.030  0.00  0.00    +0.049 C 
ATOM     20  C   UNL     1       4.233   2.399   1.038  0.00  0.00    +0.011 C 
ENDROOT
BRANCH  18  21
ATOM     21  C   UNL     1       7.181   1.438  -0.661  0.00  0.00    +0.174 C 
ATOM     22  O   UNL     1       7.256   1.811   0.485  0.00  0.00    -0.293 OA
BRANCH  21  23
ATOM     23  C   UNL     1       8.296   0.621  -1.262  0.00  0.00    +0.147 C 
BRANCH  23  24
ATOM     24  S   UNL     1       9.596   0.369  -0.023  0.00  0.00    -0.142 S 
BRANCH  24  25
ATOM     25  C   UNL     1      10.846  -0.617  -0.893  0.00  0.00    +0.190 C 
BRANCH  25  26
ATOM     26  C   UNL     1      11.998  -0.900   0.036  0.00  0.00    +0.317 C 
ATOM     27  O   UNL     1      11.978  -0.481   1.169  0.00  0.00    -0.250 OA
BRANCH  26  28
ATOM     28  O   UNL     1      13.046  -1.619  -0.395  0.00  0.00    -0.467 OA
ATOM     29  C   UNL     1      14.120  -1.854   0.554  0.00  0.00    +0.280 C 
ENDBRANCH  26  28
ENDBRANCH  25  26
ENDBRANCH  24  25
ENDBRANCH  23  24
ENDBRANCH  21  23
ENDBRANCH  18  21
BRANCH  18  30
ATOM     30  O   UNL     1       6.335   1.860  -2.870  0.00  0.00    -0.381 OA
ATOM     31  H   UNL     1       6.716   1.044  -3.220  0.00  0.00    +0.211 HD
ENDBRANCH  18  30
BRANCH  13  32
ATOM     32  O   UNL     1       0.675   4.205   0.086  0.00  0.00    -0.391 OA
ATOM     33  H   UNL     1       0.690   5.113  -0.245  0.00  0.00    +0.210 HD
ENDBRANCH  13  32
TORSDOF 8
