REMARK  Name = ZINC41769928
REMARK  3 active torsions:
REMARK  status: ('A' for Active; 'I' for Inactive)
REMARK    1  A    between atoms: C_5  and  N_8
REMARK    2  A    between atoms: N_8  and  C_9
REMARK    3  A    between atoms: C_9  and  C_14
REMARK                            x       y       z     vdW  Elec       q    Type
REMARK                         _______ _______ _______ _____ _____    ______ ____
ROOT
ATOM      1  N   UNL     1       0.780  -1.597   0.737  0.00  0.00    -0.326 N 
ATOM      2  H   UNL     1       1.427  -1.583   1.460  0.00  0.00    +0.147 HD
ENDROOT
BRANCH   1   7
ATOM      3  C   UNL     1       1.016   0.975  -1.882  0.00  0.00    +0.042 A 
ATOM      4  C   UNL     1       0.043   1.865  -1.464  0.00  0.00    +0.044 A 
ATOM      5  C   UNL     1      -0.685   1.609  -0.316  0.00  0.00    +0.042 A 
ATOM      6  C   UNL     1      -0.443   0.461   0.416  0.00  0.00    +0.065 A 
ATOM      7  C   UNL     1       0.533  -0.435  -0.002  0.00  0.00    +0.065 A 
ATOM      8  C   UNL     1       1.263  -0.174  -1.155  0.00  0.00    +0.065 A 
ATOM      9 CL   UNL     1       2.483  -1.291  -1.681  0.00  0.00    -0.082 Cl
ATOM     10 CL   UNL     1      -1.358   0.141   1.857  0.00  0.00    -0.082 Cl
ATOM     11 CL   UNL     1      -0.263   3.307  -2.380  0.00  0.00    -0.083 Cl
ENDBRANCH   1   7
BRANCH   1  12
ATOM     12  C   UNL     1       0.062  -2.834   0.420  0.00  0.00    +0.144 C 
ATOM     13  C   UNL     1       1.010  -3.773  -0.323  0.00  0.00    +0.049 C 
ATOM     14  C   UNL     1       1.767  -4.683   0.684  0.00  0.00    +0.072 C 
ATOM     15  S   UNL     1       0.396  -5.035   1.871  0.00  0.00    -0.158 S 
ATOM     16  C   UNL     1      -0.495  -3.431   1.727  0.00  0.00    +0.106 C 
BRANCH  12  17
ATOM     17  C   UNL     1      -1.093  -2.500  -0.489  0.00  0.00    +0.380 C 
ATOM     18  O   UNL     1      -0.915  -1.795  -1.467  0.00  0.00    -0.244 OA
ATOM     19  O   UNL     1      -2.206  -2.935  -0.245  0.00  0.00    -0.244 OA
ENDBRANCH  12  17
ENDBRANCH   1  12
TORSDOF 3
