REMARK  Name = ZINC14125148
REMARK  3 active torsions:
REMARK  status: ('A' for Active; 'I' for Inactive)
REMARK    1  A    between atoms: C_5  and  C_7
REMARK    2  A    between atoms: C_10  and  C_12
REMARK    3  A    between atoms: N_14  and  C_15
REMARK                            x       y       z     vdW  Elec       q    Type
REMARK                         _______ _______ _______ _____ _____    ______ ____
ROOT
ATOM      1  C   UNL     1       3.576   3.171   0.087  0.00  0.00    +0.284 C 
ATOM      2  O   UNL     1       3.575   1.954   0.080  0.00  0.00    -0.266 OA
ATOM      3  N   UNL     1       2.414   3.848   0.000  0.00  0.00    -0.277 N 
ATOM      4  H   UNL     1       2.420   4.815  -0.075  0.00  0.00    +0.155 HD
ENDROOT
BRANCH   3   5
ATOM      5  C   UNL     1       1.202   3.156   0.019  0.00  0.00    +0.060 A 
ATOM      6  C   UNL     1       1.118   1.917   0.616  0.00  0.00    +0.025 A 
ATOM      7  C   UNL     1      -0.085   1.218   0.642  0.00  0.00    +0.003 A 
ATOM      8  C   UNL     1      -1.209   1.736   0.073  0.00  0.00    +0.010 A 
ATOM      9  C   UNL     1      -1.166   2.998  -0.540  0.00  0.00    +0.002 A 
ATOM     10  C   UNL     1       0.051   3.721  -0.574  0.00  0.00    +0.092 A 
ATOM     11  N   UNL     1       0.097   4.921  -1.160  0.00  0.00    -0.253 NA
ATOM     12  C   UNL     1      -0.968   5.450  -1.713  0.00  0.00    +0.111 A 
ATOM     13  C   UNL     1      -2.196   4.793  -1.715  0.00  0.00    +0.020 A 
ATOM     14  C   UNL     1      -2.312   3.563  -1.132  0.00  0.00    +0.011 A 
ENDBRANCH   3   5
BRANCH   1  18
ATOM     15  C   UNL     1       6.288   5.552   0.310  0.00  0.00    +0.139 A 
ATOM     16  C   UNL     1       7.009   4.393   0.359  0.00  0.00    +0.051 A 
ATOM     17  C   UNL     1       6.096   3.337   0.288  0.00  0.00    +0.055 A 
ATOM     18  C   UNL     1       4.842   3.901   0.189  0.00  0.00    +0.190 A 
ATOM     19  O   UNL     1       4.984   5.243   0.207  0.00  0.00    -0.450 OA
BRANCH  15  24
ATOM     20  C   UNL     1       6.995   9.140  -0.538  0.00  0.00    +0.001 A 
ATOM     21  C   UNL     1       7.897   9.480   0.456  0.00  0.00    +0.003 A 
ATOM     22  C   UNL     1       8.278   8.547   1.403  0.00  0.00    +0.039 A 
ATOM     23  C   UNL     1       7.755   7.268   1.365  0.00  0.00    +0.134 A 
ATOM     24  C   UNL     1       6.847   6.917   0.361  0.00  0.00    +0.052 A 
ATOM     25  C   UNL     1       6.469   7.866  -0.591  0.00  0.00    +0.014 A 
ATOM     26  F   UNL     1       8.123   6.358   2.294  0.00  0.00    -0.205 F 
ENDBRANCH  15  24
ENDBRANCH   1  18
TORSDOF 3
