REMARK  Name = ZINC43597115
REMARK  5 active torsions:
REMARK  status: ('A' for Active; 'I' for Inactive)
REMARK    1  A    between atoms: C_6  and  C_7
REMARK    2  A    between atoms: C_7  and  C_8
REMARK    3  A    between atoms: C_8  and  N_9
REMARK    4  A    between atoms: N_9  and  C_10
REMARK    5  A    between atoms: C_13  and  N_17
REMARK                            x       y       z     vdW  Elec       q    Type
REMARK                         _______ _______ _______ _____ _____    ______ ____
ROOT
ATOM      1  N   UNL     1      -3.004  -1.778  -1.420  0.00  0.00    -0.343 N 
ATOM      2  H   UNL     1      -3.413  -2.030  -0.578  0.00  0.00    +0.146 HD
ENDROOT
BRANCH   1   3
ATOM      3  C   UNL     1      -3.618  -2.129  -2.629  0.00  0.00    +0.041 A 
ATOM      4  C   UNL     1      -3.030  -1.773  -3.836  0.00  0.00    +0.026 A 
ATOM      5  C   UNL     1      -3.635  -2.119  -5.027  0.00  0.00    +0.024 A 
ATOM      6  C   UNL     1      -4.832  -2.824  -5.020  0.00  0.00    +0.026 A 
ATOM      7  C   UNL     1      -5.420  -3.181  -3.814  0.00  0.00    +0.039 A 
ATOM      8  C   UNL     1      -4.811  -2.840  -2.621  0.00  0.00    +0.040 A 
ATOM      9 BR   UNL     1      -5.607  -3.333  -0.978  0.00  0.00    -0.048 Br
BRANCH   6  10
ATOM     10  N   UNL     1      -5.445  -3.175  -6.229  0.00  0.00    -0.358 N 
ATOM     11  H   UNL     1      -5.034  -2.925  -7.071  0.00  0.00    +0.142 HD
ATOM     12  H   UNL     1      -6.280  -3.668  -6.223  0.00  0.00    +0.142 HD
ENDBRANCH   6  10
ENDBRANCH   1   3
BRANCH   1  13
ATOM     13  C   UNL     1      -1.745  -1.028  -1.429  0.00  0.00    +0.106 C 
BRANCH  13  14
ATOM     14  C   UNL     1      -1.293  -0.775   0.011  0.00  0.00    +0.054 C 
BRANCH  14  20
ATOM     15  C   UNL     1      -0.017   1.378   0.010  0.00  0.00    +0.005 A 
ATOM     16  C   UNL     1       1.171   2.086   0.002  0.00  0.00    +0.020 A 
ATOM     17  C   UNL     1       2.378   1.410  -0.013  0.00  0.00    +0.041 A 
ATOM     18  C   UNL     1       2.396   0.027  -0.021  0.00  0.00    +0.020 A 
ATOM     19  C   UNL     1       1.208  -0.679  -0.013  0.00  0.00    +0.005 A 
ATOM     20  C   UNL     1       0.002  -0.004   0.002  0.00  0.00    -0.046 A 
ATOM     21 CL   UNL     1       3.870   2.298  -0.023  0.00  0.00    -0.084 Cl
ENDBRANCH  14  20
ENDBRANCH  13  14
ENDBRANCH   1  13
TORSDOF 5
