REMARK  Name = ZINC44879792
REMARK  9 active torsions:
REMARK  status: ('A' for Active; 'I' for Inactive)
REMARK    1  A    between atoms: C_1  and  C_2
REMARK    2  A    between atoms: N_7  and  C_9
REMARK    3  A    between atoms: C_9  and  C_10
REMARK    4  A    between atoms: C_13  and  C_16
REMARK    5  A    between atoms: C_16  and  N_17
REMARK    6  A    between atoms: N_17  and  S_18
REMARK    7  A    between atoms: S_18  and  C_21
REMARK    8  A    between atoms: C_21  and  C_22
REMARK    9  A    between atoms: C_26  and  N_28
REMARK                            x       y       z     vdW  Elec       q    Type
REMARK                         _______ _______ _______ _____ _____    ______ ____
ROOT
ATOM      1  C   UNL     1       1.060  -8.227   2.682  0.00  0.00    +0.140 C 
ENDROOT
BRANCH   1   5
ATOM      2  C   UNL     1       1.321  -3.966   2.518  0.00  0.00    -0.064 A 
ATOM      3  C   UNL     1       0.233  -4.569   3.122  0.00  0.00    +0.002 A 
ATOM      4  C   UNL     1       0.149  -5.948   3.174  0.00  0.00    +0.005 A 
ATOM      5  C   UNL     1       1.151  -6.724   2.623  0.00  0.00    -0.032 A 
ATOM      6  C   UNL     1       2.239  -6.121   2.019  0.00  0.00    +0.005 A 
ATOM      7  C   UNL     1       2.321  -4.742   1.963  0.00  0.00    +0.002 A 
BRANCH   2   8
ATOM      8  C   UNL     1       1.413  -2.463   2.461  0.00  0.00    -0.043 C 
BRANCH   8  14
ATOM      9  C   UNL     1      -0.019   1.526   0.010  0.00  0.00    +0.005 C 
ATOM     10  C   UNL     1       0.002  -0.004   0.002  0.00  0.00    -0.031 C 
ATOM     11  C   UNL     1       0.721  -0.499  -1.257  0.00  0.00    -0.001 C 
ATOM     12  C   UNL     1       0.805  -2.027  -1.217  0.00  0.00    -0.018 C 
ATOM     13  C   UNL     1       1.518  -2.460   0.066  0.00  0.00    -0.078 C 
ATOM     14  N   UNL     1       0.768  -1.979   1.233  0.00  0.00    +0.383 N 
ATOM     15  C   UNL     1       0.744  -0.512   1.240  0.00  0.00    -0.075 C 
ATOM     16  H   UNL     1      -0.177  -2.330   1.192  0.00  0.00    -0.081 HD
ENDBRANCH   8  14
ENDBRANCH   2   8
ENDBRANCH   1   5
BRANCH   1  17
ATOM     17  N   UNL     1       0.361  -8.720   1.492  0.00  0.00    -0.190 NA
ATOM     18  H   UNL     1      -0.144  -8.105   0.937  0.00  0.00    +0.148 HD
BRANCH  17  19
ATOM     19  S   UNL     1       0.434 -10.326   1.095  0.00  0.00    +0.034 S 
ATOM     20  O   UNL     1      -0.321 -10.438  -0.103  0.00  0.00    -0.158 OA
ATOM     21  O   UNL     1       1.820 -10.640   1.111  0.00  0.00    -0.158 OA
BRANCH  19  22
ATOM     22  C   UNL     1      -0.415 -11.180   2.451  0.00  0.00    +0.220 C 
BRANCH  22  23
ATOM     23  C   UNL     1      -0.409 -12.665   2.192  0.00  0.00    -0.023 A 
ATOM     24  C   UNL     1      -1.441 -13.247   1.480  0.00  0.00    +0.005 A 
ATOM     25  C   UNL     1      -1.435 -14.608   1.242  0.00  0.00    +0.003 A 
ATOM     26  C   UNL     1      -0.396 -15.388   1.716  0.00  0.00    +0.033 A 
ATOM     27  C   UNL     1       0.636 -14.806   2.427  0.00  0.00    +0.127 A 
ATOM     28  C   UNL     1       0.632 -13.444   2.662  0.00  0.00    +0.038 A 
BRANCH  27  29
ATOM     29  N   UNL     1       1.748 -15.641   2.935  0.00  0.00    +0.056 N 
ATOM     30  O   UNL     1       1.752 -16.832   2.728  0.00  0.00    -0.126 OA
ATOM     31  O   UNL     1       2.651 -15.132   3.558  0.00  0.00    -0.126 OA
ENDBRANCH  27  29
ENDBRANCH  22  23
ENDBRANCH  19  22
ENDBRANCH  17  19
ENDBRANCH   1  17
TORSDOF 8
