REMARK  Name = ZINC36162930
REMARK  3 active torsions:
REMARK  status: ('A' for Active; 'I' for Inactive)
REMARK    1  A    between atoms: C_2  and  C_15
REMARK    2  A    between atoms: C_4  and  C_6
REMARK    3  A    between atoms: C_6  and  N_7
REMARK                            x       y       z     vdW  Elec       q    Type
REMARK                         _______ _______ _______ _____ _____    ______ ____
ROOT
ATOM      1  C   UNL     1       2.455  -1.500  -0.030  0.00  0.00    +0.147 C 
ENDROOT
BRANCH   1   2
ATOM      2  N   UNL     1       2.723  -1.926   1.350  0.00  0.00    -0.293 NA
ATOM      3  C   UNL     1       3.579  -0.959   2.041  0.00  0.00    +0.107 C 
ATOM      4  C   UNL     1       3.490  -1.174   3.555  0.00  0.00    +0.181 C 
ATOM      5  S   UNL     1       4.106  -2.842   3.940  0.00  0.00    -0.029 S 
ATOM      6  O   UNL     1       3.728  -3.169   5.270  0.00  0.00    -0.174 OA
ATOM      7  O   UNL     1       5.475  -2.916   3.569  0.00  0.00    -0.174 OA
ATOM      8  C   UNL     1       3.134  -3.867   2.793  0.00  0.00    +0.181 C 
ATOM      9  C   UNL     1       3.271  -3.284   1.383  0.00  0.00    +0.107 C 
ENDBRANCH   1   2
BRANCH   1  13
ATOM     10  C   UNL     1      -0.022   1.781   0.012  0.00  0.00    +0.071 A 
ATOM     11  C   UNL     1       1.309   2.050   0.001  0.00  0.00    +0.063 A 
ATOM     12  N   UNL     1       2.126   1.016  -0.013  0.00  0.00    -0.246 NA
ATOM     13  C   UNL     1       1.672  -0.212  -0.015  0.00  0.00    +0.093 A 
ATOM     14  S   UNL     1       0.002  -0.004   0.002  0.00  0.00    -0.079 S 
BRANCH  11  15
ATOM     15  C   UNL     1       1.827   3.465   0.003  0.00  0.00    +0.164 C 
ATOM     16 CL   UNL     1       2.051   4.020   1.703  0.00  0.00    -0.119 Cl
ENDBRANCH  11  15
ENDBRANCH   1  13
TORSDOF 3
