REMARK  Name = ZINC66278559
REMARK  7 active torsions:
REMARK  status: ('A' for Active; 'I' for Inactive)
REMARK    1  A    between atoms: C_1  and  C_2
REMARK    2  A    between atoms: C_2  and  C_4
REMARK    3  A    between atoms: C_2  and  N_20
REMARK    4  A    between atoms: C_4  and  C_5
REMARK    5  A    between atoms: N_7  and  C_8
REMARK    6  A    between atoms: C_16  and  C_17
REMARK    7  A    between atoms: C_21  and  C_23
REMARK                            x       y       z     vdW  Elec       q    Type
REMARK                         _______ _______ _______ _____ _____    ______ ____
ROOT
ATOM      1  C   UNL     1       0.694  -2.006   1.339  0.00  0.00    +0.219 C 
ATOM      2  O   UNL     1       0.020  -2.607   0.530  0.00  0.00    -0.275 OA
ATOM      3  N   UNL     1       1.529  -2.680   2.155  0.00  0.00    -0.282 N 
ATOM      4  H   UNL     1       2.125  -2.196   2.748  0.00  0.00    +0.155 HD
ENDROOT
BRANCH   3   5
ATOM      5  C   UNL     1       1.536  -4.071   2.148  0.00  0.00    +0.092 A 
ATOM      6  C   UNL     1       1.321  -4.950   0.992  0.00  0.00    +0.042 A 
ATOM      7  C   UNL     1       1.061  -4.729  -0.361  0.00  0.00    +0.013 A 
ATOM      8  C   UNL     1       0.907  -5.793  -1.204  0.00  0.00    +0.001 A 
ATOM      9  C   UNL     1       1.006  -7.091  -0.723  0.00  0.00    +0.004 A 
ATOM     10  C   UNL     1       1.262  -7.330   0.610  0.00  0.00    +0.047 A 
ATOM     11  C   UNL     1       1.423  -6.262   1.486  0.00  0.00    +0.138 A 
ATOM     12  O   UNL     1       1.675  -6.187   2.808  0.00  0.00    -0.448 OA
ATOM     13  C   UNL     1       1.750  -4.899   3.214  0.00  0.00    +0.211 A 
BRANCH  13  14
ATOM     14  C   UNL     1       2.016  -4.461   4.583  0.00  0.00    +0.279 C 
ATOM     15  O   UNL     1       1.954  -3.279   4.867  0.00  0.00    -0.267 OA
ATOM     16  N   UNL     1       2.330  -5.366   5.532  0.00  0.00    -0.323 N 
ATOM     17  H   UNL     1       2.379  -6.308   5.306  0.00  0.00    +0.145 HD
ATOM     18  H   UNL     1       2.506  -5.075   6.440  0.00  0.00    +0.145 HD
ENDBRANCH  13  14
ENDBRANCH   3   5
BRANCH   1  19
ATOM     19  C   UNL     1       0.599  -0.505   1.432  0.00  0.00    +0.118 C 
BRANCH  19  21
ATOM     20  C   UNL     1      -0.417   1.537   0.412  0.00  0.00    +0.028 C 
ATOM     21  C   UNL     1      -0.411   0.007   0.404  0.00  0.00    +0.079 C 
BRANCH  21  22
ATOM     22  N   UNL     1      -1.748  -0.488   0.745  0.00  0.00    -0.312 N 
ATOM     23  C   UNL     1      -2.684  -0.615  -0.216  0.00  0.00    +0.216 C 
ATOM     24  O   UNL     1      -2.421  -0.320  -1.362  0.00  0.00    -0.276 OA
ATOM     25  H   UNL     1      -1.958  -0.724   1.662  0.00  0.00    +0.149 HD
BRANCH  23  26
ATOM     26  C   UNL     1      -4.059  -1.124   0.135  0.00  0.00    +0.075 C 
ATOM     27  C   UNL     1      -3.946  -2.530   0.729  0.00  0.00    +0.013 C 
ATOM     28  C   UNL     1      -5.341  -3.046   1.085  0.00  0.00    +0.001 C 
ATOM     29  C   UNL     1      -6.205  -3.094  -0.177  0.00  0.00    +0.000 C 
ATOM     30  C   UNL     1      -6.317  -1.689  -0.772  0.00  0.00    +0.001 C 
ATOM     31  C   UNL     1      -4.922  -1.172  -1.128  0.00  0.00    +0.013 C 
ENDBRANCH  23  26
ENDBRANCH  21  22
ENDBRANCH  19  21
ENDBRANCH   1  19
TORSDOF 6
