REMARK  Name = ZINC57317391
REMARK  10 active torsions:
REMARK  status: ('A' for Active; 'I' for Inactive)
REMARK    1  A    between atoms: C_1  and  C_2
REMARK    2  A    between atoms: N_4  and  C_5
REMARK    3  A    between atoms: C_8  and  S_13
REMARK    4  A    between atoms: S_13  and  C_14
REMARK    5  A    between atoms: C_14  and  C_15
REMARK    6  A    between atoms: C_15  and  O_16
REMARK    7  A    between atoms: O_16  and  C_17
REMARK    8  A    between atoms: C_17  and  C_19
REMARK    9  A    between atoms: C_22  and  C_24
REMARK   10  A    between atoms: C_29  and  N_30
REMARK                            x       y       z     vdW  Elec       q    Type
REMARK                         _______ _______ _______ _____ _____    ______ ____
ROOT
ATOM      1  O   UNL     1       1.925  -9.004  -0.443  0.00  0.00    -0.458 OA
ENDROOT
BRANCH   1   2
ATOM      2  C   UNL     1       2.196 -10.323  -0.524  0.00  0.00    +0.375 C 
ATOM      3  O   UNL     1       1.286 -11.126  -0.615  0.00  0.00    -0.241 OA
BRANCH   2   4
ATOM      4  C   UNL     1       3.583 -10.789  -0.502  0.00  0.00    +0.212 A 
ATOM      5  C   UNL     1       3.998 -12.101  -0.582  0.00  0.00    +0.057 A 
ATOM      6  C   UNL     1       5.395 -12.086  -0.524  0.00  0.00    +0.051 A 
ATOM      7  C   UNL     1       5.779 -10.780  -0.413  0.00  0.00    +0.138 A 
ATOM      8  O   UNL     1       4.680 -10.007  -0.405  0.00  0.00    -0.448 OA
BRANCH   7   9
ATOM      9  C   UNL     1       7.171 -10.296  -0.321  0.00  0.00    +0.047 A 
ATOM     10  C   UNL     1       8.054 -10.870   0.597  0.00  0.00    +0.014 A 
ATOM     11  C   UNL     1       9.353 -10.414   0.677  0.00  0.00    +0.001 A 
ATOM     12  C   UNL     1       9.782  -9.390  -0.149  0.00  0.00    +0.002 A 
ATOM     13  C   UNL     1       8.913  -8.817  -1.060  0.00  0.00    +0.033 A 
ATOM     14  C   UNL     1       7.613  -9.268  -1.156  0.00  0.00    +0.137 A 
BRANCH  14  15
ATOM     15  N   UNL     1       6.686  -8.658  -2.136  0.00  0.00    +0.057 N 
ATOM     16  O   UNL     1       7.070  -7.768  -2.858  0.00  0.00    -0.126 OA
ATOM     17  O   UNL     1       5.545  -9.051  -2.214  0.00  0.00    -0.126 OA
ENDBRANCH  14  15
ENDBRANCH   7   9
ENDBRANCH   2   4
ENDBRANCH   1   2
BRANCH   1  18
ATOM     18  C   UNL     1       0.549  -8.621  -0.470  0.00  0.00    +0.243 C 
BRANCH  18  19
ATOM     19  C   UNL     1       0.441  -7.098  -0.369  0.00  0.00    +0.115 C 
BRANCH  19  20
ATOM     20  S   UNL     1      -1.306  -6.612  -0.404  0.00  0.00    -0.120 S 
BRANCH  20  24
ATOM     21  C   UNL     1      -1.192  -2.092  -0.088  0.00  0.00    +0.053 A 
ATOM     22  C   UNL     1      -0.009  -2.818  -0.092  0.00  0.00    +0.026 A 
ATOM     23  C   UNL     1      -0.044  -4.195  -0.188  0.00  0.00    +0.018 A 
ATOM     24  C   UNL     1      -1.263  -4.855  -0.281  0.00  0.00    +0.028 A 
ATOM     25  C   UNL     1      -2.448  -4.129  -0.278  0.00  0.00    +0.074 A 
ATOM     26  C   UNL     1      -2.413  -2.751  -0.176  0.00  0.00    +0.081 A 
ATOM     27 CL   UNL     1      -3.892  -1.842  -0.165  0.00  0.00    -0.080 Cl
ATOM     28 CL   UNL     1      -3.972  -4.952  -0.394  0.00  0.00    -0.081 Cl
BRANCH  21  32
ATOM     29  C   UNL     1      -0.168   1.503  -0.552  0.00  0.00    +0.109 C 
ATOM     30  C   UNL     1      -0.154  -0.004  -0.570  0.00  0.00    +0.214 C 
ATOM     31  O   UNL     1       0.759  -0.595  -1.106  0.00  0.00    -0.276 OA
ATOM     32  N   UNL     1      -1.156  -0.694   0.009  0.00  0.00    -0.284 N 
ATOM     33  H   UNL     1      -1.852  -0.223   0.494  0.00  0.00    +0.155 HD
ENDBRANCH  21  32
ENDBRANCH  20  24
ENDBRANCH  19  20
ENDBRANCH  18  19
ENDBRANCH   1  18
TORSDOF 9
