REMARK  Name = ZINC38847374
REMARK  8 active torsions:
REMARK  status: ('A' for Active; 'I' for Inactive)
REMARK    1  A    between atoms: C_1  and  N_2
REMARK    2  A    between atoms: N_2  and  C_3
REMARK    3  A    between atoms: N_2  and  C_4
REMARK    4  A    between atoms: C_4  and  C_5
REMARK    5  A    between atoms: C_5  and  N_6
REMARK    6  A    between atoms: C_17  and  C_19
REMARK    7  A    between atoms: N_22  and  S_25
REMARK    8  A    between atoms: S_25  and  C_28
REMARK                            x       y       z     vdW  Elec       q    Type
REMARK                         _______ _______ _______ _____ _____    ______ ____
ROOT
ATOM      1  N   UNL     1      -3.427  -0.822  -0.982  0.00  0.00    -0.252 N 
ATOM      2  C   UNL     1      -2.097  -0.492  -0.777  0.00  0.00    +0.168 A 
ATOM      3  N   UNL     1      -1.590   0.447  -0.013  0.00  0.00    -0.223 NA
ATOM      4  C   UNL     1      -0.260   0.658   0.092  0.00  0.00    +0.099 A 
ATOM      5  C   UNL     1       0.559  -0.200  -0.677  0.00  0.00    +0.042 A 
ATOM      6  S   UNL     1      -0.635  -1.242  -1.481  0.00  0.00    -0.052 S 
ATOM      7  C   UNL     1       1.928  -0.112  -0.679  0.00  0.00    +0.017 A 
ATOM      8  C   UNL     1       2.552   0.848   0.097  0.00  0.00    +0.003 A 
ATOM      9  C   UNL     1       1.781   1.707   0.865  0.00  0.00    +0.022 A 
ATOM     10  C   UNL     1       0.412   1.627   0.874  0.00  0.00    +0.067 A 
ATOM     11 CL   UNL     1      -0.507   2.727   1.853  0.00  0.00    -0.081 Cl
ATOM     12  C   UNL     1      -3.748  -1.908  -1.712  0.00  0.00    +0.224 C 
ATOM     13  O   UNL     1      -4.908  -2.139  -1.978  0.00  0.00    -0.275 OA
ENDROOT
BRANCH  12  14
ATOM     14  C   UNL     1      -2.664  -2.835  -2.199  0.00  0.00    +0.078 C 
ATOM     15  C   UNL     1      -2.065  -2.284  -3.495  0.00  0.00    +0.030 C 
ATOM     16  C   UNL     1      -0.941  -3.211  -3.968  0.00  0.00    +0.110 C 
ATOM     17  N   UNL     1      -1.470  -4.577  -4.080  0.00  0.00    -0.177 NA
ATOM     18  C   UNL     1      -2.146  -5.171  -2.919  0.00  0.00    +0.110 C 
ATOM     19  C   UNL     1      -3.257  -4.222  -2.458  0.00  0.00    +0.030 C 
BRANCH  17  20
ATOM     20  S   UNL     1      -1.306  -5.432  -5.489  0.00  0.00    +0.061 S 
ATOM     21  O   UNL     1      -2.341  -6.406  -5.496  0.00  0.00    -0.153 OA
ATOM     22  O   UNL     1      -1.154  -4.475  -6.529  0.00  0.00    -0.153 OA
BRANCH  20  23
ATOM     23  C   UNL     1       0.215  -6.314  -5.390  0.00  0.00    +0.106 A 
ATOM     24  C   UNL     1       1.384  -5.730  -5.843  0.00  0.00    +0.031 A 
ATOM     25  C   UNL     1       2.578  -6.421  -5.765  0.00  0.00    +0.040 A 
ATOM     26  C   UNL     1       2.604  -7.700  -5.233  0.00  0.00    +0.124 A 
ATOM     27  C   UNL     1       1.433  -8.284  -4.780  0.00  0.00    +0.040 A 
ATOM     28  C   UNL     1       0.241  -7.589  -4.854  0.00  0.00    +0.031 A 
ATOM     29  F   UNL     1       3.771  -8.377  -5.157  0.00  0.00    -0.205 F 
ENDBRANCH  20  23
ENDBRANCH  17  20
ENDBRANCH  12  14
BRANCH   1  30
ATOM     30  C   UNL     1      -4.486   0.010  -0.404  0.00  0.00    +0.097 C 
BRANCH  30  31
ATOM     31  C   UNL     1      -4.942   1.044  -1.435  0.00  0.00    -0.060 C 
BRANCH  31  33
ATOM     32  C   UNL     1      -5.457   2.659   0.262  0.00  0.00    -0.097 C 
ATOM     33  N   UNL     1      -6.003   1.878  -0.856  0.00  0.00    +0.377 N 
ATOM     34  C   UNL     1      -6.524   2.791  -1.882  0.00  0.00    -0.097 C 
ATOM     35  H   UNL     1      -6.750   1.288  -0.520  0.00  0.00    -0.083 HD
ENDBRANCH  31  33
ENDBRANCH  30  31
ENDBRANCH   1  30
TORSDOF 6
