REMARK  Name = ZINC25058768
REMARK  15 active torsions:
REMARK  status: ('A' for Active; 'I' for Inactive)
REMARK    1  A    between atoms: C_1  and  C_2
REMARK    2  A    between atoms: C_2  and  C_3
REMARK    3  A    between atoms: C_2  and  C_4
REMARK    4  A    between atoms: C_4  and  N_5
REMARK    5  A    between atoms: N_10  and  C_13
REMARK    6  A    between atoms: C_13  and  C_14
REMARK    7  A    between atoms: C_14  and  C_16
REMARK    8  A    between atoms: C_14  and  O_30
REMARK    9  A    between atoms: C_16  and  O_17
REMARK   10  A    between atoms: O_17  and  C_18
REMARK   11  A    between atoms: C_21  and  C_24
REMARK   12  A    between atoms: N_31  and  C_34
REMARK   13  A    between atoms: C_34  and  C_35
REMARK   14  A    between atoms: C_35  and  O_36
REMARK   15  A    between atoms: O_36  and  C_37
REMARK                            x       y       z     vdW  Elec       q    Type
REMARK                         _______ _______ _______ _____ _____    ______ ____
ROOT
ATOM      1  N   UNL     1      -0.270   1.659  -4.071  0.00  0.00    -0.276 N 
ATOM      2  C   UNL     1      -1.291   0.938  -4.669  0.00  0.00    +0.168 A 
ATOM      3  C   UNL     1      -1.655  -0.287  -4.125  0.00  0.00    +0.152 A 
ATOM      4  C   UNL     1      -0.973  -0.763  -2.984  0.00  0.00    +0.282 A 
ATOM      5  O   UNL     1      -1.271  -1.836  -2.491  0.00  0.00    -0.265 OA
ATOM      6  N   UNL     1       0.010  -0.012  -2.444  0.00  0.00    -0.256 N 
ATOM      7  C   UNL     1       0.352   1.171  -2.981  0.00  0.00    +0.334 A 
ATOM      8  O   UNL     1       1.246   1.818  -2.470  0.00  0.00    -0.246 OA
ATOM      9  N   UNL     1      -2.680  -0.770  -4.912  0.00  0.00    -0.322 N 
ATOM     10  C   UNL     1      -2.900   0.144  -5.878  0.00  0.00    +0.202 A 
ATOM     11  N   UNL     1      -2.077   1.150  -5.728  0.00  0.00    -0.218 NA
ENDROOT
BRANCH   1  12
ATOM     12  C   UNL     1       0.133   2.954  -4.625  0.00  0.00    +0.131 C 
BRANCH  12  14
ATOM     13  C   UNL     1       1.571   4.078  -6.332  0.00  0.00    +0.009 C 
ATOM     14  C   UNL     1       1.236   2.743  -5.664  0.00  0.00    +0.003 C 
ATOM     15  C   UNL     1       2.486   2.190  -4.975  0.00  0.00    +0.009 C 
ENDBRANCH  12  14
ENDBRANCH   1  12
BRANCH   6  16
ATOM     16  C   UNL     1       0.718  -0.497  -1.257  0.00  0.00    +0.164 C 
BRANCH  16  17
ATOM     17  C   UNL     1       0.002  -0.004   0.002  0.00  0.00    +0.172 C 
BRANCH  17  18
ATOM     18  O   UNL     1      -0.017   1.425   0.010  0.00  0.00    -0.387 OA
ATOM     19  H   UNL     1      -0.493   1.964   0.842  0.00  0.00    +0.210 HD
ENDBRANCH  17  18
BRANCH  17  20
ATOM     20  C   UNL     1       0.742  -0.511   1.242  0.00  0.00    +0.262 C 
BRANCH  20  21
ATOM     21  O   UNL     1       0.010  -0.149   2.414  0.00  0.00    -0.489 OA
BRANCH  21  22
ATOM     22  C   UNL     1       0.534  -0.527   3.610  0.00  0.00    +0.121 A 
ATOM     23  C   UNL     1       1.727  -1.236   3.650  0.00  0.00    +0.046 A 
ATOM     24  C   UNL     1       2.265  -1.616   4.862  0.00  0.00    +0.012 A 
ATOM     25  C   UNL     1       1.603  -1.296   6.046  0.00  0.00    -0.018 A 
ATOM     26  C   UNL     1       0.403  -0.589   6.003  0.00  0.00    +0.012 A 
ATOM     27  C   UNL     1      -0.126  -0.207   4.788  0.00  0.00    +0.046 A 
BRANCH  25  28
ATOM     28  C   UNL     1       2.176  -1.709   7.351  0.00  0.00    -0.018 A 
ATOM     29  C   UNL     1       1.518  -1.386   8.537  0.00  0.00    +0.008 A 
ATOM     30  C   UNL     1       2.053  -1.776   9.748  0.00  0.00    +0.001 A 
ATOM     31  C   UNL     1       3.244  -2.478   9.787  0.00  0.00    +0.000 A 
ATOM     32  C   UNL     1       3.904  -2.798   8.614  0.00  0.00    +0.001 A 
ATOM     33  C   UNL     1       3.376  -2.417   7.397  0.00  0.00    +0.008 A 
ENDBRANCH  25  28
ENDBRANCH  21  22
ENDBRANCH  20  21
ENDBRANCH  17  20
ENDBRANCH  16  17
ENDBRANCH   6  16
BRANCH   9  34
ATOM     34  C   UNL     1      -3.393  -2.038  -4.734  0.00  0.00    +0.151 C 
BRANCH  34  35
ATOM     35  C   UNL     1      -4.530  -1.846  -3.728  0.00  0.00    +0.181 C 
BRANCH  35  36
ATOM     36  O   UNL     1      -5.226  -3.082  -3.553  0.00  0.00    -0.381 OA
ATOM     37  C   UNL     1      -6.312  -3.012  -2.628  0.00  0.00    +0.194 C 
ENDBRANCH  35  36
ENDBRANCH  34  35
ENDBRANCH   9  34
TORSDOF 12
