REMARK  Name = ZINC36681771
REMARK  6 active torsions:
REMARK  status: ('A' for Active; 'I' for Inactive)
REMARK    1  A    between atoms: C_3  and  O_16
REMARK    2  A    between atoms: C_6  and  N_7
REMARK    3  A    between atoms: C_8  and  C_10
REMARK    4  A    between atoms: O_16  and  C_17
REMARK    5  A    between atoms: C_17  and  C_18
REMARK    6  A    between atoms: C_18  and  N_20
REMARK                            x       y       z     vdW  Elec       q    Type
REMARK                         _______ _______ _______ _____ _____    ______ ____
ROOT
ATOM      1  C   UNL     1      -0.013   1.374   0.194  0.00  0.00    +0.027 A 
ATOM      2  C   UNL     1       1.173   2.082   0.191  0.00  0.00    +0.047 A 
ATOM      3  C   UNL     1       2.377   1.420   0.003  0.00  0.00    +0.121 A 
ATOM      4  C   UNL     1       2.391   0.045  -0.184  0.00  0.00    +0.047 A 
ATOM      5  C   UNL     1       1.206  -0.665  -0.182  0.00  0.00    +0.027 A 
ATOM      6  C   UNL     1       0.001  -0.002   0.007  0.00  0.00    +0.034 A 
ENDROOT
BRANCH   6   7
ATOM      7  N   UNL     1      -1.201  -0.721   0.010  0.00  0.00    -0.281 N 
ATOM      8  C   UNL     1      -2.326  -0.155  -0.469  0.00  0.00    +0.255 C 
ATOM      9  O   UNL     1      -2.280   0.944  -0.992  0.00  0.00    -0.269 OA
ATOM     10  H   UNL     1      -1.223  -1.627   0.357  0.00  0.00    +0.155 HD
BRANCH   8  11
ATOM     11  C   UNL     1      -3.605  -0.861  -0.361  0.00  0.00    +0.075 A 
ATOM     12  C   UNL     1      -4.862  -0.463  -0.789  0.00  0.00    +0.022 A 
ATOM     13  C   UNL     1      -5.884  -1.348  -0.546  0.00  0.00    +0.024 A 
ATOM     14  C   UNL     1      -5.606  -2.520   0.079  0.00  0.00    +0.056 A 
ATOM     15  S   UNL     1      -3.949  -2.460   0.349  0.00  0.00    -0.077 S 
ATOM     16 BR   UNL     1      -6.807  -3.908   0.535  0.00  0.00    -0.043 Br
ENDBRANCH   8  11
ENDBRANCH   6   7
BRANCH   3  17
ATOM     17  O   UNL     1       3.544   2.118   0.001  0.00  0.00    -0.486 OA
BRANCH  17  18
ATOM     18  C   UNL     1       4.746   1.371  -0.199  0.00  0.00    +0.287 C 
BRANCH  18  19
ATOM     19  C   UNL     1       5.928   2.306  -0.171  0.00  0.00    +0.084 C 
ATOM     20  S   UNL     1       5.703   3.872   0.059  0.00  0.00    -0.037 S 
BRANCH  19  21
ATOM     21  N   UNL     1       7.174   1.821  -0.339  0.00  0.00    -0.353 N 
ATOM     22  H   UNL     1       7.310   0.871  -0.478  0.00  0.00    +0.143 HD
ATOM     23  H   UNL     1       7.935   2.423  -0.321  0.00  0.00    +0.143 HD
ENDBRANCH  19  21
ENDBRANCH  18  19
ENDBRANCH  17  18
ENDBRANCH   3  17
TORSDOF 6
