REMARK  Name = ZINC08296152
REMARK  6 active torsions:
REMARK  status: ('A' for Active; 'I' for Inactive)
REMARK    1  A    between atoms: C_4  and  C_7
REMARK    2  A    between atoms: C_10  and  C_13
REMARK    3  A    between atoms: N_19  and  C_20
REMARK    4  A    between atoms: C_30  and  N_32
REMARK    5  A    between atoms: C_33  and  C_35
REMARK    6  A    between atoms: C_38  and  C_41
REMARK                            x       y       z     vdW  Elec       q    Type
REMARK                         _______ _______ _______ _____ _____    ______ ____
ROOT
ATOM      1  C   UNL     1       1.205   5.885   0.021  0.00  0.00    +0.130 C 
ATOM      2  C   UNL     1       1.644   6.195  -1.423  0.00  0.00    +0.185 C 
ATOM      3  O   UNL     1       1.086   7.468  -1.761  0.00  0.00    -0.370 OA
ATOM      4  C   UNL     1       0.729   8.189  -0.586  0.00  0.00    +0.171 C 
ATOM      5  C   UNL     1       1.017   7.289   0.642  0.00  0.00    +0.171 C 
ATOM      6  O   UNL     1       2.298   7.720   1.152  0.00  0.00    -0.370 OA
ATOM      7  C   UNL     1       2.333   9.152   0.987  0.00  0.00    +0.185 C 
ATOM      8  C   UNL     1       1.674   9.407  -0.386  0.00  0.00    +0.130 C 
ENDROOT
BRANCH   1  15
ATOM      9  C   UNL     1      -1.223   1.775   0.017  0.00  0.00    +0.076 A 
ATOM     10  C   UNL     1      -0.013   1.076   0.008  0.00  0.00    +0.048 A 
ATOM     11  C   UNL     1       1.166   1.800   0.001  0.00  0.00    +0.116 A 
ATOM     12  N   UNL     1       1.114   3.123   0.008  0.00  0.00    -0.223 NA
ATOM     13  C   UNL     1      -0.048   3.759   0.023  0.00  0.00    +0.216 A 
ATOM     14  N   UNL     1      -1.199   3.106   0.030  0.00  0.00    -0.214 NA
ATOM     15  N   UNL     1      -0.059   5.143   0.030  0.00  0.00    -0.306 N 
ATOM     16  H   UNL     1      -0.902   5.622   0.041  0.00  0.00    +0.149 HD
BRANCH   9  20
ATOM     17  C   UNL     1      -4.926  -0.319   0.022  0.00  0.00    -0.018 A 
ATOM     18  C   UNL     1      -4.914   1.075   0.030  0.00  0.00    +0.009 A 
ATOM     19  C   UNL     1      -3.715   1.753   0.029  0.00  0.00    +0.010 A 
ATOM     20  C   UNL     1      -2.513   1.045   0.019  0.00  0.00    +0.001 A 
ATOM     21  C   UNL     1      -2.526  -0.350   0.006  0.00  0.00    +0.010 A 
ATOM     22  C   UNL     1      -3.725  -1.028   0.012  0.00  0.00    +0.009 A 
BRANCH  17  26
ATOM     23  C   UNL     1      -8.627  -2.412   0.027  0.00  0.00    +0.000 A 
ATOM     24  C   UNL     1      -7.437  -3.117   0.018  0.00  0.00    +0.001 A 
ATOM     25  C   UNL     1      -6.233  -2.443   0.016  0.00  0.00    +0.008 A 
ATOM     26  C   UNL     1      -6.217  -1.050   0.024  0.00  0.00    -0.018 A 
ATOM     27  C   UNL     1      -7.420  -0.344   0.039  0.00  0.00    +0.008 A 
ATOM     28  C   UNL     1      -8.618  -1.029   0.035  0.00  0.00    +0.001 A 
ENDBRANCH  17  26
ENDBRANCH   9  20
ENDBRANCH   1  15
BRANCH   8  29
ATOM     29  N   UNL     1       0.894  10.647  -0.359  0.00  0.00    -0.304 N 
ATOM     30  C   UNL     1       1.494  11.826  -0.617  0.00  0.00    +0.244 C 
ATOM     31  O   UNL     1       2.682  11.861  -0.873  0.00  0.00    -0.270 OA
ATOM     32  H   UNL     1      -0.054  10.620  -0.155  0.00  0.00    +0.149 HD
BRANCH  30  33
ATOM     33  C   UNL     1       0.707  13.078  -0.590  0.00  0.00    +0.037 A 
ATOM     34  C   UNL     1      -0.658  13.041  -0.302  0.00  0.00    +0.013 A 
ATOM     35  C   UNL     1      -1.386  14.213  -0.273  0.00  0.00    +0.013 A 
ATOM     36  C   UNL     1      -0.767  15.421  -0.539  0.00  0.00    +0.055 A 
ATOM     37  C   UNL     1       0.585  15.464  -0.830  0.00  0.00    +0.013 A 
ATOM     38  C   UNL     1       1.325  14.300  -0.857  0.00  0.00    +0.013 A 
BRANCH  36  39
ATOM     39  C   UNL     1      -1.569  16.697  -0.511  0.00  0.00    +0.417 C 
ATOM     40  F   UNL     1      -2.090  16.948  -1.786  0.00  0.00    -0.166 F 
ATOM     41  F   UNL     1      -2.620  16.567   0.404  0.00  0.00    -0.166 F 
ATOM     42  F   UNL     1      -0.744  17.759  -0.127  0.00  0.00    -0.166 F 
ENDBRANCH  36  39
ENDBRANCH  30  33
ENDBRANCH   8  29
TORSDOF 6
