REMARK  Name = ZINC13124293
REMARK  9 active torsions:
REMARK  status: ('A' for Active; 'I' for Inactive)
REMARK    1  A    between atoms: C_1  and  C_2
REMARK    2  A    between atoms: C_2  and  C_17
REMARK    3  A    between atoms: N_3  and  N_4
REMARK    4  A    between atoms: C_5  and  C_7
REMARK    5  A    between atoms: C_7  and  S_8
REMARK    6  A    between atoms: S_8  and  C_9
REMARK    7  A    between atoms: C_9  and  C_10
REMARK    8  A    between atoms: C_19  and  O_24
REMARK    9  A    between atoms: C_22  and  O_23
REMARK                            x       y       z     vdW  Elec       q    Type
REMARK                         _______ _______ _______ _____ _____    ______ ____
ROOT
ATOM      1  N   UNL     1       0.024   0.035   2.340  0.00  0.00    -0.206 N 
ATOM      2  C   UNL     1       0.044  -0.645   3.503  0.00  0.00    +0.242 C 
ATOM      3  O   UNL     1       0.060  -1.858   3.496  0.00  0.00    -0.273 OA
ATOM      4  H   UNL     1       0.011   1.005   2.345  0.00  0.00    +0.177 HD
ENDROOT
BRANCH   1   7
ATOM      5  C   UNL     1      -0.018   1.503   0.010  0.00  0.00    +0.068 C 
ATOM      6  C   UNL     1       0.002  -0.004   0.002  0.00  0.00    +0.067 C 
ATOM      7  N   UNL     1       0.022  -0.659   1.123  0.00  0.00    -0.184 NA
BRANCH   6   8
ATOM      8  C   UNL     1      -0.000  -0.734  -1.278  0.00  0.00    +0.042 A 
ATOM      9  C   UNL     1      -0.015  -0.033  -2.486  0.00  0.00    +0.058 A 
ATOM     10  C   UNL     1      -0.017  -0.724  -3.684  0.00  0.00    +0.118 A 
ATOM     11  C   UNL     1      -0.004  -2.113  -3.688  0.00  0.00    +0.049 A 
ATOM     12  C   UNL     1       0.011  -2.814  -2.497  0.00  0.00    +0.049 A 
ATOM     13  C   UNL     1       0.019  -2.135  -1.290  0.00  0.00    +0.126 A 
BRANCH  13  14
ATOM     14  O   UNL     1       0.039  -2.826  -0.120  0.00  0.00    -0.506 OA
ATOM     15  H   UNL     1      -0.839  -3.038   0.227  0.00  0.00    +0.292 HD
ENDBRANCH  13  14
BRANCH  10  16
ATOM     16  O   UNL     1      -0.032  -0.043  -4.861  0.00  0.00    -0.507 OA
ATOM     17  H   UNL     1       0.848   0.163  -5.207  0.00  0.00    +0.292 HD
ENDBRANCH  10  16
ENDBRANCH   6   8
ENDBRANCH   1   7
BRANCH   2  18
ATOM     18  C   UNL     1       0.046   0.101   4.812  0.00  0.00    +0.166 C 
BRANCH  18  19
ATOM     19  S   UNL     1       0.075  -1.085   6.184  0.00  0.00    -0.147 S 
BRANCH  19  20
ATOM     20  C   UNL     1       0.075  -0.040   7.667  0.00  0.00    +0.106 C 
BRANCH  20  21
ATOM     21  C   UNL     1       0.099  -0.912   8.896  0.00  0.00    -0.019 A 
ATOM     22  C   UNL     1      -1.087  -1.333   9.468  0.00  0.00    +0.006 A 
ATOM     23  C   UNL     1      -1.066  -2.133  10.595  0.00  0.00    +0.000 A 
ATOM     24  C   UNL     1       0.142  -2.513  11.151  0.00  0.00    +0.001 A 
ATOM     25  C   UNL     1       1.328  -2.093  10.580  0.00  0.00    +0.020 A 
ATOM     26  C   UNL     1       1.307  -1.296   9.449  0.00  0.00    +0.045 A 
ATOM     27 CL   UNL     1       2.797  -0.773   8.728  0.00  0.00    -0.083 Cl
ENDBRANCH  20  21
ENDBRANCH  19  20
ENDBRANCH  18  19
ENDBRANCH   2  18
TORSDOF 8
