REMARK  Name = ZINC37558692
REMARK  3 active torsions:
REMARK  status: ('A' for Active; 'I' for Inactive)
REMARK    1  A    between atoms: C_5  and  N_7
REMARK    2  A    between atoms: N_7  and  S_8
REMARK    3  A    between atoms: S_8  and  C_11
REMARK                            x       y       z     vdW  Elec       q    Type
REMARK                         _______ _______ _______ _____ _____    ______ ____
ROOT
ATOM      1  S   UNL     1       0.052  -2.834  -0.931  0.00  0.00    +0.077 S 
ATOM      2  O   UNL     1       0.173  -4.245  -0.812  0.00  0.00    -0.150 OA
ATOM      3  O   UNL     1      -1.136  -2.139  -0.578  0.00  0.00    -0.150 OA
ENDROOT
BRANCH   1   4
ATOM      4  C   UNL     1       0.383  -2.441  -2.616  0.00  0.00    +0.167 A 
ATOM      5  C   UNL     1       0.646  -3.327  -3.604  0.00  0.00    +0.135 A 
ATOM      6  N   UNL     1       0.843  -2.631  -4.743  0.00  0.00    -0.281 N 
ATOM      7  H   UNL     1       1.049  -3.008  -5.613  0.00  0.00    +0.188 HD
ATOM      8  N   UNL     1       0.698  -1.269  -4.450  0.00  0.00    -0.157 NA
ATOM      9  C   UNL     1       0.416  -1.153  -3.174  0.00  0.00    +0.165 A 
ATOM     10  N   UNL     1       0.190   0.046  -2.488  0.00  0.00    -0.340 N 
ATOM     11  H   UNL     1      -0.076   0.029  -1.555  0.00  0.00    +0.144 HD
ATOM     12  H   UNL     1       0.298   0.895  -2.945  0.00  0.00    +0.144 HD
ENDBRANCH   1   4
BRANCH   1  13
ATOM     13  N   UNL     1       1.273  -2.176  -0.026  0.00  0.00    -0.215 N 
ATOM     14  H   UNL     1       1.087  -1.439   0.576  0.00  0.00    +0.174 HD
BRANCH  13  19
ATOM     15  C   UNL     1       4.327  -3.642  -1.451  0.00  0.00    +0.002 A 
ATOM     16  C   UNL     1       5.141  -3.687  -0.334  0.00  0.00    +0.001 A 
ATOM     17  C   UNL     1       4.674  -3.232   0.885  0.00  0.00    +0.016 A 
ATOM     18  C   UNL     1       3.391  -2.730   0.991  0.00  0.00    +0.036 A 
ATOM     19  C   UNL     1       2.571  -2.683  -0.129  0.00  0.00    +0.061 A 
ATOM     20  C   UNL     1       3.043  -3.141  -1.352  0.00  0.00    +0.025 A 
ATOM     21  I   UNL     1       2.684  -2.041   2.839  0.00  0.00    -0.042 I 
ENDBRANCH  13  19
ENDBRANCH   1  13
TORSDOF 3
