REMARK  Name = ZINC40368407
REMARK  10 active torsions:
REMARK  status: ('A' for Active; 'I' for Inactive)
REMARK    1  A    between atoms: C_1  and  C_2
REMARK    2  A    between atoms: C_2  and  C_3
REMARK    3  A    between atoms: C_3  and  C_4
REMARK    4  A    between atoms: C_4  and  N_5
REMARK    5  A    between atoms: C_6  and  C_8
REMARK    6  A    between atoms: C_8  and  N_9
REMARK    7  A    between atoms: N_11  and  C_31
REMARK    8  A    between atoms: N_17  and  S_20
REMARK    9  A    between atoms: S_20  and  C_23
REMARK   10  A    between atoms: C_24  and  C_25
REMARK                            x       y       z     vdW  Elec       q    Type
REMARK                         _______ _______ _______ _____ _____    ______ ____
ROOT
ATOM      1  N   UNL     1      -4.516  -5.892   0.020  0.00  0.00    -0.275 N 
ATOM      2  C   UNL     1      -4.584  -6.725  -1.180  0.00  0.00    +0.217 C 
ATOM      3  N   UNL     1      -4.382  -8.123  -0.775  0.00  0.00    -0.300 N 
ATOM      4  C   UNL     1      -4.196  -8.096   0.681  0.00  0.00    +0.115 C 
ATOM      5  C   UNL     1      -4.288  -6.653   1.103  0.00  0.00    +0.241 C 
ATOM      6  O   UNL     1      -4.177  -6.243   2.240  0.00  0.00    -0.273 OA
ATOM      7  C   UNL     1      -2.819  -8.655   1.040  0.00  0.00    +0.052 C 
ATOM      8  C   UNL     1      -2.717 -10.104   0.553  0.00  0.00    +0.112 C 
ATOM      9  N   UNL     1      -3.847 -10.867   1.101  0.00  0.00    -0.177 NA
ATOM     10  C   UNL     1      -5.211 -10.369   0.877  0.00  0.00    +0.112 C 
ATOM     11  C   UNL     1      -5.291  -8.917   1.361  0.00  0.00    +0.052 C 
ENDROOT
BRANCH   3  12
ATOM     12  C   UNL     1      -4.371  -9.246  -1.605  0.00  0.00    +0.032 A 
ATOM     13  C   UNL     1      -4.478  -9.096  -2.981  0.00  0.00    +0.023 A 
ATOM     14  C   UNL     1      -4.466 -10.209  -3.799  0.00  0.00    +0.002 A 
ATOM     15  C   UNL     1      -4.348 -11.472  -3.248  0.00  0.00    +0.000 A 
ATOM     16  C   UNL     1      -4.241 -11.625  -1.878  0.00  0.00    +0.002 A 
ATOM     17  C   UNL     1      -4.246 -10.516  -1.055  0.00  0.00    +0.023 A 
ENDBRANCH   3  12
BRANCH   9  18
ATOM     18  S   UNL     1      -3.588 -12.263   1.954  0.00  0.00    +0.054 S 
ATOM     19  O   UNL     1      -4.782 -13.026   1.856  0.00  0.00    -0.153 OA
ATOM     20  O   UNL     1      -2.326 -12.765   1.536  0.00  0.00    -0.153 OA
BRANCH  18  21
ATOM     21  C   UNL     1      -3.414 -11.813   3.648  0.00  0.00    +0.153 C 
ATOM     22  C   UNL     1      -4.311 -12.219   4.537  0.00  0.00    +0.028 C 
BRANCH  22  23
ATOM     23  C   UNL     1      -4.166 -11.842   5.959  0.00  0.00    -0.024 A 
ATOM     24  C   UNL     1      -3.089 -11.054   6.368  0.00  0.00    +0.008 A 
ATOM     25  C   UNL     1      -2.960 -10.705   7.697  0.00  0.00    +0.001 A 
ATOM     26  C   UNL     1      -3.893 -11.136   8.622  0.00  0.00    +0.000 A 
ATOM     27  C   UNL     1      -4.962 -11.918   8.223  0.00  0.00    +0.001 A 
ATOM     28  C   UNL     1      -5.107 -12.268   6.896  0.00  0.00    +0.008 A 
ENDBRANCH  22  23
ENDBRANCH  18  21
ENDBRANCH   9  18
BRANCH   1  29
ATOM     29  C   UNL     1      -4.669  -4.435   0.037  0.00  0.00    +0.205 C 
BRANCH  29  31
ATOM     30  N   UNL     1      -3.216  -2.443  -0.164  0.00  0.00    -0.314 N 
ATOM     31  C   UNL     1      -3.321  -3.786  -0.147  0.00  0.00    +0.230 C 
ATOM     32  O   UNL     1      -2.330  -4.473  -0.279  0.00  0.00    -0.274 OA
ATOM     33  H   UNL     1      -4.008  -1.893  -0.059  0.00  0.00    +0.149 HD
BRANCH  30  34
ATOM     34  C   UNL     1      -1.906  -1.812  -0.343  0.00  0.00    +0.104 C 
BRANCH  34  35
ATOM     35  C   UNL     1      -2.065  -0.291  -0.325  0.00  0.00    +0.018 C 
BRANCH  35  37
ATOM     36  C   UNL     1      -0.856   1.889  -0.493  0.00  0.00    +0.004 C 
ATOM     37  C   UNL     1      -0.697   0.368  -0.511  0.00  0.00    -0.002 C 
ENDBRANCH  35  37
ENDBRANCH  34  35
ENDBRANCH  30  34
ENDBRANCH  29  31
ENDBRANCH   1  29
TORSDOF 9
