REMARK  Name = ZINC36643709
REMARK  17 active torsions:
REMARK  status: ('A' for Active; 'I' for Inactive)
REMARK    1  A    between atoms: C_1  and  C_2
REMARK    2  A    between atoms: C_2  and  C_3
REMARK    3  A    between atoms: C_3  and  C_4
REMARK    4  A    between atoms: C_4  and  N_5
REMARK    5  A    between atoms: N_5  and  C_6
REMARK    6  A    between atoms: N_5  and  S_8
REMARK    7  A    between atoms: C_6  and  C_7
REMARK    8  A    between atoms: S_8  and  C_11
REMARK    9  A    between atoms: C_14  and  C_17
REMARK   10  A    between atoms: N_19  and  C_20
REMARK   11  A    between atoms: C_20  and  C_21
REMARK   12  A    between atoms: C_21  and  C_22
REMARK   13  A    between atoms: C_22  and  N_23
REMARK   14  A    between atoms: N_23  and  C_24
REMARK   15  A    between atoms: N_23  and  C_25
REMARK   16  A    between atoms: C_29  and  C_36
REMARK   17  A    between atoms: C_31  and  C_35
REMARK                            x       y       z     vdW  Elec       q    Type
REMARK                         _______ _______ _______ _____ _____    ______ ____
ROOT
ATOM      1  C   UNL     1      -6.058   1.635   3.312  0.00  0.00    +0.252 C 
ATOM      2  O   UNL     1      -5.341   2.193   4.119  0.00  0.00    -0.270 OA
ATOM      3  N   UNL     1      -7.321   2.066   3.121  0.00  0.00    -0.246 N 
ATOM      4  C   UNL     1      -7.762   3.216   3.752  0.00  0.00    +0.168 A 
ATOM      5  N   UNL     1      -7.105   4.017   4.559  0.00  0.00    -0.224 NA
ATOM      6  C   UNL     1      -7.667   5.116   5.108  0.00  0.00    +0.083 A 
ATOM      7  C   UNL     1      -7.075   6.053   5.986  0.00  0.00    -0.024 A 
ATOM      8  C   UNL     1      -7.792   7.122   6.455  0.00  0.00    +0.009 A 
ATOM      9  C   UNL     1      -9.115   7.325   6.089  0.00  0.00    -0.049 A 
ATOM     10  C   UNL     1      -9.726   6.428   5.232  0.00  0.00    +0.020 A 
ATOM     11  C   UNL     1      -9.016   5.354   4.758  0.00  0.00    +0.041 A 
ATOM     12  S   UNL     1      -9.369   3.994   3.670  0.00  0.00    -0.052 S 
ATOM     13  C   UNL     1      -9.879   8.510   6.622  0.00  0.00    +0.044 C 
ATOM     14  C   UNL     1      -5.641   5.874   6.410  0.00  0.00    +0.046 C 
ENDROOT
BRANCH   1  18
ATOM     15  C   UNL     1      -4.585  -1.674   1.093  0.00  0.00    +0.106 A 
ATOM     16  C   UNL     1      -3.809  -0.537   1.231  0.00  0.00    +0.029 A 
ATOM     17  C   UNL     1      -4.282   0.542   1.950  0.00  0.00    +0.015 A 
ATOM     18  C   UNL     1      -5.546   0.484   2.539  0.00  0.00    +0.037 A 
ATOM     19  C   UNL     1      -6.324  -0.666   2.396  0.00  0.00    +0.015 A 
ATOM     20  C   UNL     1      -5.842  -1.735   1.670  0.00  0.00    +0.029 A 
BRANCH  15  21
ATOM     21  S   UNL     1      -3.974  -3.046   0.173  0.00  0.00    +0.061 S 
ATOM     22  O   UNL     1      -4.668  -4.193   0.645  0.00  0.00    -0.153 OA
ATOM     23  O   UNL     1      -2.557  -2.951   0.195  0.00  0.00    -0.153 OA
BRANCH  21  24
ATOM     24  N   UNL     1      -4.439  -2.827  -1.401  0.00  0.00    -0.177 NA
BRANCH  24  25
ATOM     25  C   UNL     1      -5.721  -3.362  -1.868  0.00  0.00    +0.106 C 
ATOM     26  C   UNL     1      -5.497  -4.734  -2.508  0.00  0.00    +0.022 C 
ENDBRANCH  24  25
BRANCH  24  27
ATOM     27  C   UNL     1      -3.569  -2.097  -2.327  0.00  0.00    +0.109 C 
BRANCH  27  28
ATOM     28  C   UNL     1      -3.997  -0.629  -2.378  0.00  0.00    +0.017 C 
BRANCH  28  30
ATOM     29  C   UNL     1      -3.516   1.601  -3.397  0.00  0.00    +0.004 C 
ATOM     30  C   UNL     1      -3.088   0.133  -3.345  0.00  0.00    -0.002 C 
ENDBRANCH  28  30
ENDBRANCH  27  28
ENDBRANCH  24  27
ENDBRANCH  21  24
ENDBRANCH  15  21
ENDBRANCH   1  18
BRANCH   3  31
ATOM     31  C   UNL     1      -8.226   1.317   2.247  0.00  0.00    +0.114 C 
BRANCH  31  32
ATOM     32  C   UNL     1      -9.123   0.412   3.095  0.00  0.00    +0.001 C 
BRANCH  32  33
ATOM     33  C   UNL     1      -9.973  -0.468   2.177  0.00  0.00    -0.078 C 
BRANCH  33  34
ATOM     34  N   UNL     1     -10.834  -1.337   2.991  0.00  0.00    +0.376 N 
ATOM     35  C   UNL     1     -11.793  -0.513   3.739  0.00  0.00    -0.097 C 
ATOM     36  C   UNL     1     -11.562  -2.264   2.116  0.00  0.00    -0.097 C 
ATOM     37  H   UNL     1     -10.265  -1.862   3.639  0.00  0.00    -0.083 HD
ENDBRANCH  33  34
ENDBRANCH  32  33
ENDBRANCH  31  32
ENDBRANCH   3  31
TORSDOF 11
