REMARK  Name = ZINC16053331
REMARK  14 active torsions:
REMARK  status: ('A' for Active; 'I' for Inactive)
REMARK    1  A    between atoms: C_1  and  C_2
REMARK    2  A    between atoms: C_2  and  C_4
REMARK    3  A    between atoms: C_2  and  O_15
REMARK    4  A    between atoms: N_6  and  C_7
REMARK    5  A    between atoms: C_7  and  C_8
REMARK    6  A    between atoms: C_8  and  C_9
REMARK    7  A    between atoms: O_15  and  C_16
REMARK    8  A    between atoms: C_16  and  C_18
REMARK    9  A    between atoms: C_21  and  S_24
REMARK   10  A    between atoms: S_24  and  N_27
REMARK   11  A    between atoms: N_27  and  C_28
REMARK   12  A    between atoms: N_27  and  C_29
REMARK   13  A    between atoms: C_34  and  O_35
REMARK   14  A    between atoms: O_35  and  C_36
REMARK                            x       y       z     vdW  Elec       q    Type
REMARK                         _______ _______ _______ _____ _____    ______ ____
ROOT
ATOM      1  C   UNL     1       0.270   1.658  -7.171  0.00  0.00    +0.059 A 
ATOM      2  C   UNL     1       0.989   0.461  -7.221  0.00  0.00    +0.017 A 
ATOM      3  C   UNL     1       1.605   0.080  -8.395  0.00  0.00    +0.029 A 
ATOM      4  C   UNL     1       1.521   0.884  -9.518  0.00  0.00    +0.109 A 
ATOM      5  C   UNL     1       0.816   2.074  -9.473  0.00  0.00    +0.029 A 
ATOM      6  C   UNL     1       0.190   2.465  -8.307  0.00  0.00    +0.017 A 
ENDROOT
BRANCH   4   7
ATOM      7  S   UNL     1       2.316   0.392 -11.011  0.00  0.00    +0.075 S 
ATOM      8  O   UNL     1       2.452  -1.022 -10.952  0.00  0.00    -0.150 OA
ATOM      9  O   UNL     1       1.633   1.048 -12.070  0.00  0.00    -0.150 OA
BRANCH   7  10
ATOM     10  N   UNL     1       3.850   1.016 -10.978  0.00  0.00    -0.203 N 
ATOM     11  C   UNL     1       4.945   0.238 -10.394  0.00  0.00    +0.158 C 
BRANCH  10  12
ATOM     12  C   UNL     1       4.099   2.287 -11.509  0.00  0.00    +0.092 A 
ATOM     13  C   UNL     1       4.552   2.420 -12.813  0.00  0.00    +0.028 A 
ATOM     14  C   UNL     1       4.793   3.676 -13.336  0.00  0.00    +0.002 A 
ATOM     15  C   UNL     1       4.594   4.802 -12.559  0.00  0.00    +0.004 A 
ATOM     16  C   UNL     1       4.148   4.677 -11.256  0.00  0.00    +0.047 A 
ATOM     17  C   UNL     1       3.899   3.422 -10.726  0.00  0.00    +0.143 A 
BRANCH  17  18
ATOM     18  O   UNL     1       3.461   3.298  -9.444  0.00  0.00    -0.493 OA
ATOM     19  C   UNL     1       3.279   4.505  -8.701  0.00  0.00    +0.277 C 
ENDBRANCH  17  18
ENDBRANCH  10  12
ENDBRANCH   7  10
ENDBRANCH   4   7
BRANCH   1  20
ATOM     20  C   UNL     1      -0.397   2.071  -5.919  0.00  0.00    +0.340 C 
ATOM     21  O   UNL     1      -1.016   3.114  -5.877  0.00  0.00    -0.245 OA
BRANCH  20  22
ATOM     22  O   UNL     1      -0.317   1.289  -4.825  0.00  0.00    -0.449 OA
BRANCH  22  24
ATOM     23  C   UNL     1      -2.432   1.228  -3.619  0.00  0.00    +0.062 C 
ATOM     24  C   UNL     1      -0.997   1.758  -3.630  0.00  0.00    +0.259 C 
BRANCH  24  25
ATOM     25  C   UNL     1      -0.268   1.258  -2.409  0.00  0.00    +0.254 C 
ATOM     26  O   UNL     1       0.726   0.575  -2.534  0.00  0.00    -0.272 OA
ATOM     27  N   UNL     1      -0.721   1.571  -1.179  0.00  0.00    -0.312 N 
ATOM     28  H   UNL     1      -1.516   2.118  -1.079  0.00  0.00    +0.149 HD
BRANCH  27  29
ATOM     29  C   UNL     1      -0.013   1.086   0.008  0.00  0.00    +0.109 C 
BRANCH  29  30
ATOM     30  C   UNL     1      -0.729   1.579   1.267  0.00  0.00    +0.054 C 
BRANCH  30  31
ATOM     31  C   UNL     1       0.000   1.080   2.488  0.00  0.00    -0.046 A 
ATOM     32  C   UNL     1      -0.347  -0.133   3.052  0.00  0.00    +0.004 A 
ATOM     33  C   UNL     1       0.325  -0.593   4.169  0.00  0.00    +0.000 A 
ATOM     34  C   UNL     1       1.337   0.164   4.728  0.00  0.00    +0.000 A 
ATOM     35  C   UNL     1       1.680   1.380   4.167  0.00  0.00    +0.000 A 
ATOM     36  C   UNL     1       1.012   1.838   3.046  0.00  0.00    +0.004 A 
ENDBRANCH  30  31
ENDBRANCH  29  30
ENDBRANCH  27  29
ENDBRANCH  24  25
ENDBRANCH  22  24
ENDBRANCH  20  22
ENDBRANCH   1  20
TORSDOF 11
