REMARK  Name = ZINC01158097
REMARK  5 active torsions:
REMARK  status: ('A' for Active; 'I' for Inactive)
REMARK    1  A    between atoms: C_1  and  C_2
REMARK    2  A    between atoms: C_3  and  C_20
REMARK    3  A    between atoms: C_4  and  C_10
REMARK    4  A    between atoms: C_14  and  N_16
REMARK    5  A    between atoms: N_22  and  C_23
REMARK                            x       y       z     vdW  Elec       q    Type
REMARK                         _______ _______ _______ _____ _____    ______ ____
ROOT
ATOM      1  C   UNL     1      -4.277  -0.277   1.939  0.00  0.00    +0.061 C 
ATOM      2  C   UNL     1      -3.689   0.853   1.134  0.00  0.00    +0.017 C 
ATOM      3  C   UNL     1      -2.362   1.093   1.198  0.00  0.00    +0.056 C 
ATOM      4  C   UNL     1      -1.812   2.239   0.372  0.00  0.00    +0.139 C 
ATOM      5  N   UNL     1      -2.778   3.002  -0.437  0.00  0.00    -0.315 N 
ATOM      6  C   UNL     1      -4.076   2.640  -0.396  0.00  0.00    +0.135 C 
ATOM      7  S   UNL     1      -5.210   3.518  -1.332  0.00  0.00    -0.019 S 
ATOM      8  N   UNL     1      -4.507   1.617   0.352  0.00  0.00    -0.300 N 
ATOM      9  H   UNL     1      -2.487   3.746  -0.986  0.00  0.00    +0.149 HD
ATOM     10  H   UNL     1      -5.454   1.407   0.338  0.00  0.00    +0.154 HD
ENDROOT
BRANCH   4  11
ATOM     11  C   UNL     1      -1.130   3.201   1.310  0.00  0.00    -0.020 A 
ATOM     12  C   UNL     1      -1.881   4.100   2.045  0.00  0.00    +0.007 A 
ATOM     13  C   UNL     1      -1.254   4.987   2.900  0.00  0.00    +0.022 A 
ATOM     14  C   UNL     1       0.123   4.972   3.025  0.00  0.00    +0.071 A 
ATOM     15  C   UNL     1       0.874   4.069   2.293  0.00  0.00    +0.145 A 
ATOM     16  C   UNL     1       0.246   3.182   1.438  0.00  0.00    +0.040 A 
ATOM     17 CL   UNL     1       0.911   6.085   4.099  0.00  0.00    -0.081 Cl
BRANCH  15  18
ATOM     18  N   UNL     1       2.348   4.052   2.425  0.00  0.00    +0.058 N 
ATOM     19  O   UNL     1       3.008   3.257   1.781  0.00  0.00    -0.126 OA
ATOM     20  O   UNL     1       2.900   4.834   3.179  0.00  0.00    -0.126 OA
ENDBRANCH  15  18
ENDBRANCH   4  11
BRANCH   3  21
ATOM     21  C   UNL     1      -1.512   0.301   2.008  0.00  0.00    +0.248 C 
ATOM     22  O   UNL     1      -0.907  -0.636   1.521  0.00  0.00    -0.270 OA
ATOM     23  N   UNL     1      -1.373   0.586   3.318  0.00  0.00    -0.282 N 
ATOM     24  H   UNL     1      -1.929   1.267   3.728  0.00  0.00    +0.155 HD
BRANCH  23  25
ATOM     25  C   UNL     1      -0.427  -0.102   4.087  0.00  0.00    +0.037 A 
ATOM     26  C   UNL     1       0.295   0.570   5.065  0.00  0.00    +0.026 A 
ATOM     27  C   UNL     1       1.228  -0.109   5.823  0.00  0.00    +0.043 A 
ATOM     28  C   UNL     1       1.446  -1.459   5.609  0.00  0.00    +0.159 A 
ATOM     29  C   UNL     1       0.726  -2.133   4.634  0.00  0.00    +0.160 A 
ATOM     30  C   UNL     1      -0.213  -1.457   3.877  0.00  0.00    +0.064 A 
ATOM     31  F   UNL     1       0.939  -3.451   4.427  0.00  0.00    -0.202 F 
ATOM     32  F   UNL     1       2.359  -2.121   6.352  0.00  0.00    -0.202 F 
ENDBRANCH  23  25
ENDBRANCH   3  21
TORSDOF 4
