REMARK  Name = ZINC03014997
REMARK  6 active torsions:
REMARK  status: ('A' for Active; 'I' for Inactive)
REMARK    1  A    between atoms: C_3  and  C_8
REMARK    2  A    between atoms: N_10  and  C_11
REMARK    3  A    between atoms: C_11  and  C_13
REMARK    4  A    between atoms: C_11  and  O_17
REMARK    5  A    between atoms: O_17  and  C_18
REMARK    6  A    between atoms: C_21  and  N_24
REMARK                            x       y       z     vdW  Elec       q    Type
REMARK                         _______ _______ _______ _____ _____    ______ ____
ROOT
ATOM      1  C   UNL     1       1.233   1.719   0.002  0.00  0.00    +0.314 C 
ENDROOT
BRANCH   1   4
ATOM      2  C   UNL     1      -1.193   1.491   0.040  0.00  0.00    +0.247 C 
ATOM      3  O   UNL     1      -1.280   2.702  -0.019  0.00  0.00    -0.270 OA
ATOM      4  N   UNL     1       0.018   0.900   0.006  0.00  0.00    -0.273 N 
ATOM      5  H   UNL     1       0.085  -0.067  -0.021  0.00  0.00    +0.153 HD
BRANCH   2   8
ATOM      6  C   UNL     1      -4.807   0.499   0.289  0.00  0.00    +0.002 A 
ATOM      7  C   UNL     1      -3.670   1.274   0.187  0.00  0.00    +0.013 A 
ATOM      8  C   UNL     1      -2.415   0.666   0.151  0.00  0.00    +0.038 A 
ATOM      9  C   UNL     1      -2.318  -0.725   0.213  0.00  0.00    +0.033 A 
ATOM     10  C   UNL     1      -3.463  -1.489   0.321  0.00  0.00    +0.042 A 
ATOM     11  C   UNL     1      -4.705  -0.878   0.356  0.00  0.00    +0.020 A 
ATOM     12 CL   UNL     1      -3.345  -3.219   0.406  0.00  0.00    -0.084 Cl
ENDBRANCH   2   8
ENDBRANCH   1   4
BRANCH   1  13
ATOM     13  C   UNL     1       2.299   1.046  -0.865  0.00  0.00    +0.244 C 
ATOM     14 CL   UNL     1       2.676  -0.585  -0.195  0.00  0.00    -0.078 Cl
ATOM     15 CL   UNL     1       1.684   0.875  -2.551  0.00  0.00    -0.078 Cl
ATOM     16 CL   UNL     1       3.794   2.054  -0.870  0.00  0.00    -0.078 Cl
ENDBRANCH   1  13
BRANCH   1  17
ATOM     17  O   UNL     1       1.721   1.855   1.338  0.00  0.00    -0.467 OA
BRANCH  17  18
ATOM     18  C   UNL     1       2.261   3.054   1.679  0.00  0.00    +0.123 A 
ATOM     19  C   UNL     1       2.427   4.040   0.717  0.00  0.00    +0.048 A 
ATOM     20  C   UNL     1       2.972   5.260   1.067  0.00  0.00    +0.036 A 
ATOM     21  C   UNL     1       3.361   5.495   2.373  0.00  0.00    +0.126 A 
ATOM     22  C   UNL     1       3.201   4.513   3.332  0.00  0.00    +0.036 A 
ATOM     23  C   UNL     1       2.652   3.293   2.988  0.00  0.00    +0.048 A 
BRANCH  21  24
ATOM     24  N   UNL     1       3.949   6.802   2.744  0.00  0.00    +0.056 N 
ATOM     25  O   UNL     1       4.292   7.011   3.894  0.00  0.00    -0.126 OA
ATOM     26  O   UNL     1       4.091   7.668   1.900  0.00  0.00    -0.126 OA
ENDBRANCH  21  24
ENDBRANCH  17  18
ENDBRANCH   1  17
TORSDOF 6
