REMARK  Name = ZINC42399178
REMARK  5 active torsions:
REMARK  status: ('A' for Active; 'I' for Inactive)
REMARK    1  A    between atoms: C_1  and  N_2
REMARK    2  A    between atoms: N_2  and  C_3
REMARK    3  A    between atoms: N_2  and  C_10
REMARK    4  A    between atoms: C_3  and  C_4
REMARK    5  A    between atoms: C_15  and  N_16
REMARK                            x       y       z     vdW  Elec       q    Type
REMARK                         _______ _______ _______ _____ _____    ______ ____
ROOT
ATOM      1  C   UNL     1       0.000  -0.698  -1.214  0.00  0.00    +0.052 A 
ATOM      2  C   UNL     1       1.199  -1.028  -1.823  0.00  0.00    +0.048 A 
ATOM      3  C   UNL     1       1.203  -1.718  -3.033  0.00  0.00    +0.039 A 
ATOM      4  C   UNL     1      -0.009  -2.067  -3.616  0.00  0.00    -0.016 A 
ATOM      5  C   UNL     1      -1.205  -1.741  -3.015  0.00  0.00    +0.030 A 
ATOM      6  C   UNL     1      -1.210  -1.058  -1.807  0.00  0.00    +0.046 A 
ATOM      7  C   UNL     1       0.330  -2.792  -4.899  0.00  0.00    +0.133 C 
ATOM      8  C   UNL     1       1.843  -2.792  -4.934  0.00  0.00    +0.222 C 
ATOM      9  O   UNL     1       2.543  -3.274  -5.800  0.00  0.00    -0.275 OA
ATOM     10  N   UNL     1       2.265  -2.156  -3.829  0.00  0.00    -0.285 N 
ATOM     11  H   UNL     1       3.200  -2.018  -3.608  0.00  0.00    +0.155 HD
ENDROOT
BRANCH   6  12
ATOM     12  N   UNL     1      -2.424  -0.729  -1.188  0.00  0.00    -0.357 N 
ATOM     13  H   UNL     1      -2.424  -0.249  -0.345  0.00  0.00    +0.142 HD
ATOM     14  H   UNL     1      -3.264  -0.982  -1.603  0.00  0.00    +0.142 HD
ENDBRANCH   6  12
BRANCH   1  16
ATOM     15  C   UNL     1      -0.018   1.461   0.010  0.00  0.00    +0.129 C 
ATOM     16  N   UNL     1       0.002  -0.004   0.002  0.00  0.00    -0.327 N 
BRANCH  16  17
ATOM     17  C   UNL     1       0.024  -0.743   1.267  0.00  0.00    +0.147 C 
BRANCH  17  18
ATOM     18  C   UNL     1      -1.389  -1.016   1.714  0.00  0.00    +0.008 A 
ATOM     19  C   UNL     1      -2.180  -2.082   1.440  0.00  0.00    +0.028 A 
ATOM     20  C   UNL     1      -3.459  -2.120   1.964  0.00  0.00    +0.025 A 
ATOM     21  C   UNL     1      -3.883  -1.090   2.737  0.00  0.00    +0.060 A 
ATOM     22  S   UNL     1      -2.452  -0.023   2.748  0.00  0.00    -0.099 S 
ATOM     23 BR   UNL     1      -4.599  -3.587   1.609  0.00  0.00    -0.050 Br
ENDBRANCH  17  18
ENDBRANCH  16  17
ENDBRANCH   1  16
TORSDOF 4
