REMARK  Name = ZINC13015692
REMARK  7 active torsions:
REMARK  status: ('A' for Active; 'I' for Inactive)
REMARK    1  A    between atoms: C_6  and  N_7
REMARK    2  A    between atoms: C_8  and  C_28
REMARK    3  A    between atoms: C_11  and  S_12
REMARK    4  A    between atoms: S_12  and  C_13
REMARK    5  A    between atoms: C_13  and  C_14
REMARK    6  A    between atoms: N_16  and  C_17
REMARK    7  A    between atoms: C_18  and  C_25
REMARK                            x       y       z     vdW  Elec       q    Type
REMARK                         _______ _______ _______ _____ _____    ______ ____
ROOT
ATOM      1  C   UNL     1      -1.331   2.079   0.020  0.00  0.00    +0.173 C 
ENDROOT
BRANCH   1   2
ATOM      2  C   UNL     1      -0.016   1.344   0.009  0.00  0.00    +0.228 C 
ATOM      3  O   UNL     1       1.026   1.964   0.003  0.00  0.00    -0.275 OA
ATOM      4  N   UNL     1       0.002  -0.004   0.002  0.00  0.00    -0.279 N 
ATOM      5  H   UNL     1      -0.831  -0.500   0.007  0.00  0.00    +0.155 HD
BRANCH   4   6
ATOM      6  C   UNL     1       1.212  -0.681  -0.013  0.00  0.00    +0.084 A 
ATOM      7  C   UNL     1       1.434  -2.047  -0.017  0.00  0.00    +0.068 A 
ATOM      8  C   UNL     1       2.821  -2.509  -0.038  0.00  0.00    -0.023 A 
ATOM      9  C   UNL     1       3.747  -1.533  -0.042  0.00  0.00    -0.004 A 
ATOM     10  S   UNL     1       2.813  -0.023  -0.024  0.00  0.00    -0.077 S 
ATOM     11  C   UNL     1       5.147  -2.084  -0.061  0.00  0.00    +0.043 C 
ATOM     12  C   UNL     1       4.981  -3.554  -0.506  0.00  0.00    +0.010 C 
ATOM     13  C   UNL     1       3.540  -3.859  -0.051  0.00  0.00    +0.037 C 
BRANCH   7  14
ATOM     14  C   UNL     1       0.317  -2.998  -0.004  0.00  0.00    +0.244 C 
ATOM     15  O   UNL     1      -0.159  -3.392  -1.053  0.00  0.00    -0.270 OA
ATOM     16  N   UNL     1      -0.182  -3.435   1.169  0.00  0.00    -0.325 N 
ATOM     17  H   UNL     1       0.197  -3.121   2.004  0.00  0.00    +0.145 HD
ATOM     18  H   UNL     1      -0.921  -4.064   1.177  0.00  0.00    +0.145 HD
ENDBRANCH   7  14
ENDBRANCH   4   6
ENDBRANCH   1   2
BRANCH   1  19
ATOM     19  S   UNL     1      -1.025   3.863   0.028  0.00  0.00    -0.078 S 
BRANCH  19  24
ATOM     20  N   UNL     1      -3.052   5.767   0.053  0.00  0.00    -0.282 N 
ATOM     21  C   UNL     1      -4.444   5.792   0.055  0.00  0.00    +0.156 A 
ATOM     22  C   UNL     1      -4.853   4.475   0.050  0.00  0.00    +0.147 A 
ATOM     23  N   UNL     1      -3.766   3.707   0.041  0.00  0.00    -0.229 NA
ATOM     24  C   UNL     1      -2.683   4.458   0.039  0.00  0.00    +0.175 A 
BRANCH  20  30
ATOM     25  C   UNL     1      -2.174   7.730   1.158  0.00  0.00    +0.029 A 
ATOM     26  C   UNL     1      -1.325   8.819   1.167  0.00  0.00    +0.040 A 
ATOM     27  C   UNL     1      -0.505   9.069   0.080  0.00  0.00    +0.124 A 
ATOM     28  C   UNL     1      -0.529   8.223  -1.016  0.00  0.00    +0.040 A 
ATOM     29  C   UNL     1      -1.372   7.129  -1.027  0.00  0.00    +0.029 A 
ATOM     30  C   UNL     1      -2.196   6.877   0.062  0.00  0.00    +0.049 A 
ATOM     31  F   UNL     1       0.320  10.138   0.088  0.00  0.00    -0.205 F 
ENDBRANCH  20  30
BRANCH  21  32
ATOM     32  C   UNL     1      -5.274   6.940   0.066  0.00  0.00    +0.405 C 
ATOM     33  O   UNL     1      -6.484   6.816   0.072  0.00  0.00    -0.239 OA
ATOM     34  O   UNL     1      -4.722   8.172   0.070  0.00  0.00    -0.239 OA
ENDBRANCH  21  32
ENDBRANCH  19  24
ENDBRANCH   1  19
TORSDOF 7
