REMARK  Name = ZINC39621478
REMARK  7 active torsions:
REMARK  status: ('A' for Active; 'I' for Inactive)
REMARK    1  A    between atoms: C_1  and  C_2
REMARK    2  A    between atoms: C_5  and  C_8
REMARK    3  A    between atoms: C_9  and  C_10
REMARK    4  A    between atoms: C_10  and  O_12
REMARK    5  A    between atoms: O_12  and  C_13
REMARK    6  A    between atoms: C_13  and  C_14
REMARK    7  A    between atoms: N_16  and  C_17
REMARK                            x       y       z     vdW  Elec       q    Type
REMARK                         _______ _______ _______ _____ _____    ______ ____
ROOT
ATOM      1  C   UNL     1       0.141  -9.079   3.606  0.00  0.00    +0.255 C 
ATOM      2  O   UNL     1       0.145  -8.346   4.572  0.00  0.00    -0.272 OA
ATOM      3  N   UNL     1       0.157 -10.416   3.776  0.00  0.00    -0.283 N 
ATOM      4  H   UNL     1       0.086 -11.004   3.007  0.00  0.00    +0.155 HD
ENDROOT
BRANCH   3   5
ATOM      5  C   UNL     1       0.277 -10.958   5.062  0.00  0.00    +0.037 A 
ATOM      6  C   UNL     1       0.994 -12.130   5.258  0.00  0.00    +0.027 A 
ATOM      7  C   UNL     1       1.114 -12.667   6.526  0.00  0.00    +0.051 A 
ATOM      8  C   UNL     1       0.518 -12.036   7.604  0.00  0.00    +0.167 A 
ATOM      9  C   UNL     1      -0.203 -10.857   7.411  0.00  0.00    +0.169 A 
ATOM     10  C   UNL     1      -0.318 -10.319   6.142  0.00  0.00    +0.073 A 
ATOM     11  O   UNL     1      -0.681 -10.441   8.626  0.00  0.00    -0.447 OA
ATOM     12  C   UNL     1      -0.657 -11.629   9.431  0.00  0.00    +0.254 C 
ATOM     13  O   UNL     1       0.483 -12.348   8.939  0.00  0.00    -0.448 OA
ATOM     14  C   UNL     1      -1.945 -12.442   9.260  0.00  0.00    +0.093 C 
ATOM     15  C   UNL     1      -2.191 -13.052  10.665  0.00  0.00    +0.008 C 
ATOM     16  C   UNL     1      -1.739 -11.917  11.619  0.00  0.00    +0.008 C 
ATOM     17  C   UNL     1      -0.511 -11.296  10.915  0.00  0.00    +0.093 C 
ENDBRANCH   3   5
BRANCH   1  18
ATOM     18  C   UNL     1       0.118  -8.496   2.217  0.00  0.00    +0.328 C 
BRANCH  18  19
ATOM     19  O   UNL     1       0.104  -7.070   2.300  0.00  0.00    -0.452 OA
BRANCH  19  20
ATOM     20  C   UNL     1       0.082  -6.389   1.135  0.00  0.00    +0.332 C 
ATOM     21  O   UNL     1       0.075  -6.992   0.079  0.00  0.00    -0.246 OA
BRANCH  20  23
ATOM     22  C   UNL     1       0.045  -4.246  -0.022  0.00  0.00    +0.015 C 
ATOM     23  C   UNL     1       0.067  -4.927   1.143  0.00  0.00    +0.092 C 
BRANCH  22  28
ATOM     24  C   UNL     1      -0.018   1.502   0.009  0.00  0.00    +0.044 C 
ATOM     25  C   UNL     1      -0.001  -0.004   0.001  0.00  0.00    -0.050 A 
ATOM     26  C   UNL     1      -0.008  -0.687  -1.204  0.00  0.00    +0.004 A 
ATOM     27  C   UNL     1       0.007  -2.065  -1.219  0.00  0.00    +0.008 A 
ATOM     28  C   UNL     1       0.029  -2.774  -0.014  0.00  0.00    -0.025 A 
ATOM     29  C   UNL     1       0.036  -2.078   1.199  0.00  0.00    +0.008 A 
ATOM     30  C   UNL     1       0.026  -0.699   1.198  0.00  0.00    +0.004 A 
ENDBRANCH  22  28
ENDBRANCH  20  23
ENDBRANCH  19  20
ENDBRANCH  18  19
ENDBRANCH   1  18
TORSDOF 6
