REMARK  Name = ZINC06197804
REMARK  13 active torsions:
REMARK  status: ('A' for Active; 'I' for Inactive)
REMARK    1  A    between atoms: C_1  and  C_2
REMARK    2  A    between atoms: C_2  and  C_3
REMARK    3  A    between atoms: C_10  and  C_15
REMARK    4  A    between atoms: C_15  and  N_16
REMARK    5  A    between atoms: N_16  and  C_17
REMARK    6  A    between atoms: N_16  and  S_26
REMARK    7  A    between atoms: C_17  and  C_18
REMARK    8  A    between atoms: C_21  and  O_24
REMARK    9  A    between atoms: O_24  and  C_25
REMARK   10  A    between atoms: S_26  and  C_29
REMARK   11  A    between atoms: C_30  and  C_37
REMARK   12  A    between atoms: C_32  and  C_36
REMARK   13  A    between atoms: C_34  and  C_35
REMARK                            x       y       z     vdW  Elec       q    Type
REMARK                         _______ _______ _______ _____ _____    ______ ____
ROOT
ATOM      1  N   UNL     1      -2.967   1.604   1.806  0.00  0.00    -0.168 NA
ENDROOT
BRANCH   1   2
ATOM      2  S   UNL     1      -2.920   1.787   0.161  0.00  0.00    +0.062 S 
ATOM      3  O   UNL     1      -2.341   0.600  -0.364  0.00  0.00    -0.153 OA
ATOM      4  O   UNL     1      -2.374   3.075  -0.089  0.00  0.00    -0.153 OA
BRANCH   2   5
ATOM      5  C   UNL     1      -4.587   1.828  -0.407  0.00  0.00    +0.111 A 
ATOM      6  C   UNL     1      -5.322   0.659  -0.479  0.00  0.00    -0.024 A 
ATOM      7  C   UNL     1      -6.632   0.692  -0.919  0.00  0.00    +0.008 A 
ATOM      8  C   UNL     1      -7.205   1.893  -1.292  0.00  0.00    -0.050 A 
ATOM      9  C   UNL     1      -6.469   3.061  -1.226  0.00  0.00    +0.008 A 
ATOM     10  C   UNL     1      -5.159   3.028  -0.786  0.00  0.00    -0.024 A 
ATOM     11  C   UNL     1      -4.356   4.301  -0.714  0.00  0.00    +0.046 C 
ATOM     12  C   UNL     1      -8.634   1.929  -1.772  0.00  0.00    +0.044 C 
ATOM     13  C   UNL     1      -4.696  -0.650  -0.071  0.00  0.00    +0.046 C 
ENDBRANCH   2   5
ENDBRANCH   1   2
BRANCH   1  14
ATOM     14  C   UNL     1      -2.650   0.306   2.408  0.00  0.00    +0.150 C 
BRANCH  14  22
ATOM     15  C   UNL     1       0.880   0.946   7.449  0.00  0.00    -0.047 A 
ATOM     16  C   UNL     1       2.101   0.909   6.790  0.00  0.00    +0.005 A 
ATOM     17  C   UNL     1       2.157   0.764   5.421  0.00  0.00    +0.026 A 
ATOM     18  C   UNL     1       0.979   0.652   4.690  0.00  0.00    +0.049 A 
ATOM     19  C   UNL     1      -0.257   0.690   5.362  0.00  0.00    -0.001 A 
ATOM     20  C   UNL     1      -0.290   0.839   6.752  0.00  0.00    +0.013 A 
ATOM     21  C   UNL     1      -1.492   0.573   4.583  0.00  0.00    +0.020 A 
ATOM     22  C   UNL     1      -1.398   0.430   3.238  0.00  0.00    +0.033 A 
ATOM     23  C   UNL     1      -0.133   0.392   2.614  0.00  0.00    +0.254 A 
ATOM     24  O   UNL     1      -0.072   0.258   1.404  0.00  0.00    -0.268 OA
ATOM     25  N   UNL     1       1.006   0.505   3.319  0.00  0.00    -0.322 N 
ATOM     26  H   UNL     1       1.885   0.481   2.843  0.00  0.00    +0.169 HD
BRANCH  15  28
ATOM     27  C   UNL     1       0.871  -0.273   9.609  0.00  0.00    +0.009 C 
ATOM     28  C   UNL     1       0.844   1.106   8.947  0.00  0.00    +0.032 C 
ENDBRANCH  15  28
ENDBRANCH  14  22
ENDBRANCH   1  14
BRANCH   1  29
ATOM     29  C   UNL     1      -3.326   2.739   2.659  0.00  0.00    +0.145 C 
BRANCH  29  30
ATOM     30  C   UNL     1      -4.734   2.560   3.166  0.00  0.00    -0.031 A 
ATOM     31  C   UNL     1      -5.797   3.071   2.444  0.00  0.00    +0.008 A 
ATOM     32  C   UNL     1      -7.089   2.904   2.904  0.00  0.00    +0.046 A 
ATOM     33  C   UNL     1      -7.319   2.233   4.097  0.00  0.00    +0.120 A 
ATOM     34  C   UNL     1      -6.250   1.727   4.822  0.00  0.00    +0.046 A 
ATOM     35  C   UNL     1      -4.960   1.892   4.355  0.00  0.00    +0.008 A 
BRANCH  33  36
ATOM     36  O   UNL     1      -8.589   2.072   4.553  0.00  0.00    -0.495 OA
ATOM     37  C   UNL     1      -9.640   2.619   3.755  0.00  0.00    +0.277 C 
ENDBRANCH  33  36
ENDBRANCH  29  30
ENDBRANCH   1  29
TORSDOF 8
