REMARK  Name = ZINC01374216
REMARK  13 active torsions:
REMARK  status: ('A' for Active; 'I' for Inactive)
REMARK    1  A    between atoms: C_1  and  C_2
REMARK    2  A    between atoms: C_2  and  C_3
REMARK    3  A    between atoms: C_3  and  C_5
REMARK    4  A    between atoms: C_3  and  N_19
REMARK    5  A    between atoms: N_9  and  C_10
REMARK    6  A    between atoms: C_10  and  C_11
REMARK    7  A    between atoms: C_14  and  O_17
REMARK    8  A    between atoms: O_17  and  C_18
REMARK    9  A    between atoms: N_19  and  C_20
REMARK   10  A    between atoms: N_19  and  C_26
REMARK   11  A    between atoms: C_20  and  C_21
REMARK   12  A    between atoms: C_26  and  C_27
REMARK   13  A    between atoms: C_32  and  C_39
REMARK                            x       y       z     vdW  Elec       q    Type
REMARK                         _______ _______ _______ _____ _____    ______ ____
ROOT
ATOM      1  N   UNL     1       2.208  -0.293   1.122  0.00  0.00    -0.284 NA
ENDROOT
BRANCH   1   2
ATOM      2  C   UNL     1       0.862  -0.672   1.573  0.00  0.00    +0.127 C 
BRANCH   2   3
ATOM      3  C   UNL     1       0.737  -0.414   3.053  0.00  0.00    +0.169 A 
ATOM      4  N   UNL     1       1.616  -0.715   3.977  0.00  0.00    -0.112 NA
ATOM      5  N   UNL     1       1.144  -0.334   5.114  0.00  0.00    -0.023 NA
ATOM      6  N   UNL     1      -0.013   0.202   4.939  0.00  0.00    -0.044 NA
ATOM      7  N   UNL     1      -0.297   0.176   3.680  0.00  0.00    -0.223 N 
BRANCH   7   8
ATOM      8  C   UNL     1      -1.518   0.689   3.053  0.00  0.00    +0.182 C 
BRANCH   8   9
ATOM      9  C   UNL     1      -2.556  -0.402   3.008  0.00  0.00    -0.026 A 
ATOM     10  C   UNL     1      -2.621  -1.248   1.916  0.00  0.00    +0.009 A 
ATOM     11  C   UNL     1      -3.572  -2.249   1.872  0.00  0.00    +0.046 A 
ATOM     12  C   UNL     1      -4.463  -2.405   2.924  0.00  0.00    +0.120 A 
ATOM     13  C   UNL     1      -4.396  -1.555   4.018  0.00  0.00    +0.046 A 
ATOM     14  C   UNL     1      -3.439  -0.559   4.060  0.00  0.00    +0.009 A 
BRANCH  12  15
ATOM     15  O   UNL     1      -5.400  -3.389   2.882  0.00  0.00    -0.495 OA
ATOM     16  C   UNL     1      -6.283  -3.491   4.000  0.00  0.00    +0.277 C 
ENDBRANCH  12  15
ENDBRANCH   8   9
ENDBRANCH   7   8
ENDBRANCH   2   3
BRANCH   2  18
ATOM     17  C   UNL     1       0.631  -2.400  -0.217  0.00  0.00    +0.006 C 
ATOM     18  C   UNL     1       0.631  -2.159   1.294  0.00  0.00    +0.023 C 
ENDBRANCH   2  18
ENDBRANCH   1   2
BRANCH   1  19
ATOM     19  C   UNL     1       3.240  -0.940   1.943  0.00  0.00    +0.127 C 
BRANCH  19  20
ATOM     20  C   UNL     1       4.567  -0.865   1.232  0.00  0.00    +0.004 A 
ATOM     21  C   UNL     1       5.562   0.044   1.375  0.00  0.00    +0.012 A 
ATOM     22  C   UNL     1       6.705  -0.086   0.609  0.00  0.00    +0.008 A 
ATOM     23  C   UNL     1       6.797  -1.120  -0.262  0.00  0.00    +0.045 A 
ATOM     24  S   UNL     1       5.239  -1.955  -0.011  0.00  0.00    -0.100 S 
ENDBRANCH  19  20
ENDBRANCH   1  19
BRANCH   1  25
ATOM     25  C   UNL     1       2.372   1.167   1.125  0.00  0.00    +0.126 C 
BRANCH  25  26
ATOM     26  C   UNL     1       1.654   1.755  -0.063  0.00  0.00    +0.031 A 
ATOM     27  C   UNL     1       0.408   2.269   0.087  0.00  0.00    +0.020 A 
ATOM     28  C   UNL     1      -0.262   2.833  -1.086  0.00  0.00    -0.001 A 
ATOM     29  C   UNL     1      -1.547   3.378  -0.993  0.00  0.00    +0.010 A 
ATOM     30  C   UNL     1      -2.144   3.897  -2.107  0.00  0.00    +0.004 A 
ATOM     31  C   UNL     1      -1.487   3.889  -3.330  0.00  0.00    -0.048 A 
ATOM     32  C   UNL     1      -0.221   3.357  -3.445  0.00  0.00    +0.029 A 
ATOM     33  C   UNL     1       0.408   2.823  -2.324  0.00  0.00    +0.049 A 
ATOM     34  N   UNL     1       1.675   2.286  -2.410  0.00  0.00    -0.322 N 
ATOM     35  H   UNL     1       2.134   2.280  -3.264  0.00  0.00    +0.169 HD
ATOM     36  C   UNL     1       2.284   1.774  -1.326  0.00  0.00    +0.254 A 
ATOM     37  O   UNL     1       3.406   1.312  -1.437  0.00  0.00    -0.268 OA
ATOM     38  C   UNL     1      -2.166   4.466  -4.545  0.00  0.00    +0.044 C 
ENDBRANCH  25  26
ENDBRANCH   1  25
TORSDOF 10
