REMARK  Name = ZINC04663788
REMARK  5 active torsions:
REMARK  status: ('A' for Active; 'I' for Inactive)
REMARK    1  A    between atoms: C_3  and  O_17
REMARK    2  A    between atoms: C_4  and  C_8
REMARK    3  A    between atoms: C_8  and  C_10
REMARK    4  A    between atoms: C_11  and  N_12
REMARK    5  A    between atoms: C_11  and  C_13
REMARK                            x       y       z     vdW  Elec       q    Type
REMARK                         _______ _______ _______ _____ _____    ______ ____
ROOT
ATOM      1  C   UNL     1       3.770  -0.849  -1.066  0.00  0.00    +0.191 C 
ATOM      2  O   UNL     1       4.839  -0.321  -1.318  0.00  0.00    -0.287 OA
ENDROOT
BRANCH   1   6
ATOM      3  C   UNL     1       0.141   1.230  -1.829  0.00  0.00    +0.023 A 
ATOM      4  C   UNL     1       1.349   1.835  -2.117  0.00  0.00    +0.047 A 
ATOM      5  C   UNL     1       2.538   1.166  -1.872  0.00  0.00    +0.128 A 
ATOM      6  C   UNL     1       2.509  -0.126  -1.331  0.00  0.00    +0.064 A 
ATOM      7  C   UNL     1       1.282  -0.727  -1.043  0.00  0.00    +0.035 A 
ATOM      8  C   UNL     1       0.108  -0.047  -1.293  0.00  0.00    +0.042 A 
ATOM      9 CL   UNL     1      -1.417  -0.795  -0.935  0.00  0.00    -0.084 Cl
BRANCH   5  10
ATOM     10  O   UNL     1       3.725   1.760  -2.156  0.00  0.00    -0.506 OA
ATOM     11  H   UNL     1       4.093   2.273  -1.423  0.00  0.00    +0.292 HD
ENDBRANCH   5  10
ENDBRANCH   1   6
BRANCH   1  12
ATOM     12  C   UNL     1       3.737  -2.152  -0.519  0.00  0.00    +0.074 C 
ATOM     13  C   UNL     1       4.888  -2.765  -0.164  0.00  0.00    +0.056 C 
BRANCH  13  14
ATOM     14  C   UNL     1       4.873  -4.216   0.242  0.00  0.00    +0.228 C 
ATOM     15 CL   UNL     1       3.188  -4.849   0.152  0.00  0.00    -0.077 Cl
ATOM     16 CL   UNL     1       5.931  -5.162  -0.871  0.00  0.00    -0.077 Cl
ATOM     17 CL   UNL     1       5.485  -4.374   1.931  0.00  0.00    -0.077 Cl
ENDBRANCH  13  14
BRANCH  13  18
ATOM     18  N   UNL     1       6.063  -2.070  -0.172  0.00  0.00    -0.358 N 
ATOM     19  H   UNL     1       6.900  -2.534  -0.330  0.00  0.00    +0.142 HD
ATOM     20  H   UNL     1       6.061  -1.111  -0.022  0.00  0.00    +0.142 HD
ENDBRANCH  13  18
ENDBRANCH   1  12
TORSDOF 5
