REMARK  Name = ZINC09505426
REMARK  11 active torsions:
REMARK  status: ('A' for Active; 'I' for Inactive)
REMARK    1  A    between atoms: C_1  and  C_2
REMARK    2  A    between atoms: C_2  and  C_3
REMARK    3  A    between atoms: N_12  and  C_13
REMARK    4  A    between atoms: C_13  and  C_14
REMARK    5  A    between atoms: C_14  and  C_15
REMARK    6  A    between atoms: C_15  and  N_63
REMARK    7  A    between atoms: C_16  and  N_63
REMARK    8  A    between atoms: C_17  and  N_63
REMARK    9  A    between atoms: C_18  and  C_20
REMARK   10  A    between atoms: N_25  and  S_26
REMARK   11  A    between atoms: S_26  and  C_29
REMARK                            x       y       z     vdW  Elec       q    Type
REMARK                         _______ _______ _______ _____ _____    ______ ____
ROOT
ATOM      1  C   UNL     1      -0.277   4.048  -2.445  0.00  0.00    -0.046 A 
ATOM      2  C   UNL     1       0.228   5.310  -2.721  0.00  0.00    +0.006 A 
ATOM      3  C   UNL     1       1.529   5.638  -2.441  0.00  0.00    +0.029 A 
ATOM      4  C   UNL     1       2.402   4.692  -1.855  0.00  0.00    +0.080 A 
ATOM      5  C   UNL     1       1.852   3.419  -1.584  0.00  0.00    +0.041 A 
ATOM      6  C   UNL     1       0.547   3.100  -1.867  0.00  0.00    +0.021 A 
ATOM      7  S   UNL     1       3.231   2.555  -0.872  0.00  0.00    -0.052 S 
ATOM      8  C   UNL     1       4.412   3.893  -0.975  0.00  0.00    +0.168 A 
ATOM      9  N   UNL     1       3.700   4.853  -1.518  0.00  0.00    -0.224 NA
ATOM     10  N   UNL     1       5.740   3.912  -0.581  0.00  0.00    -0.249 N 
ATOM     11  C   UNL     1       6.297   2.813  -0.036  0.00  0.00    +0.240 C 
ATOM     12  O   UNL     1       5.662   1.782   0.033  0.00  0.00    -0.273 OA
ENDROOT
BRANCH  11  13
ATOM     13  C   UNL     1       7.709   2.864   0.489  0.00  0.00    +0.166 C 
ATOM     14  C   UNL     1       8.695   2.290  -0.559  0.00  0.00    +0.031 C 
ATOM     15  C   UNL     1       9.881   1.849   0.338  0.00  0.00    +0.019 C 
ATOM     16  C   UNL     1       9.180   1.354   1.620  0.00  0.00    +0.110 C 
ATOM     17  N   UNL     1       7.852   1.988   1.665  0.00  0.00    -0.164 NA
BRANCH  17  18
ATOM     18  S   UNL     1       6.709   1.755   2.840  0.00  0.00    +0.068 S 
ATOM     19  O   UNL     1       7.413   1.525   4.053  0.00  0.00    -0.152 OA
ATOM     20  O   UNL     1       5.761   2.804   2.697  0.00  0.00    -0.152 OA
BRANCH  18  21
ATOM     21  C   UNL     1       5.864   0.258   2.456  0.00  0.00    +0.143 A 
ATOM     22  C   UNL     1       6.223  -1.020   2.733  0.00  0.00    +0.036 A 
ATOM     23  C   UNL     1       5.393  -2.051   2.333  0.00  0.00    +0.010 A 
ATOM     24  C   UNL     1       4.250  -1.754   1.668  0.00  0.00    +0.047 A 
ATOM     25  S   UNL     1       4.317   0.028   1.595  0.00  0.00    -0.077 S 
ENDBRANCH  18  21
ENDBRANCH  17  18
ENDBRANCH  11  13
BRANCH   1  27
ATOM     26  C   UNL     1      -2.596   4.053  -1.569  0.00  0.00    +0.009 C 
ATOM     27  C   UNL     1      -1.710   3.714  -2.769  0.00  0.00    +0.032 C 
ENDBRANCH   1  27
BRANCH  10  28
ATOM     28  C   UNL     1       6.539   5.128  -0.757  0.00  0.00    +0.114 C 
BRANCH  28  29
ATOM     29  C   UNL     1       6.509   5.949   0.534  0.00  0.00    +0.001 C 
BRANCH  29  30
ATOM     30  C   UNL     1       7.343   7.218   0.350  0.00  0.00    -0.078 C 
BRANCH  30  33
ATOM     31  C   UNL     1       7.994   7.296   2.681  0.00  0.00    -0.097 C 
ATOM     32  C   UNL     1       7.901   9.337   1.381  0.00  0.00    -0.097 C 
ATOM     33  N   UNL     1       7.287   8.010   1.597  0.00  0.00    +0.376 N 
ATOM     34  H   UNL     1       6.305   8.137   1.867  0.00  0.00    -0.083 HD
ENDBRANCH  30  33
ENDBRANCH  29  30
ENDBRANCH  28  29
ENDBRANCH  10  28
TORSDOF 8
