REMARK  Name = ZINC39689968
REMARK  6 active torsions:
REMARK  status: ('A' for Active; 'I' for Inactive)
REMARK    1  A    between atoms: C_1  and  C_2
REMARK    2  A    between atoms: C_6  and  C_8
REMARK    3  A    between atoms: C_12  and  C_21
REMARK    4  A    between atoms: N_23  and  C_24
REMARK    5  A    between atoms: C_24  and  C_25
REMARK    6  A    between atoms: C_28  and  N_31
REMARK                            x       y       z     vdW  Elec       q    Type
REMARK                         _______ _______ _______ _____ _____    ______ ____
ROOT
ATOM      1  C   UNL     1       0.053  -2.845   2.455  0.00  0.00    +0.247 C 
ATOM      2  O   UNL     1       0.158  -2.250   3.510  0.00  0.00    -0.270 OA
ATOM      3  N   UNL     1      -0.032  -4.190   2.446  0.00  0.00    -0.296 N 
ATOM      4  C   UNL     1      -0.035  -5.092   1.270  0.00  0.00    +0.121 C 
ATOM      5  C   UNL     1       0.819  -6.304   1.705  0.00  0.00    +0.100 C 
ATOM      6  C   UNL     1       0.743  -6.306   3.241  0.00  0.00    -0.004 C 
ATOM      7  C   UNL     1      -0.135  -5.102   3.610  0.00  0.00    +0.115 C 
ATOM      8  C   UNL     1       2.137  -6.138   3.838  0.00  0.00    -0.010 C 
ATOM      9  C   UNL     1       2.043  -6.200   5.366  0.00  0.00    -0.082 C 
ATOM     10  N   UNL     1       1.468  -7.489   5.770  0.00  0.00    +0.379 N 
ATOM     11  C   UNL     1       0.093  -7.603   5.268  0.00  0.00    -0.082 C 
ATOM     12  C   UNL     1       0.104  -7.599   3.737  0.00  0.00    -0.010 C 
ATOM     13  H   UNL     1       2.026  -8.238   5.391  0.00  0.00    -0.086 HD
ATOM     14  H   UNL     1       1.463  -7.552   6.777  0.00  0.00    -0.086 HD
ENDROOT
BRANCH   1  20
ATOM     15  C   UNL     1      -1.279  -2.541  -2.344  0.00  0.00    +0.044 C 
ATOM     16  C   UNL     1      -0.621  -1.943  -1.128  0.00  0.00    -0.050 A 
ATOM     17  C   UNL     1      -0.047  -0.685  -1.201  0.00  0.00    +0.003 A 
ATOM     18  C   UNL     1       0.558  -0.129  -0.089  0.00  0.00    +0.001 A 
ATOM     19  C   UNL     1       0.594  -0.825   1.102  0.00  0.00    +0.013 A 
ATOM     20  C   UNL     1       0.018  -2.093   1.183  0.00  0.00    +0.037 A 
ATOM     21  C   UNL     1      -0.597  -2.647   0.058  0.00  0.00    +0.016 A 
ENDBRANCH   1  20
BRANCH   5  22
ATOM     22  C   UNL     1       0.241  -7.579   1.147  0.00  0.00    +0.218 C 
ATOM     23  O   UNL     1      -0.938  -7.641   0.871  0.00  0.00    -0.275 OA
ATOM     24  N   UNL     1       1.036  -8.651   0.955  0.00  0.00    -0.311 N 
ATOM     25  H   UNL     1       1.979  -8.601   1.176  0.00  0.00    +0.149 HD
BRANCH  24  26
ATOM     26  C   UNL     1       0.474  -9.891   0.413  0.00  0.00    +0.139 C 
BRANCH  26  27
ATOM     27  C   UNL     1       1.563 -10.927   0.297  0.00  0.00    -0.030 A 
ATOM     28  C   UNL     1       2.306 -11.020  -0.866  0.00  0.00    +0.007 A 
ATOM     29  C   UNL     1       3.304 -11.968  -0.975  0.00  0.00    +0.026 A 
ATOM     30  C   UNL     1       3.562 -12.827   0.084  0.00  0.00    +0.046 A 
ATOM     31  C   UNL     1       2.815 -12.731   1.250  0.00  0.00    +0.026 A 
ATOM     32  C   UNL     1       1.821 -11.778   1.356  0.00  0.00    +0.007 A 
BRANCH  30  33
ATOM     33  N   UNL     1       4.575 -13.791  -0.024  0.00  0.00    -0.323 N 
ATOM     34  C   UNL     1       5.380 -13.982  -1.110  0.00  0.00    +0.091 A 
ATOM     35  C   UNL     1       6.225 -14.996  -0.835  0.00  0.00    +0.019 A 
ATOM     36  C   UNL     1       5.933 -15.449   0.467  0.00  0.00    +0.019 A 
ATOM     37  C   UNL     1       4.924 -14.691   0.943  0.00  0.00    +0.091 A 
ENDBRANCH  30  33
ENDBRANCH  26  27
ENDBRANCH  24  26
ENDBRANCH   5  22
TORSDOF 5
