REMARK  Name = ZINC43688587
REMARK  6 active torsions:
REMARK  status: ('A' for Active; 'I' for Inactive)
REMARK    1  A    between atoms: C_3  and  C_9
REMARK    2  A    between atoms: C_4  and  N_8
REMARK    3  A    between atoms: C_6  and  N_7
REMARK    4  A    between atoms: C_9  and  O_11
REMARK    5  A    between atoms: O_11  and  C_12
REMARK    6  A    between atoms: C_12  and  C_13
REMARK                            x       y       z     vdW  Elec       q    Type
REMARK                         _______ _______ _______ _____ _____    ______ ____
ROOT
ATOM      1  C   UNL     1      -0.080   1.266   0.032  0.00  0.00    +0.023 A 
ATOM      2  C   UNL     1       1.010   2.087   0.004  0.00  0.00    +0.018 A 
ATOM      3  C   UNL     1       2.299   1.542  -0.034  0.00  0.00    +0.080 A 
ATOM      4  C   UNL     1       2.465   0.145  -0.044  0.00  0.00    +0.040 A 
ATOM      5  C   UNL     1       1.350  -0.678  -0.015  0.00  0.00    +0.046 A 
ATOM      6  C   UNL     1       0.079  -0.119   0.023  0.00  0.00    +0.026 A 
ENDROOT
BRANCH   6   7
ATOM      7  N   UNL     1      -1.039  -0.945   0.051  0.00  0.00    -0.358 N 
ATOM      8  H   UNL     1      -1.928  -0.556   0.078  0.00  0.00    +0.142 HD
ATOM      9  H   UNL     1      -0.931  -1.908   0.045  0.00  0.00    +0.142 HD
ENDBRANCH   6   7
BRANCH   4  10
ATOM     10  N   UNL     1       3.739  -0.407  -0.083  0.00  0.00    -0.357 N 
ATOM     11  H   UNL     1       4.518   0.168  -0.022  0.00  0.00    +0.142 HD
ATOM     12  H   UNL     1       3.850  -1.366  -0.171  0.00  0.00    +0.142 HD
ENDBRANCH   4  10
BRANCH   3  13
ATOM     13  C   UNL     1       3.473   2.425  -0.065  0.00  0.00    +0.341 C 
ATOM     14  O   UNL     1       4.591   1.953   0.009  0.00  0.00    -0.245 OA
BRANCH  13  15
ATOM     15  O   UNL     1       3.310   3.759  -0.176  0.00  0.00    -0.456 OA
BRANCH  15  16
ATOM     16  C   UNL     1       4.495   4.557  -0.200  0.00  0.00    +0.275 C 
BRANCH  16  17
ATOM     17  C   UNL     1       4.119   6.011  -0.328  0.00  0.00    +0.028 A 
ATOM     18  C   UNL     1       3.877   6.918   0.649  0.00  0.00    +0.029 A 
ATOM     19  C   UNL     1       3.544   8.213   0.294  0.00  0.00    +0.025 A 
ATOM     20  C   UNL     1       3.470   8.535  -1.020  0.00  0.00    +0.060 A 
ATOM     21  S   UNL     1       3.885   6.986  -1.804  0.00  0.00    -0.097 S 
ATOM     22 BR   UNL     1       3.196   9.513   1.623  0.00  0.00    -0.050 Br
ENDBRANCH  16  17
ENDBRANCH  15  16
ENDBRANCH  13  15
ENDBRANCH   3  13
TORSDOF 6
