REMARK  Name = ZINC21527660
REMARK  16 active torsions:
REMARK  status: ('A' for Active; 'I' for Inactive)
REMARK    1  A    between atoms: C_1  and  C_2
REMARK    2  A    between atoms: C_2  and  O_3
REMARK    3  A    between atoms: O_3  and  C_4
REMARK    4  A    between atoms: C_7  and  C_13
REMARK    5  A    between atoms: C_9  and  O_10
REMARK    6  A    between atoms: O_10  and  C_11
REMARK    7  A    between atoms: C_11  and  C_12
REMARK    8  A    between atoms: C_13  and  C_14
REMARK    9  A    between atoms: C_14  and  N_15
REMARK   10  A    between atoms: C_28  and  C_29
REMARK   11  A    between atoms: C_28  and  C_30
REMARK   12  A    between atoms: N_32  and  C_33
REMARK   13  A    between atoms: C_33  and  C_34
REMARK   14  A    between atoms: C_34  and  C_35
REMARK   15  A    between atoms: C_35  and  C_36
REMARK   16  A    between atoms: C_35  and  C_37
REMARK                            x       y       z     vdW  Elec       q    Type
REMARK                         _______ _______ _______ _____ _____    ______ ____
ROOT
ATOM      1  N   UNL     1      -1.053   3.735   0.178  0.00  0.00    -0.280 N 
ATOM      2  C   UNL     1      -2.148   4.472   0.477  0.00  0.00    +0.264 C 
ATOM      3  O   UNL     1      -2.057   5.612   0.892  0.00  0.00    -0.268 OA
ATOM      4  C   UNL     1      -3.455   3.822   0.271  0.00  0.00    +0.106 A 
ATOM      5  C   UNL     1      -4.696   4.352   0.296  0.00  0.00    +0.041 A 
ATOM      6  C   UNL     1      -5.602   3.314   0.011  0.00  0.00    +0.001 A 
ATOM      7  C   UNL     1      -7.000   3.301  -0.095  0.00  0.00    +0.010 A 
ATOM      8  C   UNL     1      -7.589   2.100  -0.398  0.00  0.00    +0.001 A 
ATOM      9  C   UNL     1      -6.849   0.944  -0.591  0.00  0.00    +0.002 A 
ATOM     10  C   UNL     1      -5.470   0.924  -0.490  0.00  0.00    +0.026 A 
ATOM     11  C   UNL     1      -4.838   2.130  -0.183  0.00  0.00    +0.050 A 
ATOM     12  N   UNL     1      -3.535   2.457  -0.011  0.00  0.00    -0.334 N 
ATOM     13  C   UNL     1      -2.332   1.619  -0.074  0.00  0.00    +0.157 C 
ATOM     14  C   UNL     1      -1.150   2.469  -0.539  0.00  0.00    +0.128 C 
ATOM     15  C   UNL     1      -1.308   2.760  -2.033  0.00  0.00    +0.043 C 
ENDROOT
BRANCH  14  16
ATOM     16  C   UNL     1       0.123   1.690  -0.328  0.00  0.00    +0.238 C 
ATOM     17  O   UNL     1       0.703   1.208  -1.277  0.00  0.00    -0.273 OA
ATOM     18  N   UNL     1       0.619   1.534   0.915  0.00  0.00    -0.313 N 
ATOM     19  H   UNL     1       0.134   2.033   1.768  0.00  0.00    +0.149 HD
BRANCH  18  20
ATOM     20  C   UNL     1       1.803   0.700   1.132  0.00  0.00    +0.104 C 
BRANCH  20  21
ATOM     21  C   UNL     1       2.082   0.591   2.633  0.00  0.00    +0.022 C 
BRANCH  21  22
ATOM     22  C   UNL     1       3.272  -0.343   2.863  0.00  0.00    -0.016 C 
ATOM     23  C   UNL     1       3.666  -0.312   4.341  0.00  0.00    +0.007 C 
ATOM     24  C   UNL     1       2.884  -1.770   2.469  0.00  0.00    +0.007 C 
ENDBRANCH  21  22
ENDBRANCH  20  21
ENDBRANCH  18  20
ENDBRANCH  14  16
BRANCH   1  25
ATOM     25  C   UNL     1       0.267   4.221   0.588  0.00  0.00    +0.114 C 
BRANCH  25  26
ATOM     26  C   UNL     1       0.824   5.153  -0.489  0.00  0.00    +0.054 C 
BRANCH  26  30
ATOM     27  C   UNL     1       4.803   6.321   0.556  0.00  0.00    +0.162 A 
ATOM     28  C   UNL     1       3.718   7.018   1.061  0.00  0.00    +0.050 A 
ATOM     29  C   UNL     1       2.433   6.642   0.717  0.00  0.00    +0.007 A 
ATOM     30  C   UNL     1       2.227   5.563  -0.122  0.00  0.00    -0.042 A 
ATOM     31  C   UNL     1       3.305   4.862  -0.630  0.00  0.00    +0.053 A 
ATOM     32  C   UNL     1       4.596   5.238  -0.293  0.00  0.00    +0.162 A 
BRANCH  27  33
ATOM     33  O   UNL     1       6.068   6.694   0.889  0.00  0.00    -0.489 OA
BRANCH  33  35
ATOM     34  C   UNL     1       7.689   8.081   2.024  0.00  0.00    +0.048 C 
ATOM     35  C   UNL     1       6.205   7.814   1.765  0.00  0.00    +0.226 C 
ENDBRANCH  33  35
ENDBRANCH  27  33
BRANCH  32  36
ATOM     36  O   UNL     1       5.658   4.551  -0.792  0.00  0.00    -0.489 OA
BRANCH  36  37
ATOM     37  C   UNL     1       5.376   3.522  -1.744  0.00  0.00    +0.226 C 
ATOM     38  C   UNL     1       6.676   2.811  -2.127  0.00  0.00    +0.048 C 
ENDBRANCH  36  37
ENDBRANCH  32  36
ENDBRANCH  26  30
ENDBRANCH  25  26
ENDBRANCH   1  25
TORSDOF 11
