REMARK  Name = ZINC13032410
REMARK  14 active torsions:
REMARK  status: ('A' for Active; 'I' for Inactive)
REMARK    1  A    between atoms: C_1  and  C_2
REMARK    2  A    between atoms: C_2  and  C_3
REMARK    3  A    between atoms: C_6  and  C_9
REMARK    4  A    between atoms: C_9  and  C_11
REMARK    5  A    between atoms: C_9  and  N_19
REMARK    6  A    between atoms: N_13  and  C_14
REMARK    7  A    between atoms: C_14  and  C_15
REMARK    8  A    between atoms: C_14  and  C_16
REMARK    9  A    between atoms: C_14  and  C_17
REMARK   10  A    between atoms: C_17  and  C_18
REMARK   11  A    between atoms: N_19  and  C_20
REMARK   12  A    between atoms: C_20  and  C_21
REMARK   13  A    between atoms: C_27  and  C_29
REMARK   14  A    between atoms: C_29  and  N_30
REMARK                            x       y       z     vdW  Elec       q    Type
REMARK                         _______ _______ _______ _____ _____    ______ ____
ROOT
ATOM      1  N   UNL     1      -0.809   1.586  -6.199  0.00  0.00    -0.282 N 
ATOM      2  C   UNL     1      -0.761   1.594  -7.546  0.00  0.00    +0.238 C 
ATOM      3  O   UNL     1       0.113   0.984  -8.126  0.00  0.00    -0.274 OA
ENDROOT
BRANCH   1   4
ATOM      4  C   UNL     1       0.195   0.841  -5.435  0.00  0.00    +0.192 C 
BRANCH   4   8
ATOM      5  C   UNL     1       4.071   2.453  -6.223  0.00  0.00    -0.048 A 
ATOM      6  C   UNL     1       3.921   1.099  -5.987  0.00  0.00    +0.004 A 
ATOM      7  C   UNL     1       2.666   0.578  -5.732  0.00  0.00    +0.006 A 
ATOM      8  C   UNL     1       1.562   1.410  -5.713  0.00  0.00    -0.018 A 
ATOM      9  C   UNL     1       1.712   2.762  -5.955  0.00  0.00    +0.006 A 
ATOM     10  C   UNL     1       2.967   3.285  -6.205  0.00  0.00    +0.004 A 
BRANCH   5  12
ATOM     11  C   UNL     1       5.709   2.989  -8.007  0.00  0.00    +0.009 C 
ATOM     12  C   UNL     1       5.439   3.022  -6.501  0.00  0.00    +0.032 C 
ENDBRANCH   5  12
ENDBRANCH   4   8
BRANCH   4  13
ATOM     13  C   UNL     1      -0.108   0.956  -3.963  0.00  0.00    +0.238 C 
ATOM     14  O   UNL     1      -0.375   2.036  -3.482  0.00  0.00    -0.273 OA
ATOM     15  N   UNL     1      -0.081  -0.142  -3.182  0.00  0.00    -0.308 N 
ATOM     16  H   UNL     1       0.133  -1.006  -3.568  0.00  0.00    +0.149 HD
BRANCH  15  17
ATOM     17  C   UNL     1      -0.375  -0.031  -1.752  0.00  0.00    +0.029 C 
ATOM     18  C   UNL     1      -1.789   0.523  -1.563  0.00  0.00    +0.031 C 
ATOM     19  C   UNL     1       0.634   0.914  -1.096  0.00  0.00    +0.031 C 
BRANCH  17  20
ATOM     20  C   UNL     1      -0.277  -1.412  -1.101  0.00  0.00    +0.022 C 
ATOM     21  C   UNL     1      -0.584  -1.296   0.393  0.00  0.00    +0.006 C 
ENDBRANCH  17  20
ENDBRANCH  15  17
ENDBRANCH   4  13
ENDBRANCH   1   4
BRANCH   1  22
ATOM     22  C   UNL     1      -1.864   2.324  -5.500  0.00  0.00    +0.140 C 
BRANCH  22  23
ATOM     23  C   UNL     1      -1.421   3.773  -5.290  0.00  0.00    +0.136 C 
ATOM     24  C   UNL     1      -2.557   4.595  -4.644  0.00  0.00    +0.035 C 
ATOM     25  C   UNL     1      -2.452   5.980  -5.321  0.00  0.00    +0.031 C 
ATOM     26  C   UNL     1      -1.263   5.831  -6.296  0.00  0.00    +0.160 C 
ATOM     27  O   UNL     1      -1.180   4.413  -6.562  0.00  0.00    -0.375 OA
ENDBRANCH  22  23
ENDBRANCH   1  22
BRANCH   2  28
ATOM     28  C   UNL     1      -1.793   2.361  -8.332  0.00  0.00    +0.241 C 
BRANCH  28  29
ATOM     29  N   UNL     1      -1.525   2.213  -9.765  0.00  0.00    -0.235 N 
ATOM     30  C   UNL     1      -2.017   1.236 -10.597  0.00  0.00    +0.090 A 
ATOM     31  C   UNL     1      -2.859   0.144 -10.414  0.00  0.00    +0.029 A 
ATOM     32  C   UNL     1      -3.168  -0.661 -11.474  0.00  0.00    +0.002 A 
ATOM     33  C   UNL     1      -2.647  -0.401 -12.735  0.00  0.00    +0.002 A 
ATOM     34  C   UNL     1      -1.819   0.664 -12.941  0.00  0.00    +0.032 A 
ATOM     35  C   UNL     1      -1.487   1.505 -11.871  0.00  0.00    +0.113 A 
ATOM     36  N   UNL     1      -0.714   2.605 -11.768  0.00  0.00    -0.129 NA
ATOM     37  N   UNL     1      -0.720   3.044 -10.559  0.00  0.00    -0.064 NA
ENDBRANCH  28  29
ENDBRANCH   2  28
TORSDOF 10
