REMARK  Name = ZINC12498245
REMARK  12 active torsions:
REMARK  status: ('A' for Active; 'I' for Inactive)
REMARK    1  A    between atoms: C_1  and  C_2
REMARK    2  A    between atoms: C_2  and  C_3
REMARK    3  A    between atoms: C_3  and  C_4
REMARK    4  A    between atoms: C_4  and  C_5
REMARK    5  A    between atoms: C_5  and  C_33
REMARK    6  A    between atoms: C_10  and  C_12
REMARK    7  A    between atoms: N_21  and  C_24
REMARK    8  A    between atoms: C_28  and  C_30
REMARK    9  A    between atoms: C_30  and  C_32
REMARK   10  A    between atoms: C_33  and  O_35
REMARK   11  A    between atoms: O_35  and  C_36
REMARK   12  A    between atoms: C_36  and  C_37
REMARK                            x       y       z     vdW  Elec       q    Type
REMARK                         _______ _______ _______ _____ _____    ______ ____
ROOT
ATOM      1  C   UNL     1      -1.404   5.131   2.397  0.00  0.00    +0.044 C 
ATOM      2  C   UNL     1      -2.544   5.559   3.222  0.00  0.00    +0.086 C 
ATOM      3  C   UNL     1      -2.875   6.994   2.643  0.00  0.00    +0.077 C 
ATOM      4  C   UNL     1      -2.912   6.570   1.170  0.00  0.00    -0.027 C 
ATOM      5  C   UNL     1      -4.167   7.166   3.394  0.00  0.00    +0.229 C 
ATOM      6  O   UNL     1      -5.173   7.718   3.003  0.00  0.00    -0.275 OA
ATOM      7  N   UNL     1      -3.971   6.570   4.607  0.00  0.00    -0.210 N 
ATOM      8  C   UNL     1      -2.878   5.747   4.617  0.00  0.00    +0.229 C 
ATOM      9  O   UNL     1      -2.316   5.279   5.584  0.00  0.00    -0.275 OA
ATOM     10  N   UNL     1      -1.695   5.717   1.056  0.00  0.00    +0.395 N 
ATOM     11  H   UNL     1      -1.861   4.964   0.377  0.00  0.00    -0.083 HD
ATOM     12  H   UNL     1      -0.899   6.287   0.746  0.00  0.00    -0.083 HD
ENDROOT
BRANCH   4  13
ATOM     13  C   UNL     1      -2.820   7.772   0.266  0.00  0.00    -0.058 A 
ATOM     14  C   UNL     1      -3.963   8.292  -0.312  0.00  0.00    +0.002 A 
ATOM     15  C   UNL     1      -3.881   9.395  -1.142  0.00  0.00    +0.003 A 
ATOM     16  C   UNL     1      -2.654   9.979  -1.394  0.00  0.00    +0.038 A 
ATOM     17  C   UNL     1      -1.508   9.460  -0.816  0.00  0.00    +0.124 A 
ATOM     18  C   UNL     1      -1.593   8.358   0.019  0.00  0.00    +0.040 A 
ATOM     19  F   UNL     1      -0.308  10.030  -1.062  0.00  0.00    -0.205 F 
ENDBRANCH   4  13
BRANCH   7  20
ATOM     20  C   UNL     1      -4.793   6.789   5.722  0.00  0.00    +0.045 A 
ATOM     21  C   UNL     1      -4.526   6.138   6.921  0.00  0.00    +0.024 A 
ATOM     22  C   UNL     1      -5.329   6.354   8.025  0.00  0.00    +0.003 A 
ATOM     23  C   UNL     1      -6.408   7.209   7.944  0.00  0.00    +0.011 A 
ATOM     24  C   UNL     1      -6.689   7.866   6.741  0.00  0.00    +0.019 A 
ATOM     25  C   UNL     1      -5.873   7.650   5.627  0.00  0.00    +0.035 A 
BRANCH  24  26
ATOM     26  C   UNL     1      -7.840   8.779   6.649  0.00  0.00    +0.160 C 
ATOM     27  O   UNL     1      -8.082   9.346   5.605  0.00  0.00    -0.292 OA
ATOM     28  C   UNL     1      -8.718   9.009   7.852  0.00  0.00    +0.091 C 
ENDBRANCH  24  26
ENDBRANCH   7  20
BRANCH   1  29
ATOM     29  C   UNL     1      -1.345   3.627   2.320  0.00  0.00    +0.297 C 
ATOM     30  O   UNL     1      -1.834   2.957   3.198  0.00  0.00    -0.252 OA
BRANCH  29  31
ATOM     31  O   UNL     1      -0.749   3.031   1.275  0.00  0.00    -0.466 OA
BRANCH  31  32
ATOM     32  C   UNL     1      -0.729   1.579   1.267  0.00  0.00    +0.228 C 
ATOM     33  C   UNL     1      -0.013   1.086   0.008  0.00  0.00    +0.048 C 
ENDBRANCH  31  32
ENDBRANCH  29  31
ENDBRANCH   1  29
BRANCH   1  34
ATOM     34  C   UNL     1      -0.095   5.688   2.960  0.00  0.00    -0.001 C 
BRANCH  34  35
ATOM     35  C   UNL     1       1.050   5.373   1.996  0.00  0.00    -0.001 C 
BRANCH  35  37
ATOM     36  C   UNL     1       3.504   5.617   1.595  0.00  0.00    +0.004 C 
ATOM     37  C   UNL     1       2.359   5.931   2.559  0.00  0.00    -0.003 C 
ENDBRANCH  35  37
ENDBRANCH  34  35
ENDBRANCH   1  34
TORSDOF 9
