REMARK  Name = ZINC02967972
REMARK  6 active torsions:
REMARK  status: ('A' for Active; 'I' for Inactive)
REMARK    1  A    between atoms: C_5  and  C_7
REMARK    2  A    between atoms: C_7  and  S_8
REMARK    3  A    between atoms: S_8  and  C_9
REMARK    4  A    between atoms: C_19  and  C_24
REMARK    5  A    between atoms: C_24  and  C_25
REMARK    6  A    between atoms: N_27  and  C_28
REMARK                            x       y       z     vdW  Elec       q    Type
REMARK                         _______ _______ _______ _____ _____    ______ ____
ROOT
ATOM      1  C   UNL     1       1.017   5.912   0.022  0.00  0.00    +0.169 C 
ATOM      2  N   UNL     1      -0.085   5.212   0.028  0.00  0.00    -0.225 NA
ATOM      3  C   UNL     1      -0.079   3.855   0.023  0.00  0.00    +0.077 A 
ATOM      4  C   UNL     1      -1.270   3.125   0.030  0.00  0.00    +0.028 A 
ATOM      5  C   UNL     1      -1.226   1.748   0.017  0.00  0.00    +0.002 A 
ATOM      6  C   UNL     1      -0.013   1.076   0.008  0.00  0.00    +0.001 A 
ATOM      7  C   UNL     1       1.176   1.777   0.000  0.00  0.00    +0.013 A 
ATOM      8  C   UNL     1       1.152   3.167   0.008  0.00  0.00    +0.041 A 
ATOM      9  C   UNL     1       2.399   3.962  -0.001  0.00  0.00    +0.139 C 
ATOM     10  N   UNL     1       3.645   3.579  -0.014  0.00  0.00    -0.255 NA
ATOM     11  C   UNL     1       4.487   4.783  -0.017  0.00  0.00    +0.202 C 
ATOM     12  C   UNL     1       3.492   5.925  -0.002  0.00  0.00    +0.252 C 
ATOM     13  O   UNL     1       3.738   7.112   0.002  0.00  0.00    -0.272 OA
ATOM     14  N   UNL     1       2.272   5.341   0.007  0.00  0.00    -0.200 N 
ENDROOT
BRANCH   1  15
ATOM     15  S   UNL     1       0.894   7.670   0.032  0.00  0.00    -0.085 S 
BRANCH  15  16
ATOM     16  C   UNL     1      -0.906   7.859   0.049  0.00  0.00    +0.115 C 
BRANCH  16  21
ATOM     17  C   UNL     1      -1.750  11.348  -1.122  0.00  0.00    +0.000 A 
ATOM     18  C   UNL     1      -1.902  12.015   0.079  0.00  0.00    +0.003 A 
ATOM     19  C   UNL     1      -1.731  11.338   1.272  0.00  0.00    +0.038 A 
ATOM     20  C   UNL     1      -1.413   9.991   1.264  0.00  0.00    +0.127 A 
ATOM     21  C   UNL     1      -1.257   9.325   0.060  0.00  0.00    -0.002 A 
ATOM     22  C   UNL     1      -1.428  10.003  -1.132  0.00  0.00    +0.007 A 
ATOM     23  F   UNL     1      -1.250   9.327   2.429  0.00  0.00    -0.205 F 
ENDBRANCH  16  21
ENDBRANCH  15  16
ENDBRANCH   1  15
BRANCH  11  24
ATOM     24  C   UNL     1       5.369   4.824   1.233  0.00  0.00    +0.132 C 
BRANCH  24  25
ATOM     25  C   UNL     1       6.365   3.694   1.181  0.00  0.00    +0.216 C 
ATOM     26  O   UNL     1       6.369   2.932   0.238  0.00  0.00    -0.276 OA
ATOM     27  N   UNL     1       7.251   3.531   2.183  0.00  0.00    -0.312 N 
ATOM     28  H   UNL     1       7.247   4.223   3.039  0.00  0.00    +0.149 HD
BRANCH  27  29
ATOM     29  C   UNL     1       8.219   2.433   2.133  0.00  0.00    +0.073 C 
ATOM     30  C   UNL     1       7.577   1.161   2.691  0.00  0.00    +0.022 C 
ATOM     31  C   UNL     1       8.589   0.014   2.639  0.00  0.00    +0.002 C 
ATOM     32  C   UNL     1       9.815   0.377   3.479  0.00  0.00    +0.000 C 
ATOM     33  C   UNL     1      10.457   1.649   2.921  0.00  0.00    +0.002 C 
ATOM     34  C   UNL     1       9.446   2.796   2.974  0.00  0.00    +0.022 C 
ENDBRANCH  27  29
ENDBRANCH  24  25
ENDBRANCH  11  24
TORSDOF 6
