REMARK  Name = ZINC22108613
REMARK  12 active torsions:
REMARK  status: ('A' for Active; 'I' for Inactive)
REMARK    1  A    between atoms: C_1  and  O_2
REMARK    2  A    between atoms: O_2  and  C_3
REMARK    3  A    between atoms: C_3  and  C_5
REMARK    4  A    between atoms: C_7  and  C_15
REMARK    5  A    between atoms: C_9  and  C_11
REMARK    6  A    between atoms: C_11  and  O_13
REMARK    7  A    between atoms: O_13  and  C_14
REMARK    8  A    between atoms: C_18  and  C_20
REMARK    9  A    between atoms: C_20  and  N_21
REMARK   10  A    between atoms: N_21  and  C_22
REMARK   11  A    between atoms: C_22  and  C_23
REMARK   12  A    between atoms: C_23  and  C_24
REMARK                            x       y       z     vdW  Elec       q    Type
REMARK                         _______ _______ _______ _____ _____    ______ ____
ROOT
ATOM      1  C   UNL     1      -5.781  -4.967  -2.737  0.00  0.00    +0.135 A 
ATOM      2  C   UNL     1      -6.635  -3.918  -2.603  0.00  0.00    +0.050 A 
ATOM      3  C   UNL     1      -5.846  -2.750  -2.600  0.00  0.00    +0.043 A 
ATOM      4  C   UNL     1      -4.564  -3.140  -2.732  0.00  0.00    +0.089 A 
ATOM      5  O   UNL     1      -4.528  -4.479  -2.820  0.00  0.00    -0.462 OA
ENDROOT
BRANCH   1   8
ATOM      6  C   UNL     1      -5.538  -8.720  -2.979  0.00  0.00    +0.060 A 
ATOM      7  C   UNL     1      -5.179  -7.373  -2.930  0.00  0.00    +0.026 A 
ATOM      8  C   UNL     1      -6.162  -6.394  -2.789  0.00  0.00    +0.019 A 
ATOM      9  C   UNL     1      -7.503  -6.762  -2.692  0.00  0.00    +0.026 A 
ATOM     10  C   UNL     1      -7.863  -8.109  -2.746  0.00  0.00    +0.060 A 
ATOM     11  C   UNL     1      -6.880  -9.088  -2.887  0.00  0.00    +0.030 A 
BRANCH   6  12
ATOM     12  C   UNL     1      -4.496  -9.758  -3.127  0.00  0.00    +0.339 C 
ATOM     13  O   UNL     1      -3.327  -9.438  -3.207  0.00  0.00    -0.245 OA
BRANCH  12  15
ATOM     14  C   UNL     1      -3.767 -12.023  -3.321  0.00  0.00    +0.280 C 
ATOM     15  O   UNL     1      -4.843 -11.059  -3.174  0.00  0.00    -0.464 OA
ENDBRANCH  12  15
ENDBRANCH   6  12
BRANCH  10  16
ATOM     16  C   UNL     1      -9.285  -8.498  -2.649  0.00  0.00    +0.339 C 
ATOM     17  O   UNL     1     -10.141  -7.645  -2.526  0.00  0.00    -0.245 OA
BRANCH  16  18
ATOM     18  O   UNL     1      -9.632  -9.799  -2.695  0.00  0.00    -0.464 OA
ATOM     19  C   UNL     1     -11.047 -10.108  -2.594  0.00  0.00    +0.280 C 
ENDBRANCH  16  18
ENDBRANCH  10  16
ENDBRANCH   1   8
BRANCH   4  20
ATOM     20  C   UNL     1      -3.368  -2.224  -2.779  0.00  0.00    -0.007 C 
BRANCH  20  21
ATOM     21  N   UNL     1      -2.862  -2.008  -1.417  0.00  0.00    +0.384 N 
ATOM     22  H   UNL     1      -3.651  -1.549  -0.802  0.00  0.00    -0.085 HD
ATOM     23  H   UNL     1      -2.569  -2.972  -0.977  0.00  0.00    -0.085 HD
BRANCH  21  24
ATOM     24  C   UNL     1      -1.694  -1.118  -1.424  0.00  0.00    -0.077 C 
BRANCH  24  25
ATOM     25  C   UNL     1      -1.197  -0.917   0.009  0.00  0.00    +0.018 C 
BRANCH  25  26
ATOM     26  C   UNL     1       0.002  -0.004   0.002  0.00  0.00    -0.024 A 
ATOM     27  C   UNL     1       1.291  -0.379  -0.012  0.00  0.00    +0.087 A 
ATOM     28  N   UNL     1       2.098   0.726  -0.014  0.00  0.00    -0.360 N 
ATOM     29  H   UNL     1       3.192   0.608  -0.025  0.00  0.00    +0.165 HD
ATOM     30  C   UNL     1       1.329   1.868  -0.001  0.00  0.00    +0.047 A 
ATOM     31  C   UNL     1      -0.018   1.461   0.010  0.00  0.00    +0.003 A 
ATOM     32  C   UNL     1      -1.034   2.417   0.030  0.00  0.00    +0.010 A 
ATOM     33  C   UNL     1      -0.716   3.746   0.030  0.00  0.00    +0.001 A 
ATOM     34  C   UNL     1       0.611   4.153   0.019  0.00  0.00    +0.002 A 
ATOM     35  C   UNL     1       1.631   3.225   0.004  0.00  0.00    +0.026 A 
ENDBRANCH  25  26
ENDBRANCH  24  25
ENDBRANCH  21  24
ENDBRANCH  20  21
ENDBRANCH   4  20
TORSDOF 10
