REMARK  Name = ZINC35698004
REMARK  4 active torsions:
REMARK  status: ('A' for Active; 'I' for Inactive)
REMARK    1  A    between atoms: C_1  and  C_2
REMARK    2  A    between atoms: C_4  and  N_11
REMARK    3  A    between atoms: C_5  and  O_9
REMARK    4  A    between atoms: O_9  and  C_10
REMARK                            x       y       z     vdW  Elec       q    Type
REMARK                         _______ _______ _______ _____ _____    ______ ____
ROOT
ATOM      1  N   UNL     1       0.028  -2.768  -2.428  0.00  0.00    -0.253 N 
ATOM      2  C   UNL     1      -1.145  -3.104  -2.994  0.00  0.00    +0.267 A 
ATOM      3  O   UNL     1      -2.195  -2.809  -2.454  0.00  0.00    -0.267 OA
ATOM      4  C   UNL     1      -1.143  -3.836  -4.279  0.00  0.00    +0.071 A 
ATOM      5  C   UNL     1      -2.271  -4.301  -5.073  0.00  0.00    +0.023 A 
ATOM      6  C   UNL     1      -1.976  -4.947  -6.213  0.00  0.00    +0.048 A 
ATOM      7  S   UNL     1      -0.197  -4.941  -6.238  0.00  0.00    -0.079 S 
ATOM      8  C   UNL     1       0.112  -4.126  -4.814  0.00  0.00    +0.092 A 
ATOM      9  N   UNL     1       1.260  -3.746  -4.168  0.00  0.00    -0.329 N 
ATOM     10  C   UNL     1       1.203  -3.076  -3.002  0.00  0.00    +0.166 A 
ATOM     11  S   UNL     1       2.659  -2.612  -2.231  0.00  0.00    -0.012 S 
ATOM     12  H   UNL     1       2.122  -3.958  -4.558  0.00  0.00    +0.168 HD
ENDROOT
BRANCH   1  16
ATOM     13  C   UNL     1      -0.018   1.503   0.010  0.00  0.00    +0.045 C 
ATOM     14  C   UNL     1       0.002  -0.004   0.002  0.00  0.00    -0.030 A 
ATOM     15  C   UNL     1       0.006  -0.687  -1.200  0.00  0.00    +0.034 A 
ATOM     16  C   UNL     1       0.025  -2.074  -1.209  0.00  0.00    +0.094 A 
ATOM     17  C   UNL     1       0.041  -2.775  -0.005  0.00  0.00    +0.145 A 
ATOM     18  C   UNL     1       0.037  -2.084   1.195  0.00  0.00    +0.068 A 
ATOM     19  C   UNL     1       0.023  -0.701   1.197  0.00  0.00    +0.047 A 
ATOM     20 CL   UNL     1       0.025   0.163   2.703  0.00  0.00    -0.083 Cl
BRANCH  17  21
ATOM     21  O   UNL     1       0.059  -4.135  -0.009  0.00  0.00    -0.493 OA
ATOM     22  C   UNL     1       0.074  -4.787   1.262  0.00  0.00    +0.277 C 
ENDBRANCH  17  21
ENDBRANCH   1  16
TORSDOF 2
