REMARK  Name = ZINC09116760
REMARK  10 active torsions:
REMARK  status: ('A' for Active; 'I' for Inactive)
REMARK    1  A    between atoms: C_1  and  O_2
REMARK    2  A    between atoms: O_2  and  C_3
REMARK    3  A    between atoms: C_6  and  S_9
REMARK    4  A    between atoms: S_9  and  N_12
REMARK    5  A    between atoms: N_12  and  C_13
REMARK    6  A    between atoms: C_13  and  C_14
REMARK    7  A    between atoms: C_14  and  C_15
REMARK    8  A    between atoms: C_21  and  S_24
REMARK    9  A    between atoms: S_24  and  C_25
REMARK   10  A    between atoms: C_25  and  C_26
REMARK                            x       y       z     vdW  Elec       q    Type
REMARK                         _______ _______ _______ _____ _____    ______ ____
ROOT
ATOM      1  C   UNL     1       5.096   0.935  -0.040  0.00  0.00    +0.156 A 
ATOM      2  N   UNL     1       6.099   1.778  -0.045  0.00  0.00    -0.132 NA
ATOM      3  N   UNL     1       5.661   2.989  -0.035  0.00  0.00    -0.128 NA
ATOM      4  C   UNL     1       4.338   2.974  -0.022  0.00  0.00    +0.178 A 
ATOM      5  N   UNL     1       3.955   1.656  -0.026  0.00  0.00    -0.196 N 
ATOM      6  N   UNL     1       2.599   1.321  -0.010  0.00  0.00    -0.157 NA
ATOM      7  C   UNL     1       1.681   2.259  -0.002  0.00  0.00    +0.118 A 
ATOM      8  C   UNL     1       2.042   3.622   0.002  0.00  0.00    +0.040 A 
ATOM      9  C   UNL     1       3.352   3.980  -0.008  0.00  0.00    +0.053 A 
ENDROOT
BRANCH   1  10
ATOM     10  C   UNL     1       5.199  -0.568  -0.049  0.00  0.00    +0.095 C 
BRANCH  10  11
ATOM     11  C   UNL     1       5.246  -1.085   1.390  0.00  0.00    +0.113 C 
BRANCH  11  12
ATOM     12  N   UNL     1       5.346  -2.546   1.382  0.00  0.00    -0.190 NA
ATOM     13  H   UNL     1       5.155  -3.041   0.569  0.00  0.00    +0.148 HD
BRANCH  12  14
ATOM     14  S   UNL     1       5.784  -3.354   2.759  0.00  0.00    +0.058 S 
ATOM     15  O   UNL     1       5.764  -4.739   2.441  0.00  0.00    -0.153 OA
ATOM     16  O   UNL     1       6.945  -2.704   3.259  0.00  0.00    -0.153 OA
BRANCH  14  20
ATOM     17  C   UNL     1       2.506  -2.680   5.809  0.00  0.00    +0.120 A 
ATOM     18  C   UNL     1       2.440  -3.764   4.947  0.00  0.00    +0.047 A 
ATOM     19  C   UNL     1       3.441  -3.968   4.017  0.00  0.00    +0.032 A 
ATOM     20  C   UNL     1       4.509  -3.092   3.946  0.00  0.00    +0.105 A 
ATOM     21  C   UNL     1       4.580  -2.013   4.808  0.00  0.00    +0.032 A 
ATOM     22  C   UNL     1       3.578  -1.802   5.736  0.00  0.00    +0.047 A 
BRANCH  17  24
ATOM     23  C   UNL     1       1.655  -1.340   7.580  0.00  0.00    +0.277 C 
ATOM     24  O   UNL     1       1.522  -2.477   6.724  0.00  0.00    -0.495 OA
ENDBRANCH  17  24
ENDBRANCH  14  20
ENDBRANCH  12  14
ENDBRANCH  11  12
ENDBRANCH  10  11
ENDBRANCH   1  10
BRANCH   7  25
ATOM     25  S   UNL     1      -0.022   1.810   0.012  0.00  0.00    -0.100 S 
BRANCH  25  26
ATOM     26  C   UNL     1       0.002  -0.004   0.002  0.00  0.00    +0.111 C 
BRANCH  26  27
ATOM     27  C   UNL     1      -1.412  -0.526   0.013  0.00  0.00    -0.036 A 
ATOM     28  C   UNL     1      -2.072  -0.758  -1.180  0.00  0.00    +0.004 A 
ATOM     29  C   UNL     1      -3.368  -1.238  -1.171  0.00  0.00    +0.002 A 
ATOM     30  C   UNL     1      -4.006  -1.484   0.031  0.00  0.00    +0.020 A 
ATOM     31  C   UNL     1      -3.346  -1.251   1.224  0.00  0.00    +0.041 A 
ATOM     32  C   UNL     1      -2.046  -0.777   1.214  0.00  0.00    +0.024 A 
ATOM     33 CL   UNL     1      -4.146  -1.561   2.733  0.00  0.00    -0.084 Cl
ENDBRANCH  26  27
ENDBRANCH  25  26
ENDBRANCH   7  25
TORSDOF 9
