REMARK  Name = ZINC13148016
REMARK  11 active torsions:
REMARK  status: ('A' for Active; 'I' for Inactive)
REMARK    1  A    between atoms: C_1  and  C_2
REMARK    2  A    between atoms: C_2  and  C_3
REMARK    3  A    between atoms: C_2  and  C_4
REMARK    4  A    between atoms: C_4  and  C_6
REMARK    5  A    between atoms: C_4  and  N_24
REMARK    6  A    between atoms: N_8  and  C_9
REMARK    7  A    between atoms: C_14  and  O_15
REMARK    8  A    between atoms: O_15  and  C_16
REMARK    9  A    between atoms: C_25  and  C_27
REMARK   10  A    between atoms: C_30  and  O_33
REMARK   11  A    between atoms: O_33  and  C_34
REMARK                            x       y       z     vdW  Elec       q    Type
REMARK                         _______ _______ _______ _____ _____    ______ ____
ROOT
ATOM      1  C   UNL     1      -3.207   3.980   0.129  0.00  0.00    +0.238 C 
ATOM      2  O   UNL     1      -3.563   2.884   0.508  0.00  0.00    -0.273 OA
ATOM      3  N   UNL     1      -1.898   4.228  -0.079  0.00  0.00    -0.281 N 
ATOM      4  H   UNL     1      -1.613   5.106  -0.379  0.00  0.00    +0.155 HD
ENDROOT
BRANCH   3   5
ATOM      5  C   UNL     1      -0.951   3.220   0.138  0.00  0.00    +0.079 A 
ATOM      6  C   UNL     1      -1.279   2.123   0.917  0.00  0.00    +0.074 A 
ATOM      7  C   UNL     1      -0.346   1.118   1.132  0.00  0.00    +0.138 A 
ATOM      8  C   UNL     1       0.930   1.231   0.562  0.00  0.00    +0.031 A 
ATOM      9  C   UNL     1       1.258   2.337  -0.217  0.00  0.00    +0.059 A 
ATOM     10  C   UNL     1       0.320   3.330  -0.428  0.00  0.00    +0.142 A 
ATOM     11  C   UNL     1       1.664   0.022   0.981  0.00  0.00    +0.028 A 
ATOM     12  C   UNL     1       2.950  -0.456   0.753  0.00  0.00    +0.012 A 
ATOM     13  C   UNL     1       3.341  -1.658   1.305  0.00  0.00    +0.001 A 
ATOM     14  C   UNL     1       2.456  -2.387   2.083  0.00  0.00    +0.004 A 
ATOM     15  C   UNL     1       1.178  -1.923   2.315  0.00  0.00    +0.047 A 
ATOM     16  C   UNL     1       0.766  -0.714   1.768  0.00  0.00    +0.136 A 
ATOM     17  O   UNL     1      -0.402  -0.038   1.832  0.00  0.00    -0.455 OA
BRANCH  10  18
ATOM     18  O   UNL     1       0.636   4.413  -1.188  0.00  0.00    -0.493 OA
ATOM     19  C   UNL     1       1.954   4.459  -1.737  0.00  0.00    +0.277 C 
ENDBRANCH  10  18
ENDBRANCH   3   5
BRANCH   1  20
ATOM     20  C   UNL     1      -4.227   5.063  -0.109  0.00  0.00    +0.162 C 
BRANCH  20  21
ATOM     21  N   UNL     1      -5.564   4.469  -0.173  0.00  0.00    -0.300 N 
ATOM     22  C   UNL     1      -6.548   5.093  -0.850  0.00  0.00    +0.245 C 
ATOM     23  O   UNL     1      -6.325   6.150  -1.409  0.00  0.00    -0.270 OA
ATOM     24  H   UNL     1      -5.742   3.626   0.273  0.00  0.00    +0.150 HD
BRANCH  22  25
ATOM     25  C   UNL     1      -7.896   4.495  -0.914  0.00  0.00    +0.037 A 
ATOM     26  C   UNL     1      -8.152   3.277  -0.278  0.00  0.00    +0.016 A 
ATOM     27  C   UNL     1      -9.412   2.724  -0.336  0.00  0.00    +0.046 A 
ATOM     28  C   UNL     1     -10.425   3.370  -1.035  0.00  0.00    +0.120 A 
ATOM     29  C   UNL     1     -10.172   4.579  -1.674  0.00  0.00    +0.046 A 
ATOM     30  C   UNL     1      -8.916   5.141  -1.616  0.00  0.00    +0.016 A 
BRANCH  28  31
ATOM     31  O   UNL     1     -11.664   2.819  -1.094  0.00  0.00    -0.495 OA
ATOM     32  C   UNL     1     -11.854   1.576  -0.416  0.00  0.00    +0.277 C 
ENDBRANCH  28  31
ENDBRANCH  22  25
ENDBRANCH  20  21
BRANCH  20  34
ATOM     33  C   UNL     1      -2.788   6.727   1.076  0.00  0.00    +0.009 C 
ATOM     34  C   UNL     1      -4.173   6.076   1.036  0.00  0.00    +0.012 C 
ATOM     35  C   UNL     1      -5.237   7.153   0.816  0.00  0.00    +0.009 C 
ENDBRANCH  20  34
ENDBRANCH   1  20
TORSDOF 7
