REMARK  Name = ZINC20527871
REMARK  7 active torsions:
REMARK  status: ('A' for Active; 'I' for Inactive)
REMARK    1  A    between atoms: C_7  and  C_11
REMARK    2  A    between atoms: N_12  and  N_13
REMARK    3  A    between atoms: C_17  and  S_20
REMARK    4  A    between atoms: N_18  and  N_19
REMARK    5  A    between atoms: S_20  and  C_21
REMARK    6  A    between atoms: C_21  and  C_22
REMARK    7  A    between atoms: N_24  and  C_25
REMARK                            x       y       z     vdW  Elec       q    Type
REMARK                         _______ _______ _______ _____ _____    ______ ____
ROOT
ATOM      1  N   UNL     1      -4.832   1.766   0.057  0.00  0.00    -0.204 N 
ATOM      2  C   UNL     1      -5.877   2.677   0.062  0.00  0.00    +0.254 A 
ATOM      3  N   UNL     1      -5.761   3.983   0.080  0.00  0.00    -0.109 NA
ATOM      4  N   UNL     1      -7.050   4.532   0.076  0.00  0.00    -0.119 NA
ATOM      5  C   UNL     1      -7.912   3.543   0.065  0.00  0.00    +0.210 A 
ATOM      6  N   UNL     1      -7.210   2.371   0.056  0.00  0.00    -0.211 N 
ATOM      7  H   UNL     1      -5.043   0.686   0.046  0.00  0.00    +0.177 HD
ENDROOT
BRANCH   6   8
ATOM      8  N   UNL     1      -7.745   1.115   0.042  0.00  0.00    -0.294 N 
ATOM      9  H   UNL     1      -8.837   0.982   0.038  0.00  0.00    +0.163 HD
ATOM     10  H   UNL     1      -7.085   0.235   0.036  0.00  0.00    +0.163 HD
ENDBRANCH   6   8
BRANCH   1  12
ATOM     11  C   UNL     1      -2.527   1.367   0.059  0.00  0.00    +0.140 C 
ATOM     12  N   UNL     1      -3.506   2.220   0.064  0.00  0.00    -0.187 NA
BRANCH  11  19
ATOM     13  C   UNL     1      -0.622   5.635   0.106  0.00  0.00    +0.001 A 
ATOM     14  C   UNL     1       0.766   5.600   0.101  0.00  0.00    +0.002 A 
ATOM     15  C   UNL     1       1.437   4.397   0.088  0.00  0.00    +0.026 A 
ATOM     16  C   UNL     1       0.720   3.204   0.080  0.00  0.00    +0.047 A 
ATOM     17  C   UNL     1      -0.684   3.247   0.085  0.00  0.00    +0.008 A 
ATOM     18  C   UNL     1      -1.345   4.474   0.098  0.00  0.00    +0.010 A 
ATOM     19  C   UNL     1      -1.134   1.844   0.067  0.00  0.00    +0.020 A 
ATOM     20  C   UNL     1      -0.012   1.077   0.063  0.00  0.00    +0.093 A 
ATOM     21  N   UNL     1       1.093   1.878   0.067  0.00  0.00    -0.360 N 
ATOM     22  H   UNL     1       2.159   1.607   0.061  0.00  0.00    +0.165 HD
ENDBRANCH  11  19
ENDBRANCH   1  12
BRANCH   5  23
ATOM     23  S   UNL     1      -9.667   3.699   0.060  0.00  0.00    -0.075 S 
BRANCH  23  24
ATOM     24  C   UNL     1      -9.948   5.491   0.077  0.00  0.00    +0.173 C 
BRANCH  24  25
ATOM     25  C   UNL     1     -11.430   5.767   0.074  0.00  0.00    +0.227 C 
ATOM     26  O   UNL     1     -12.219   4.846   0.063  0.00  0.00    -0.275 OA
ATOM     27  N   UNL     1     -11.879   7.038   0.085  0.00  0.00    -0.285 N 
ATOM     28  H   UNL     1     -11.167   7.872   0.172  0.00  0.00    +0.155 HD
BRANCH  27  29
ATOM     29  C   UNL     1     -13.251   7.297  -0.015  0.00  0.00    +0.034 A 
ATOM     30  C   UNL     1     -13.700   8.419  -0.698  0.00  0.00    +0.026 A 
ATOM     31  C   UNL     1     -15.054   8.669  -0.800  0.00  0.00    +0.040 A 
ATOM     32  C   UNL     1     -15.964   7.808  -0.212  0.00  0.00    +0.124 A 
ATOM     33  C   UNL     1     -15.519   6.691   0.475  0.00  0.00    +0.040 A 
ATOM     34  C   UNL     1     -14.166   6.434   0.575  0.00  0.00    +0.026 A 
ATOM     35  F   UNL     1     -17.289   8.057  -0.309  0.00  0.00    -0.205 F 
ENDBRANCH  27  29
ENDBRANCH  24  25
ENDBRANCH  23  24
ENDBRANCH   5  23
TORSDOF 7
