REMARK  Name = ZINC45555374
REMARK  9 active torsions:
REMARK  status: ('A' for Active; 'I' for Inactive)
REMARK    1  A    between atoms: C_1  and  C_2
REMARK    2  A    between atoms: C_11  and  N_32
REMARK    3  A    between atoms: C_13  and  S_15
REMARK    4  A    between atoms: S_15  and  C_16
REMARK    5  A    between atoms: C_16  and  C_17
REMARK    6  A    between atoms: N_19  and  C_20
REMARK    7  A    between atoms: N_19  and  C_25
REMARK    8  A    between atoms: C_20  and  C_21
REMARK    9  A    between atoms: C_21  and  C_22
REMARK                            x       y       z     vdW  Elec       q    Type
REMARK                         _______ _______ _______ _____ _____    ______ ____
ROOT
ATOM      1  S   UNL     1      -0.632  -7.330   3.062  0.00  0.00    -0.077 S 
ENDROOT
BRANCH   1  13
ATOM      2  C   UNL     1      -0.027   2.039  -0.919  0.00  0.00    +0.008 C 
ATOM      3  C   UNL     1      -0.010   0.533  -0.649  0.00  0.00    -0.009 C 
ATOM      4  C   UNL     1      -1.435  -0.021  -0.740  0.00  0.00    +0.008 C 
ATOM      5  C   UNL     1      -1.399  -1.550  -0.718  0.00  0.00    +0.037 C 
ATOM      6  C   UNL     1      -0.594  -2.008   0.496  0.00  0.00    -0.025 A 
ATOM      7  C   UNL     1       0.253  -1.159   1.119  0.00  0.00    -0.004 A 
ATOM      8  S   UNL     1       0.961  -2.098   2.449  0.00  0.00    -0.073 S 
ATOM      9  C   UNL     1       0.124  -3.625   2.170  0.00  0.00    +0.115 A 
ATOM     10  C   UNL     1      -0.688  -3.354   1.040  0.00  0.00    +0.051 A 
ATOM     11  C   UNL     1      -1.504  -4.419   0.561  0.00  0.00    +0.129 A 
ATOM     12  N   UNL     1      -1.418  -5.566   1.230  0.00  0.00    -0.207 NA
ATOM     13  C   UNL     1      -0.635  -5.750   2.282  0.00  0.00    +0.191 A 
ATOM     14  N   UNL     1       0.153  -4.793   2.780  0.00  0.00    -0.214 NA
ATOM     15  C   UNL     1       0.535   0.269   0.761  0.00  0.00    +0.046 C 
BRANCH  11  16
ATOM     16  N   UNL     1      -2.337  -4.269  -0.534  0.00  0.00    -0.343 N 
ATOM     17  H   UNL     1      -2.213  -3.521  -1.139  0.00  0.00    +0.144 HD
ATOM     18  H   UNL     1      -3.044  -4.912  -0.697  0.00  0.00    +0.144 HD
ENDBRANCH  11  16
ENDBRANCH   1  13
BRANCH   1  19
ATOM     19  C   UNL     1      -1.815  -8.302   2.088  0.00  0.00    +0.173 C 
BRANCH  19  20
ATOM     20  C   UNL     1      -1.909  -9.694   2.656  0.00  0.00    +0.230 C 
ATOM     21  O   UNL     1      -1.244 -10.001   3.623  0.00  0.00    -0.274 OA
ATOM     22  N   UNL     1      -2.732 -10.598   2.090  0.00  0.00    -0.270 N 
BRANCH  22  23
ATOM     23  C   UNL     1      -2.900 -11.858   2.679  0.00  0.00    +0.036 A 
ATOM     24  C   UNL     1      -4.122 -12.208   3.237  0.00  0.00    +0.026 A 
ATOM     25  C   UNL     1      -4.285 -13.450   3.817  0.00  0.00    +0.040 A 
ATOM     26  C   UNL     1      -3.231 -14.347   3.843  0.00  0.00    +0.124 A 
ATOM     27  C   UNL     1      -2.011 -14.000   3.287  0.00  0.00    +0.040 A 
ATOM     28  C   UNL     1      -1.845 -12.761   2.700  0.00  0.00    +0.026 A 
ATOM     29  F   UNL     1      -3.392 -15.562   4.412  0.00  0.00    -0.205 F 
ENDBRANCH  22  23
BRANCH  22  30
ATOM     30  C   UNL     1      -3.452 -10.264   0.859  0.00  0.00    +0.123 C 
BRANCH  30  31
ATOM     31  C   UNL     1      -2.604 -10.659  -0.351  0.00  0.00    +0.115 C 
BRANCH  31  32
ATOM     32  C   UNL     1      -3.344 -10.315  -1.618  0.00  0.00    +0.212 C 
ATOM     33  O   UNL     1      -4.442  -9.804  -1.559  0.00  0.00    -0.276 OA
ATOM     34  N   UNL     1      -2.785 -10.575  -2.817  0.00  0.00    -0.329 N 
ATOM     35  H   UNL     1      -1.907 -10.983  -2.864  0.00  0.00    +0.145 HD
ATOM     36  H   UNL     1      -3.262 -10.354  -3.632  0.00  0.00    +0.145 HD
ENDBRANCH  31  32
ENDBRANCH  30  31
ENDBRANCH  22  30
ENDBRANCH  19  20
ENDBRANCH   1  19
TORSDOF 8
