REMARK  Name = ZINC12412112
REMARK  8 active torsions:
REMARK  status: ('A' for Active; 'I' for Inactive)
REMARK    1  A    between atoms: C_1  and  C_2
REMARK    2  A    between atoms: C_2  and  N_3
REMARK    3  A    between atoms: N_3  and  C_4
REMARK    4  A    between atoms: C_7  and  C_30
REMARK    5  A    between atoms: C_9  and  N_10
REMARK    6  A    between atoms: N_12  and  C_27
REMARK    7  A    between atoms: N_17  and  C_25
REMARK    8  A    between atoms: C_27  and  C_28
REMARK                            x       y       z     vdW  Elec       q    Type
REMARK                         _______ _______ _______ _____ _____    ______ ____
ROOT
ATOM      1  N   UNL     1      -2.431   3.812   0.182  0.00  0.00    -0.224 NA
ATOM      2  C   UNL     1      -2.454   5.126   0.246  0.00  0.00    +0.169 C 
ATOM      3  N   UNL     1      -3.542   5.976   0.289  0.00  0.00    -0.242 N 
ATOM      4  C   UNL     1      -3.356   7.282   0.352  0.00  0.00    +0.262 C 
ATOM      5  O   UNL     1      -4.310   8.043   0.391  0.00  0.00    -0.269 OA
ATOM      6  C   UNL     1      -2.041   7.782   0.375  0.00  0.00    +0.106 C 
ATOM      7  C   UNL     1      -1.603   9.097   0.438  0.00  0.00    +0.092 C 
ATOM      8  N   UNL     1      -2.335  10.237   0.640  0.00  0.00    -0.296 N 
ATOM      9  C   UNL     1      -1.706  11.469   0.674  0.00  0.00    +0.048 A 
ATOM     10  C   UNL     1      -2.300  12.727   0.872  0.00  0.00    +0.024 A 
ATOM     11  C   UNL     1      -1.541  13.873   0.875  0.00  0.00    +0.002 A 
ATOM     12  C   UNL     1      -0.171  13.828   0.683  0.00  0.00    +0.001 A 
ATOM     13  C   UNL     1       0.442  12.603   0.485  0.00  0.00    +0.017 A 
ATOM     14  C   UNL     1      -0.316  11.456   0.482  0.00  0.00    +0.035 A 
ATOM     15  S   UNL     1       0.057   9.732   0.270  0.00  0.00    -0.071 S 
ATOM     16  C   UNL     1      -3.786  10.152   0.823  0.00  0.00    +0.136 C 
ATOM     17  S   UNL     1      -1.086   6.274   0.308  0.00  0.00    -0.046 S 
ENDROOT
BRANCH   1  23
ATOM     18  C   UNL     1      -1.091   2.029   1.079  0.00  0.00    +0.053 A 
ATOM     19  C   UNL     1       0.122   1.357   1.139  0.00  0.00    +0.026 A 
ATOM     20  C   UNL     1       1.185   1.774   0.366  0.00  0.00    +0.021 A 
ATOM     21  C   UNL     1       1.051   2.880  -0.478  0.00  0.00    +0.054 A 
ATOM     22  C   UNL     1      -0.164   3.566  -0.541  0.00  0.00    +0.048 A 
ATOM     23  C   UNL     1      -1.236   3.144   0.238  0.00  0.00    +0.088 A 
BRANCH  18  24
ATOM     24  N   UNL     1      -2.164   1.600   1.859  0.00  0.00    -0.342 N 
ATOM     25  H   UNL     1      -3.012   2.070   1.818  0.00  0.00    +0.146 HD
BRANCH  24  27
ATOM     26  C   UNL     1      -3.327   0.183   3.477  0.00  0.00    +0.024 C 
ATOM     27  C   UNL     1      -2.011   0.440   2.740  0.00  0.00    +0.098 C 
ENDBRANCH  24  27
ENDBRANCH  18  24
BRANCH  21  28
ATOM     28  C   UNL     1       2.158   3.309  -1.279  0.00  0.00    +0.099 C 
ATOM     29  N   UNL     1       3.036   3.649  -1.914  0.00  0.00    -0.191 NA
ENDBRANCH  21  28
ENDBRANCH   1  23
BRANCH   3  30
ATOM     30  C   UNL     1      -4.901   5.428   0.265  0.00  0.00    +0.142 C 
BRANCH  30  31
ATOM     31  C   UNL     1      -5.364   5.172   1.676  0.00  0.00    -0.015 C 
ATOM     32  C   UNL     1      -6.482   5.703   2.104  0.00  0.00    +0.005 C 
ENDBRANCH  30  31
ENDBRANCH   3  30
TORSDOF 6
