REMARK  Name = ZINC06601315
REMARK  15 active torsions:
REMARK  status: ('A' for Active; 'I' for Inactive)
REMARK    1  A    between atoms: C_1  and  C_2
REMARK    2  A    between atoms: C_2  and  O_3
REMARK    3  A    between atoms: O_3  and  C_4
REMARK    4  A    between atoms: C_7  and  C_10
REMARK    5  A    between atoms: C_10  and  C_12
REMARK    6  A    between atoms: C_10  and  N_21
REMARK    7  A    between atoms: N_14  and  C_15
REMARK    8  A    between atoms: N_21  and  C_37
REMARK    9  A    between atoms: C_22  and  C_24
REMARK   10  A    between atoms: C_24  and  N_25
REMARK   11  A    between atoms: C_27  and  C_30
REMARK   12  A    between atoms: C_33  and  C_36
REMARK   13  A    between atoms: C_37  and  C_38
REMARK   14  A    between atoms: C_37  and  C_39
REMARK   15  A    between atoms: C_37  and  C_40
REMARK                            x       y       z     vdW  Elec       q    Type
REMARK                         _______ _______ _______ _____ _____    ______ ____
ROOT
ATOM      1  C   UNL     1       0.032  -2.301   0.111  0.00  0.00    +0.193 C 
ENDROOT
BRANCH   1   5
ATOM      2  C   UNL     1      -2.986  -4.922  -1.401  0.00  0.00    +0.121 A 
ATOM      3  C   UNL     1      -2.975  -4.577  -0.057  0.00  0.00    +0.046 A 
ATOM      4  C   UNL     1      -1.998  -3.729   0.429  0.00  0.00    +0.009 A 
ATOM      5  C   UNL     1      -1.032  -3.225  -0.422  0.00  0.00    -0.018 A 
ATOM      6  C   UNL     1      -1.045  -3.564  -1.763  0.00  0.00    +0.009 A 
ATOM      7  C   UNL     1      -2.016  -4.415  -2.253  0.00  0.00    +0.046 A 
BRANCH   2   8
ATOM      8  O   UNL     1      -3.946  -5.755  -1.881  0.00  0.00    -0.492 OA
BRANCH   8  10
ATOM      9  C   UNL     1      -5.048  -7.010  -3.628  0.00  0.00    +0.048 C 
ATOM     10  C   UNL     1      -3.896  -6.067  -3.275  0.00  0.00    +0.225 C 
ENDBRANCH   8  10
ENDBRANCH   2   8
ENDBRANCH   1   5
BRANCH   1  11
ATOM     11  C   UNL     1       1.311  -3.071   0.312  0.00  0.00    +0.238 C 
ATOM     12  O   UNL     1       2.362  -2.618  -0.090  0.00  0.00    -0.273 OA
ATOM     13  N   UNL     1       1.288  -4.264   0.939  0.00  0.00    -0.311 N 
ATOM     14  H   UNL     1       0.448  -4.627   1.260  0.00  0.00    +0.149 HD
BRANCH  13  15
ATOM     15  C   UNL     1       2.532  -5.013   1.135  0.00  0.00    +0.073 C 
ATOM     16  C   UNL     1       2.831  -5.841  -0.117  0.00  0.00    +0.022 C 
ATOM     17  C   UNL     1       4.130  -6.623   0.088  0.00  0.00    +0.002 C 
ATOM     18  C   UNL     1       3.981  -7.554   1.292  0.00  0.00    +0.000 C 
ATOM     19  C   UNL     1       3.682  -6.726   2.543  0.00  0.00    +0.002 C 
ATOM     20  C   UNL     1       2.383  -5.944   2.339  0.00  0.00    +0.022 C 
ENDBRANCH  13  15
ENDBRANCH   1  11
BRANCH   1  21
ATOM     21  N   UNL     1       0.260  -1.216  -0.847  0.00  0.00    -0.279 N 
ATOM     22  C   UNL     1       1.001  -1.437  -1.951  0.00  0.00    +0.240 C 
ATOM     23  O   UNL     1       1.446  -2.543  -2.172  0.00  0.00    -0.273 OA
BRANCH  21  24
ATOM     24  C   UNL     1      -0.316   0.109  -0.604  0.00  0.00    +0.030 C 
ATOM     25  C   UNL     1      -0.934   0.641  -1.898  0.00  0.00    +0.031 C 
ATOM     26  C   UNL     1      -1.398   0.005   0.473  0.00  0.00    +0.031 C 
ATOM     27  C   UNL     1       0.783   1.064  -0.133  0.00  0.00    +0.031 C 
ENDBRANCH  21  24
BRANCH  22  28
ATOM     28  C   UNL     1       1.276  -0.309  -2.912  0.00  0.00    +0.264 C 
BRANCH  28  29
ATOM     29  N   UNL     1       2.361  -0.692  -3.818  0.00  0.00    -0.154 N 
ATOM     30  N   UNL     1       3.616  -0.482  -3.609  0.00  0.00    -0.130 NA
ATOM     31  C   UNL     1       4.283  -0.966  -4.637  0.00  0.00    +0.205 A 
ATOM     32  N   UNL     1       3.372  -1.472  -5.482  0.00  0.00    -0.108 NA
ATOM     33  N   UNL     1       2.212  -1.288  -4.949  0.00  0.00    -0.045 NA
BRANCH  31  34
ATOM     34  C   UNL     1       5.755  -0.950  -4.827  0.00  0.00    +0.023 A 
ATOM     35  C   UNL     1       6.578  -0.379  -3.858  0.00  0.00    +0.012 A 
ATOM     36  C   UNL     1       7.947  -0.371  -4.037  0.00  0.00    +0.004 A 
ATOM     37  C   UNL     1       8.501  -0.918  -5.180  0.00  0.00    -0.050 A 
ATOM     38  C   UNL     1       7.688  -1.481  -6.148  0.00  0.00    +0.004 A 
ATOM     39  C   UNL     1       6.318  -1.499  -5.976  0.00  0.00    +0.012 A 
ATOM     40  C   UNL     1       9.995  -0.900  -5.373  0.00  0.00    +0.044 C 
ENDBRANCH  31  34
ENDBRANCH  28  29
ENDBRANCH  22  28
ENDBRANCH   1  21
TORSDOF 10
