REMARK  Name = ZINC01770526
REMARK  13 active torsions:
REMARK  status: ('A' for Active; 'I' for Inactive)
REMARK    1  A    between atoms: C_1  and  O_2
REMARK    2  A    between atoms: O_2  and  C_3
REMARK    3  A    between atoms: C_6  and  C_9
REMARK    4  A    between atoms: C_12  and  S_22
REMARK    5  A    between atoms: N_13  and  C_14
REMARK    6  A    between atoms: C_17  and  O_20
REMARK    7  A    between atoms: O_20  and  C_21
REMARK    8  A    between atoms: S_22  and  C_23
REMARK    9  A    between atoms: C_23  and  C_24
REMARK   10  A    between atoms: N_26  and  N_27
REMARK   11  A    between atoms: N_27  and  C_28
REMARK   12  A    between atoms: C_28  and  C_30
REMARK   13  A    between atoms: C_33  and  N_36
REMARK                            x       y       z     vdW  Elec       q    Type
REMARK                         _______ _______ _______ _____ _____    ______ ____
ROOT
ATOM      1  C   UNL     1       2.575  -2.539   4.292  0.00  0.00    +0.169 A 
ATOM      2  N   UNL     1       3.383  -1.976   5.160  0.00  0.00    -0.128 NA
ATOM      3  N   UNL     1       3.793  -2.849   6.009  0.00  0.00    -0.122 NA
ATOM      4  C   UNL     1       3.273  -4.024   5.737  0.00  0.00    +0.197 A 
ATOM      5  N   UNL     1       2.474  -3.868   4.637  0.00  0.00    -0.270 N 
ENDROOT
BRANCH   1   9
ATOM      6  C   UNL     1       0.626  -0.618   1.041  0.00  0.00    +0.120 A 
ATOM      7  C   UNL     1       1.202   0.142   2.050  0.00  0.00    +0.046 A 
ATOM      8  C   UNL     1       1.835  -0.477   3.107  0.00  0.00    +0.015 A 
ATOM      9  C   UNL     1       1.897  -1.871   3.161  0.00  0.00    +0.020 A 
ATOM     10  C   UNL     1       1.316  -2.632   2.144  0.00  0.00    +0.015 A 
ATOM     11  C   UNL     1       0.680  -2.005   1.094  0.00  0.00    +0.046 A 
BRANCH   6  13
ATOM     12  C   UNL     1      -0.017   1.425   0.010  0.00  0.00    +0.277 C 
ATOM     13  O   UNL     1       0.002  -0.004   0.002  0.00  0.00    -0.495 OA
ENDBRANCH   6  13
ENDBRANCH   1   9
BRANCH   5  14
ATOM     14  C   UNL     1       1.713  -4.857   3.994  0.00  0.00    +0.051 A 
ATOM     15  C   UNL     1       0.328  -4.766   3.980  0.00  0.00    +0.030 A 
ATOM     16  C   UNL     1      -0.421  -5.739   3.348  0.00  0.00    +0.047 A 
ATOM     17  C   UNL     1       0.211  -6.807   2.727  0.00  0.00    +0.120 A 
ATOM     18  C   UNL     1       1.595  -6.897   2.741  0.00  0.00    +0.047 A 
ATOM     19  C   UNL     1       2.345  -5.922   3.368  0.00  0.00    +0.030 A 
BRANCH  17  20
ATOM     20  O   UNL     1      -0.526  -7.764   2.104  0.00  0.00    -0.495 OA
ATOM     21  C   UNL     1       0.190  -8.835   1.485  0.00  0.00    +0.277 C 
ENDBRANCH  17  20
ENDBRANCH   5  14
BRANCH   4  22
ATOM     22  S   UNL     1       3.547  -5.520   6.626  0.00  0.00    -0.076 S 
BRANCH  22  23
ATOM     23  C   UNL     1       4.684  -5.038   7.956  0.00  0.00    +0.174 C 
BRANCH  23  24
ATOM     24  C   UNL     1       5.005  -6.242   8.803  0.00  0.00    +0.239 C 
ATOM     25  O   UNL     1       4.515  -7.319   8.537  0.00  0.00    -0.273 OA
ATOM     26  N   UNL     1       5.836  -6.122   9.857  0.00  0.00    -0.236 N 
ATOM     27  H   UNL     1       6.227  -5.261  10.071  0.00  0.00    +0.173 HD
BRANCH  26  28
ATOM     28  N   UNL     1       6.134  -7.241  10.646  0.00  0.00    -0.264 N 
ATOM     29  H   UNL     1       5.742  -8.103  10.432  0.00  0.00    +0.170 HD
BRANCH  28  30
ATOM     30  C   UNL     1       6.995  -7.117  11.737  0.00  0.00    +0.044 C 
ATOM     31  C   UNL     1       7.533  -5.933  12.030  0.00  0.00    +0.035 C 
BRANCH  30  32
ATOM     32  C   UNL     1       7.310  -8.300  12.570  0.00  0.00    -0.003 A 
ATOM     33  C   UNL     1       6.753  -9.541  12.263  0.00  0.00    +0.012 A 
ATOM     34  C   UNL     1       7.051 -10.640  13.043  0.00  0.00    +0.033 A 
ATOM     35  C   UNL     1       7.900 -10.512  14.127  0.00  0.00    +0.126 A 
ATOM     36  C   UNL     1       8.455  -9.284  14.437  0.00  0.00    +0.033 A 
ATOM     37  C   UNL     1       8.170  -8.179  13.661  0.00  0.00    +0.012 A 
BRANCH  35  38
ATOM     38  N   UNL     1       8.215 -11.695  14.960  0.00  0.00    +0.056 N 
ATOM     39  O   UNL     1       7.731 -12.770  14.691  0.00  0.00    -0.126 OA
ATOM     40  O   UNL     1       8.957 -11.586  15.908  0.00  0.00    -0.126 OA
ENDBRANCH  35  38
ENDBRANCH  30  32
ENDBRANCH  28  30
ENDBRANCH  26  28
ENDBRANCH  23  24
ENDBRANCH  22  23
ENDBRANCH   4  22
TORSDOF 11
