REMARK  Name = ZINC06446729
REMARK  6 active torsions:
REMARK  status: ('A' for Active; 'I' for Inactive)
REMARK    1  A    between atoms: C_4  and  C_7
REMARK    2  A    between atoms: C_8  and  C_20
REMARK    3  A    between atoms: C_10  and  C_13
REMARK    4  A    between atoms: C_17  and  O_19
REMARK    5  A    between atoms: C_23  and  C_26
REMARK    6  A    between atoms: C_29  and  N_32
REMARK                            x       y       z     vdW  Elec       q    Type
REMARK                         _______ _______ _______ _____ _____    ______ ____
ROOT
ATOM      1  C   UNL     1       3.662  -0.596  -0.094  0.00  0.00    +0.074 A 
ATOM      2  C   UNL     1       3.985  -1.861  -0.814  0.00  0.00    +0.097 A 
ATOM      3  N   UNL     1       5.225  -2.180  -0.471  0.00  0.00    -0.227 NA
ATOM      4  C   UNL     1       5.711  -1.275   0.369  0.00  0.00    +0.139 A 
ATOM      5  N   UNL     1       4.786  -0.291   0.616  0.00  0.00    -0.337 N 
ATOM      6  H   UNL     1       4.908   0.479   1.192  0.00  0.00    +0.167 HD
ENDROOT
BRANCH   1  10
ATOM      7  C   UNL     1       0.088   1.561  -0.234  0.00  0.00    +0.000 A 
ATOM      8  C   UNL     1       0.055   0.186  -0.044  0.00  0.00    +0.001 A 
ATOM      9  C   UNL     1       1.216  -0.531   0.004  0.00  0.00    +0.010 A 
ATOM     10  C   UNL     1       2.454   0.133  -0.142  0.00  0.00    +0.000 A 
ATOM     11  C   UNL     1       2.474   1.531  -0.335  0.00  0.00    +0.010 A 
ATOM     12  C   UNL     1       1.299   2.225  -0.378  0.00  0.00    +0.001 A 
ENDBRANCH   1  10
BRANCH   4  13
ATOM     13  C   UNL     1       7.057  -1.317   0.951  0.00  0.00    +0.021 A 
ATOM     14  C   UNL     1       7.475  -0.310   1.837  0.00  0.00    +0.012 A 
ATOM     15  C   UNL     1       8.740  -0.355   2.379  0.00  0.00    +0.004 A 
ATOM     16  C   UNL     1       9.603  -1.389   2.054  0.00  0.00    +0.045 A 
ATOM     17  C   UNL     1       9.200  -2.392   1.177  0.00  0.00    +0.118 A 
ATOM     18  C   UNL     1       7.932  -2.365   0.629  0.00  0.00    +0.057 A 
BRANCH  17  19
ATOM     19  O   UNL     1      10.054  -3.402   0.864  0.00  0.00    -0.507 OA
ATOM     20  H   UNL     1       9.992  -4.166   1.454  0.00  0.00    +0.292 HD
ENDBRANCH  17  19
ENDBRANCH   4  13
BRANCH   2  21
ATOM     21  C   UNL     1       3.108  -2.603  -1.719  0.00  0.00    +0.002 A 
ATOM     22  C   UNL     1       2.313  -1.913  -2.656  0.00  0.00    +0.011 A 
ATOM     23  C   UNL     1       1.499  -2.607  -3.498  0.00  0.00    +0.009 A 
ATOM     24  C   UNL     1       1.448  -4.007  -3.432  0.00  0.00    -0.018 A 
ATOM     25  C   UNL     1       2.237  -4.697  -2.500  0.00  0.00    +0.009 A 
ATOM     26  C   UNL     1       3.059  -4.010  -1.659  0.00  0.00    +0.011 A 
BRANCH  24  27
ATOM     27  C   UNL     1       0.562  -4.756  -4.346  0.00  0.00    -0.018 A 
ATOM     28  C   UNL     1      -0.223  -4.074  -5.280  0.00  0.00    +0.011 A 
ATOM     29  C   UNL     1      -1.048  -4.779  -6.130  0.00  0.00    +0.033 A 
ATOM     30  C   UNL     1      -1.100  -6.161  -6.059  0.00  0.00    +0.126 A 
ATOM     31  C   UNL     1      -0.326  -6.844  -5.136  0.00  0.00    +0.033 A 
ATOM     32  C   UNL     1       0.508  -6.152  -4.284  0.00  0.00    +0.011 A 
BRANCH  30  33
ATOM     33  N   UNL     1      -1.988  -6.912  -6.975  0.00  0.00    +0.056 N 
ATOM     34  O   UNL     1      -2.726  -6.266  -7.854  0.00  0.00    -0.126 OA
ATOM     35  O   UNL     1      -2.041  -8.226  -6.911  0.00  0.00    -0.126 OA
ENDBRANCH  30  33
ENDBRANCH  24  27
ENDBRANCH   2  21
TORSDOF 6
