REMARK  Name = ZINC34786594
REMARK  6 active torsions:
REMARK  status: ('A' for Active; 'I' for Inactive)
REMARK    1  A    between atoms: C_1  and  C_2
REMARK    2  A    between atoms: C_4  and  C_35
REMARK    3  A    between atoms: N_20  and  N_21
REMARK    4  A    between atoms: N_20  and  N_28
REMARK    5  A    between atoms: N_21  and  C_22
REMARK    6  A    between atoms: N_28  and  C_29
REMARK                            x       y       z     vdW  Elec       q    Type
REMARK                         _______ _______ _______ _____ _____    ______ ____
ROOT
ATOM      1  C   UNL     1       0.033   3.111   2.046  0.00  0.00    +0.067 C 
ATOM      2  C   UNL     1       0.227   1.708   1.533  0.00  0.00    +0.061 A 
ATOM      3  C   UNL     1       0.531   1.352   0.213  0.00  0.00    +0.048 A 
ATOM      4  C   UNL     1       0.624   0.004   0.155  0.00  0.00    +0.045 A 
ATOM      5  N   UNL     1       0.387  -0.478   1.404  0.00  0.00    -0.202 N 
ATOM      6  N   UNL     1       0.147   0.615   2.247  0.00  0.00    -0.169 NA
ATOM      7  C   UNL     1       0.387  -1.822   1.779  0.00  0.00    +0.254 A 
ATOM      8  N   UNL     1       0.131  -2.144   3.040  0.00  0.00    -0.192 NA
ATOM      9  C   UNL     1       0.117  -3.400   3.456  0.00  0.00    +0.167 A 
ATOM     10  C   UNL     1       0.385  -4.443   2.526  0.00  0.00    +0.054 A 
ATOM     11  C   UNL     1       0.425  -5.888   2.757  0.00  0.00    -0.025 A 
ATOM     12  C   UNL     1       0.704  -6.670   1.695  0.00  0.00    -0.004 A 
ATOM     13  S   UNL     1       0.928  -5.548   0.340  0.00  0.00    -0.073 S 
ATOM     14  C   UNL     1       0.646  -4.026   1.205  0.00  0.00    +0.116 A 
ATOM     15  N   UNL     1       0.637  -2.751   0.869  0.00  0.00    -0.203 NA
ATOM     16  C   UNL     1       0.804  -8.165   1.670  0.00  0.00    +0.043 C 
ATOM     17  C   UNL     1       0.909  -8.668   3.117  0.00  0.00    +0.005 C 
ATOM     18  C   UNL     1      -0.175  -7.982   3.954  0.00  0.00    +0.005 C 
ATOM     19  C   UNL     1       0.165  -6.502   4.130  0.00  0.00    +0.037 C 
ATOM     20  N   UNL     1      -0.153  -3.695   4.780  0.00  0.00    -0.166 N 
ATOM     21  C   UNL     1       0.936  -0.814  -1.071  0.00  0.00    +0.066 C 
ENDROOT
BRANCH  20  22
ATOM     22  N   UNL     1       0.741  -4.481   5.519  0.00  0.00    -0.249 N 
ATOM     23  H   UNL     1       0.491  -5.380   5.784  0.00  0.00    +0.172 HD
BRANCH  22  24
ATOM     24  C   UNL     1       1.990  -3.969   5.875  0.00  0.00    +0.046 A 
ATOM     25  C   UNL     1       2.349  -2.682   5.496  0.00  0.00    +0.024 A 
ATOM     26  C   UNL     1       3.586  -2.179   5.850  0.00  0.00    +0.002 A 
ATOM     27  C   UNL     1       4.466  -2.955   6.581  0.00  0.00    +0.000 A 
ATOM     28  C   UNL     1       4.112  -4.237   6.960  0.00  0.00    +0.002 A 
ATOM     29  C   UNL     1       2.875  -4.744   6.615  0.00  0.00    +0.024 A 
ENDBRANCH  22  24
ENDBRANCH  20  22
BRANCH  20  30
ATOM     30  N   UNL     1      -1.292  -3.221   5.366  0.00  0.00    -0.218 NA
ATOM     31  H   UNL     1      -1.095  -2.829   6.275  0.00  0.00    +0.146 HD
BRANCH  30  32
ATOM     32  C   UNL     1      -2.315  -4.272   5.457  0.00  0.00    +0.075 C 
ATOM     33  C   UNL     1      -3.000  -4.435   4.098  0.00  0.00    +0.020 C 
ATOM     34  C   UNL     1      -4.065  -5.530   4.192  0.00  0.00    +0.002 C 
ATOM     35  C   UNL     1      -5.105  -5.140   5.245  0.00  0.00    +0.000 C 
ATOM     36  C   UNL     1      -4.420  -4.977   6.603  0.00  0.00    +0.002 C 
ATOM     37  C   UNL     1      -3.355  -3.882   6.509  0.00  0.00    +0.020 C 
ENDBRANCH  30  32
ENDBRANCH  20  30
TORSDOF 4
