REMARK  Name = ZINC02419627
REMARK  6 active torsions:
REMARK  status: ('A' for Active; 'I' for Inactive)
REMARK    1  A    between atoms: C_1  and  O_2
REMARK    2  A    between atoms: O_2  and  C_3
REMARK    3  A    between atoms: C_6  and  C_11
REMARK    4  A    between atoms: C_8  and  O_9
REMARK    5  A    between atoms: O_9  and  C_10
REMARK    6  A    between atoms: C_22  and  C_24
REMARK                            x       y       z     vdW  Elec       q    Type
REMARK                         _______ _______ _______ _____ _____    ______ ____
ROOT
ATOM      1  C   UNL     1       2.507  -2.501  -4.386  0.00  0.00    +0.159 C 
ATOM      2  C   UNL     1       1.514  -2.561  -5.526  0.00  0.00    +0.027 C 
ATOM      3  C   UNL     1       1.845  -1.963  -6.688  0.00  0.00    +0.083 C 
ATOM      4  C   UNL     1       0.855  -2.022  -7.794  0.00  0.00    +0.042 A 
ATOM      5  C   UNL     1       1.213  -1.729  -9.103  0.00  0.00    +0.013 A 
ATOM      6  C   UNL     1       0.261  -1.798 -10.102  0.00  0.00    +0.001 A 
ATOM      7  C   UNL     1      -1.041  -2.157  -9.800  0.00  0.00    +0.004 A 
ATOM      8  C   UNL     1      -1.405  -2.450  -8.499  0.00  0.00    +0.046 A 
ATOM      9  C   UNL     1      -0.463  -2.383  -7.488  0.00  0.00    +0.131 A 
ATOM     10  O   UNL     1      -0.794  -2.658  -6.201  0.00  0.00    -0.479 OA
ATOM     11  C   UNL     1       0.200  -3.271  -5.378  0.00  0.00    +0.234 C 
ATOM     12  N   UNL     1       3.033  -1.330  -6.847  0.00  0.00    -0.213 NA
ATOM     13  C   UNL     1       3.950  -1.232  -5.913  0.00  0.00    +0.237 C 
ATOM     14  N   UNL     1       3.758  -1.785  -4.666  0.00  0.00    -0.208 N 
ATOM     15  N   UNL     1       4.905  -1.498  -3.923  0.00  0.00    -0.251 N 
ATOM     16  C   UNL     1       5.731  -0.792  -4.745  0.00  0.00    +0.203 C 
ATOM     17  N   UNL     1       5.168  -0.645  -5.902  0.00  0.00    -0.205 NA
ATOM     18  H   UNL     1       5.079  -1.751  -3.003  0.00  0.00    +0.171 HD
ENDROOT
BRANCH  11  19
ATOM     19  C   UNL     1       0.364  -4.713  -5.785  0.00  0.00    -0.002 A 
ATOM     20  C   UNL     1       0.368  -5.056  -7.124  0.00  0.00    +0.007 A 
ATOM     21  C   UNL     1       0.519  -6.378  -7.499  0.00  0.00    +0.002 A 
ATOM     22  C   UNL     1       0.665  -7.358  -6.534  0.00  0.00    +0.020 A 
ATOM     23  C   UNL     1       0.661  -7.015  -5.194  0.00  0.00    +0.041 A 
ATOM     24  C   UNL     1       0.517  -5.690  -4.820  0.00  0.00    +0.027 A 
ATOM     25 CL   UNL     1       0.845  -8.244  -3.983  0.00  0.00    -0.084 Cl
ENDBRANCH  11  19
BRANCH   1  29
ATOM     26  C   UNL     1       0.606  -0.608  -1.056  0.00  0.00    +0.162 A 
ATOM     27  C   UNL     1       1.173   0.159  -2.062  0.00  0.00    +0.050 A 
ATOM     28  C   UNL     1       1.787  -0.456  -3.137  0.00  0.00    +0.009 A 
ATOM     29  C   UNL     1       1.837  -1.836  -3.212  0.00  0.00    -0.017 A 
ATOM     30  C   UNL     1       1.273  -2.606  -2.212  0.00  0.00    +0.055 A 
ATOM     31  C   UNL     1       0.662  -1.996  -1.129  0.00  0.00    +0.162 A 
BRANCH  26  33
ATOM     32  C   UNL     1      -0.017   1.425   0.010  0.00  0.00    +0.277 C 
ATOM     33  O   UNL     1       0.002  -0.004   0.002  0.00  0.00    -0.491 OA
ENDBRANCH  26  33
BRANCH  31  34
ATOM     34  O   UNL     1       0.112  -2.753  -0.142  0.00  0.00    -0.491 OA
ATOM     35  C   UNL     1       0.206  -4.171  -0.283  0.00  0.00    +0.277 C 
ENDBRANCH  31  34
ENDBRANCH   1  29
TORSDOF 4
