REMARK  Name = ZINC41565695
REMARK  3 active torsions:
REMARK  status: ('A' for Active; 'I' for Inactive)
REMARK    1  A    between atoms: C_5  and  C_7
REMARK    2  A    between atoms: C_7  and  N_12
REMARK    3  A    between atoms: C_13  and  C_15
REMARK                            x       y       z     vdW  Elec       q    Type
REMARK                         _______ _______ _______ _____ _____    ______ ____
ROOT
ATOM      1  N   UNL     1      -0.137  -2.716  -0.073  0.00  0.00    -0.302 N 
ATOM      2  C   UNL     1      -0.946  -2.397  -1.103  0.00  0.00    +0.245 C 
ATOM      3  O   UNL     1      -0.542  -1.671  -1.990  0.00  0.00    -0.270 OA
ATOM      4  H   UNL     1      -0.459  -3.295   0.635  0.00  0.00    +0.150 HD
ENDROOT
BRANCH   2   5
ATOM      5  C   UNL     1      -2.321  -2.931  -1.154  0.00  0.00    +0.040 A 
ATOM      6  C   UNL     1      -2.788  -3.761  -0.132  0.00  0.00    +0.017 A 
ATOM      7  C   UNL     1      -4.072  -4.257  -0.181  0.00  0.00    +0.050 A 
ATOM      8  C   UNL     1      -4.906  -3.935  -1.243  0.00  0.00    +0.166 A 
ATOM      9  C   UNL     1      -4.445  -3.107  -2.267  0.00  0.00    +0.167 A 
ATOM     10  C   UNL     1      -3.160  -2.602  -2.221  0.00  0.00    +0.062 A 
ATOM     11  O   UNL     1      -5.447  -2.946  -3.182  0.00  0.00    -0.453 OA
ATOM     12  C   UNL     1      -6.381  -4.009  -2.917  0.00  0.00    +0.466 C 
ATOM     13  O   UNL     1      -6.194  -4.291  -1.518  0.00  0.00    -0.453 OA
ENDBRANCH   2   5
BRANCH   1  14
ATOM     14  C   UNL     1       1.228  -2.186  -0.022  0.00  0.00    +0.063 C 
ATOM     15  C   UNL     1       2.061  -2.710  -1.218  0.00  0.00    +0.030 C 
ATOM     16  C   UNL     1       2.478  -4.126  -0.750  0.00  0.00    +0.002 C 
ATOM     17  C   UNL     1       2.765  -3.957   0.756  0.00  0.00    +0.002 C 
ATOM     18  C   UNL     1       1.970  -2.724   1.219  0.00  0.00    +0.030 C 
BRANCH  14  23
ATOM     19  C   UNL     1      -0.017   1.378   0.010  0.00  0.00    +0.001 A 
ATOM     20  C   UNL     1       1.171   2.087   0.002  0.00  0.00    +0.003 A 
ATOM     21  C   UNL     1       2.377   1.414  -0.013  0.00  0.00    +0.039 A 
ATOM     22  C   UNL     1       2.397   0.029  -0.021  0.00  0.00    +0.129 A 
ATOM     23  C   UNL     1       1.208  -0.679  -0.013  0.00  0.00    +0.011 A 
ATOM     24  C   UNL     1       0.002  -0.004   0.002  0.00  0.00    +0.008 A 
ATOM     25  F   UNL     1       3.577  -0.630  -0.036  0.00  0.00    -0.205 F 
ENDBRANCH  14  23
ENDBRANCH   1  14
TORSDOF 3
