REMARK  Name = ZINC65771867
REMARK  2 active torsions:
REMARK  status: ('A' for Active; 'I' for Inactive)
REMARK    1  A    between atoms: C_8  and  C_21
REMARK    2  A    between atoms: C_12  and  C_14
REMARK                            x       y       z     vdW  Elec       q    Type
REMARK                         _______ _______ _______ _____ _____    ______ ____
ROOT
ATOM      1  C   UNL     1       2.130   1.214   2.605  0.00  0.00    +0.000 A 
ATOM      2  C   UNL     1       1.133   1.392   1.664  0.00  0.00    +0.000 A 
ATOM      3  C   UNL     1       0.890   0.406   0.730  0.00  0.00    +0.005 A 
ATOM      4  C   UNL     1       1.637  -0.764   0.731  0.00  0.00    -0.027 A 
ATOM      5  C   UNL     1       2.624  -0.947   1.673  0.00  0.00    -0.040 A 
ATOM      6  C   UNL     1       2.871   0.051   2.608  0.00  0.00    +0.004 A 
ATOM      7  C   UNL     1       3.454  -2.201   1.755  0.00  0.00    +0.067 C 
ATOM      8  C   UNL     1       3.419  -2.963   0.431  0.00  0.00    +0.167 C 
ATOM      9  N   UNL     1       2.016  -3.051  -0.005  0.00  0.00    -0.282 N 
ATOM     10  C   UNL     1       1.331  -1.795  -0.327  0.00  0.00    +0.144 C 
ATOM     11  C   UNL     1       1.386  -4.239  -0.105  0.00  0.00    +0.240 C 
ATOM     12  O   UNL     1       1.919  -5.247   0.319  0.00  0.00    -0.271 OA
ENDROOT
BRANCH  11  13
ATOM     13  C   UNL     1       0.055  -4.315  -0.726  0.00  0.00    +0.067 C 
ATOM     14  C   UNL     1      -0.618  -5.462  -0.716  0.00  0.00    -0.065 C 
ATOM     15  C   UNL     1      -0.264  -6.561   0.261  0.00  0.00    +0.031 C 
ATOM     16  C   UNL     1      -1.541  -6.998   0.987  0.00  0.00    +0.004 C 
ATOM     17  C   UNL     1      -2.603  -7.388  -0.043  0.00  0.00    +0.001 C 
ATOM     18  C   UNL     1      -2.981  -6.168  -0.885  0.00  0.00    +0.004 C 
ATOM     19  C   UNL     1      -1.762  -5.698  -1.677  0.00  0.00    +0.031 C 
ENDBRANCH  11  13
BRANCH   8  20
ATOM     20  C   UNL     1       3.982  -4.348   0.625  0.00  0.00    +0.231 C 
ATOM     21  O   UNL     1       4.810  -4.780  -0.148  0.00  0.00    -0.274 OA
ATOM     22  N   UNL     1       3.564  -5.106   1.659  0.00  0.00    -0.328 N 
ATOM     23  H   UNL     1       2.901  -4.760   2.277  0.00  0.00    +0.145 HD
ATOM     24  H   UNL     1       3.926  -5.997   1.784  0.00  0.00    +0.145 HD
ENDBRANCH   8  20
TORSDOF 2
