REMARK  Name = ZINC04236571
REMARK  11 active torsions:
REMARK  status: ('A' for Active; 'I' for Inactive)
REMARK    1  A    between atoms: C_1  and  C_2
REMARK    2  A    between atoms: C_5  and  O_29
REMARK    3  A    between atoms: C_7  and  C_26
REMARK    4  A    between atoms: C_7  and  C_27
REMARK    5  A    between atoms: C_12  and  O_25
REMARK    6  A    between atoms: C_14  and  C_16
REMARK    7  A    between atoms: C_16  and  C_17
REMARK    8  A    between atoms: C_27  and  O_28
REMARK    9  A    between atoms: O_29  and  C_30
REMARK   10  A    between atoms: N_32  and  C_33
REMARK   11  A    between atoms: C_33  and  C_34
REMARK                            x       y       z     vdW  Elec       q    Type
REMARK                         _______ _______ _______ _____ _____    ______ ____
ROOT
ATOM      1  C   UNL     1       7.057   0.327   0.527  0.00  0.00    +0.012 C 
ATOM      2  C   UNL     1       6.753  -0.368   1.856  0.00  0.00    -0.023 C 
ATOM      3  C   UNL     1       7.844  -1.399   2.152  0.00  0.00    +0.011 C 
ATOM      4  C   UNL     1       9.200  -0.696   2.243  0.00  0.00    +0.046 C 
ATOM      5  C   UNL     1       9.161   0.343   3.366  0.00  0.00    +0.186 C 
ATOM      6  C   UNL     1       8.070   1.374   3.069  0.00  0.00    +0.031 C 
ATOM      7  C   UNL     1       6.715   0.670   2.978  0.00  0.00    +0.007 C 
ATOM      8  C   UNL     1       6.411  -0.025   4.307  0.00  0.00    +0.007 C 
ATOM      9  C   UNL     1       5.056  -0.729   4.216  0.00  0.00    +0.032 C 
ATOM     10  C   UNL     1       5.094  -1.768   3.094  0.00  0.00    +0.119 C 
ATOM     11  C   UNL     1       5.398  -1.072   1.765  0.00  0.00    +0.032 C 
ATOM     12  C   UNL     1       8.031   2.413   4.192  0.00  0.00    +0.017 C 
ENDROOT
BRANCH  10  13
ATOM     13  O   UNL     1       3.828  -2.425   3.009  0.00  0.00    -0.391 OA
ATOM     14  H   UNL     1       3.570  -2.888   3.817  0.00  0.00    +0.210 HD
ENDBRANCH  10  13
BRANCH  11  15
ATOM     15  C   UNL     1       4.307  -0.041   1.469  0.00  0.00    +0.102 C 
BRANCH  15  16
ATOM     16  C   UNL     1       3.022  -0.752   1.129  0.00  0.00    +0.216 C 
ATOM     17  O   UNL     1       3.021  -1.952   0.955  0.00  0.00    -0.276 OA
ATOM     18  N   UNL     1       1.874  -0.054   1.019  0.00  0.00    -0.301 N 
ATOM     19  C   UNL     1       0.614  -0.734   0.688  0.00  0.00    +0.108 C 
ATOM     20  C   UNL     1      -0.014  -0.044  -0.527  0.00  0.00    +0.019 C 
ATOM     21  C   UNL     1      -0.163   1.452  -0.239  0.00  0.00    +0.003 C 
ATOM     22  C   UNL     1       1.218   2.066   0.005  0.00  0.00    +0.019 C 
ATOM     23  C   UNL     1       1.860   1.400   1.226  0.00  0.00    +0.108 C 
ENDBRANCH  15  16
ENDBRANCH  11  15
BRANCH   6  24
ATOM     24  C   UNL     1       8.374   2.070   1.741  0.00  0.00    +0.166 C 
BRANCH  24  25
ATOM     25  O   UNL     1       9.532   2.893   1.888  0.00  0.00    -0.394 OA
ATOM     26  H   UNL     1       9.784   3.366   1.083  0.00  0.00    +0.209 HD
ENDBRANCH  24  25
ENDBRANCH   6  24
BRANCH   5  27
ATOM     27  O   UNL     1      10.447   1.010   3.452  0.00  0.00    -0.446 OA
BRANCH  27  28
ATOM     28  C   UNL     1      11.367   0.462   4.268  0.00  0.00    +0.401 C 
ATOM     29  O   UNL     1      11.102  -0.546   4.892  0.00  0.00    -0.226 OA
ATOM     30  N   UNL     1      12.582   1.032   4.394  0.00  0.00    -0.278 N 
ATOM     31  H   UNL     1      12.794   1.838   3.896  0.00  0.00    +0.152 HD
BRANCH  30  32
ATOM     32  C   UNL     1      13.583   0.436   5.282  0.00  0.00    +0.134 C 
BRANCH  32  33
ATOM     33  C   UNL     1      14.844   1.260   5.243  0.00  0.00    -0.016 C 
ATOM     34  C   UNL     1      15.355   1.729   6.354  0.00  0.00    +0.005 C 
ENDBRANCH  32  33
ENDBRANCH  30  32
ENDBRANCH  27  28
ENDBRANCH   5  27
TORSDOF 9
