REMARK  Name = ZINC40322074
REMARK  7 active torsions:
REMARK  status: ('A' for Active; 'I' for Inactive)
REMARK    1  A    between atoms: C_5  and  C_7
REMARK    2  A    between atoms: C_7  and  C_9
REMARK    3  A    between atoms: C_7  and  N_28
REMARK    4  A    between atoms: C_9  and  N_10
REMARK    5  A    between atoms: C_11  and  C_13
REMARK    6  A    between atoms: C_16  and  S_18
REMARK    7  A    between atoms: S_18  and  C_21
REMARK                            x       y       z     vdW  Elec       q    Type
REMARK                         _______ _______ _______ _____ _____    ______ ____
ROOT
ATOM      1  N   UNL     1       1.746  -3.902  -1.684  0.00  0.00    -0.310 N 
ATOM      2  C   UNL     1       2.155  -4.374  -2.878  0.00  0.00    +0.279 C 
ATOM      3  O   UNL     1       2.382  -3.602  -3.792  0.00  0.00    -0.267 OA
ATOM      4  H   UNL     1       1.565  -4.517  -0.956  0.00  0.00    +0.149 HD
ENDROOT
BRANCH   2   5
ATOM      5  C   UNL     1       2.326  -5.817  -3.077  0.00  0.00    +0.192 A 
ATOM      6  C   UNL     1       2.738  -6.425  -4.228  0.00  0.00    +0.056 A 
ATOM      7  C   UNL     1       2.760  -7.804  -3.970  0.00  0.00    +0.070 A 
ATOM      8  C   UNL     1       2.366  -7.976  -2.689  0.00  0.00    +0.246 A 
ATOM      9  O   UNL     1       2.110  -6.775  -2.153  0.00  0.00    -0.433 OA
BRANCH   8  10
ATOM     10  S   UNL     1       2.219  -9.523  -1.859  0.00  0.00    +0.058 S 
ATOM     11  O   UNL     1       1.289  -9.330  -0.802  0.00  0.00    -0.161 OA
ATOM     12  O   UNL     1       2.033 -10.508  -2.866  0.00  0.00    -0.161 OA
BRANCH  10  13
ATOM     13  C   UNL     1       3.775  -9.861  -1.106  0.00  0.00    +0.097 A 
ATOM     14  C   UNL     1       4.745 -10.555  -1.805  0.00  0.00    +0.029 A 
ATOM     15  C   UNL     1       5.966 -10.820  -1.215  0.00  0.00    +0.022 A 
ATOM     16  C   UNL     1       6.218 -10.390   0.076  0.00  0.00    +0.041 A 
ATOM     17  C   UNL     1       5.247  -9.696   0.776  0.00  0.00    +0.022 A 
ATOM     18  C   UNL     1       4.028  -9.427   0.182  0.00  0.00    +0.029 A 
ATOM     19 CL   UNL     1       7.751 -10.724   0.819  0.00  0.00    -0.084 Cl
ENDBRANCH  10  13
ENDBRANCH   8  10
ENDBRANCH   2   5
BRANCH   1  20
ATOM     20  C   UNL     1       1.575  -2.461  -1.485  0.00  0.00    +0.094 C 
BRANCH  20  21
ATOM     21  C   UNL     1       1.232  -2.185  -0.020  0.00  0.00    -0.019 C 
BRANCH  21  26
ATOM     22  C   UNL     1      -1.386  -4.581   1.268  0.00  0.00    +0.000 A 
ATOM     23  C   UNL     1      -2.554  -3.934   0.909  0.00  0.00    +0.001 A 
ATOM     24  C   UNL     1      -2.498  -2.721   0.249  0.00  0.00    +0.020 A 
ATOM     25  C   UNL     1      -1.272  -2.154  -0.052  0.00  0.00    +0.043 A 
ATOM     26  C   UNL     1      -0.104  -2.802   0.308  0.00  0.00    -0.041 A 
ATOM     27  C   UNL     1      -0.162  -4.015   0.967  0.00  0.00    +0.003 A 
ATOM     28 CL   UNL     1      -1.200  -0.630  -0.880  0.00  0.00    -0.083 Cl
ENDBRANCH  21  26
BRANCH  21  29
ATOM     29  N   UNL     1       2.266  -2.769   0.844  0.00  0.00    +0.385 N 
ATOM     30  C   UNL     1       3.596  -2.200   0.507  0.00  0.00    -0.078 C 
ATOM     31  C   UNL     1       4.423  -2.447   1.794  0.00  0.00    -0.020 C 
ATOM     32  C   UNL     1       3.392  -2.207   2.920  0.00  0.00    -0.020 C 
ATOM     33  C   UNL     1       2.017  -2.406   2.256  0.00  0.00    -0.078 C 
ATOM     34  H   UNL     1       2.280  -3.773   0.740  0.00  0.00    -0.081 HD
ENDBRANCH  21  29
ENDBRANCH  20  21
ENDBRANCH   1  20
TORSDOF 7
