REMARK  Name = ZINC40985973
REMARK  10 active torsions:
REMARK  status: ('A' for Active; 'I' for Inactive)
REMARK    1  A    between atoms: C_1  and  C_2
REMARK    2  A    between atoms: C_2  and  C_3
REMARK    3  A    between atoms: C_6  and  C_9
REMARK    4  A    between atoms: C_9  and  C_11
REMARK    5  A    between atoms: C_9  and  N_31
REMARK    6  A    between atoms: C_11  and  N_12
REMARK    7  A    between atoms: C_13  and  C_15
REMARK    8  A    between atoms: C_18  and  S_22
REMARK    9  A    between atoms: S_22  and  C_23
REMARK   10  A    between atoms: C_23  and  C_24
REMARK                            x       y       z     vdW  Elec       q    Type
REMARK                         _______ _______ _______ _____ _____    ______ ____
ROOT
ATOM      1  N   UNL     1      -6.239   0.119   0.914  0.00  0.00    -0.312 N 
ATOM      2  C   UNL     1      -6.983   1.243   0.909  0.00  0.00    +0.248 C 
ATOM      3  O   UNL     1      -7.644   1.529  -0.071  0.00  0.00    -0.270 OA
ATOM      4  H   UNL     1      -5.712  -0.110   1.696  0.00  0.00    +0.149 HD
ENDROOT
BRANCH   2   5
ATOM      5  C   UNL     1      -6.994   2.126   2.090  0.00  0.00    +0.092 A 
ATOM      6  C   UNL     1      -6.234   1.816   3.226  0.00  0.00    +0.129 A 
ATOM      7  N   UNL     1      -6.271   2.632   4.262  0.00  0.00    -0.229 NA
ATOM      8  C   UNL     1      -7.014   3.732   4.239  0.00  0.00    +0.190 A 
ATOM      9  N   UNL     1      -7.748   4.061   3.183  0.00  0.00    -0.209 NA
ATOM     10  C   UNL     1      -7.762   3.300   2.103  0.00  0.00    +0.146 A 
ATOM     11 CL   UNL     1      -8.720   3.743   0.725  0.00  0.00    -0.061 Cl
BRANCH   8  12
ATOM     12  S   UNL     1      -7.026   4.785   5.651  0.00  0.00    -0.081 S 
BRANCH  12  13
ATOM     13  C   UNL     1      -8.149   6.132   5.184  0.00  0.00    +0.112 C 
BRANCH  13  14
ATOM     14  C   UNL     1      -8.251   7.117   6.320  0.00  0.00    -0.037 A 
ATOM     15  C   UNL     1      -9.218   6.952   7.294  0.00  0.00    +0.006 A 
ATOM     16  C   UNL     1      -9.312   7.855   8.336  0.00  0.00    +0.020 A 
ATOM     17  C   UNL     1      -8.438   8.925   8.404  0.00  0.00    +0.041 A 
ATOM     18  C   UNL     1      -7.470   9.091   7.429  0.00  0.00    +0.020 A 
ATOM     19  C   UNL     1      -7.373   8.183   6.390  0.00  0.00    +0.006 A 
ATOM     20 CL   UNL     1      -8.555  10.061   9.711  0.00  0.00    -0.084 Cl
ENDBRANCH  13  14
ENDBRANCH  12  13
ENDBRANCH   8  12
ENDBRANCH   2   5
BRANCH   1  21
ATOM     21  C   UNL     1      -6.228  -0.758  -0.259  0.00  0.00    +0.094 C 
BRANCH  21  22
ATOM     22  C   UNL     1      -5.213  -1.883  -0.046  0.00  0.00    -0.020 C 
BRANCH  22  26
ATOM     23  C   UNL     1      -1.276  -0.236   0.138  0.00  0.00    -0.048 A 
ATOM     24  C   UNL     1      -1.942  -0.567   1.304  0.00  0.00    +0.004 A 
ATOM     25  C   UNL     1      -3.216  -1.100   1.244  0.00  0.00    +0.002 A 
ATOM     26  C   UNL     1      -3.825  -1.301   0.019  0.00  0.00    -0.059 A 
ATOM     27  C   UNL     1      -3.159  -0.969  -1.146  0.00  0.00    +0.002 A 
ATOM     28  C   UNL     1      -1.887  -0.433  -1.086  0.00  0.00    +0.004 A 
BRANCH  23  30
ATOM     29  C   UNL     1       0.024   1.870   0.290  0.00  0.00    +0.009 C 
ATOM     30  C   UNL     1       0.113   0.345   0.203  0.00  0.00    +0.032 C 
ENDBRANCH  23  30
ENDBRANCH  22  26
BRANCH  22  31
ATOM     31  N   UNL     1      -5.294  -2.834  -1.163  0.00  0.00    +0.385 N 
ATOM     32  C   UNL     1      -4.324  -3.941  -0.964  0.00  0.00    -0.078 C 
ATOM     33  C   UNL     1      -4.899  -5.079  -1.844  0.00  0.00    -0.020 C 
ATOM     34  C   UNL     1      -6.426  -4.925  -1.654  0.00  0.00    -0.020 C 
ATOM     35  C   UNL     1      -6.630  -3.469  -1.196  0.00  0.00    -0.078 C 
ATOM     36  H   UNL     1      -5.111  -2.362  -2.035  0.00  0.00    -0.081 HD
ENDBRANCH  22  31
ENDBRANCH  21  22
ENDBRANCH   1  21
TORSDOF 9
