REMARK  Name = ZINC38870163
REMARK  10 active torsions:
REMARK  status: ('A' for Active; 'I' for Inactive)
REMARK    1  A    between atoms: C_1  and  C_2
REMARK    2  A    between atoms: C_4  and  N_9
REMARK    3  A    between atoms: C_5  and  C_8
REMARK    4  A    between atoms: C_10  and  C_12
REMARK    5  A    between atoms: C_12  and  S_13
REMARK    6  A    between atoms: S_13  and  C_14
REMARK    7  A    between atoms: C_18  and  C_27
REMARK    8  A    between atoms: N_20  and  C_21
REMARK    9  A    between atoms: C_27  and  O_28
REMARK   10  A    between atoms: O_28  and  C_29
REMARK                            x       y       z     vdW  Elec       q    Type
REMARK                         _______ _______ _______ _____ _____    ______ ____
ROOT
ATOM      1  C   UNL     1      -7.300  -1.765  -2.499  0.00  0.00    +0.217 C 
ATOM      2  N   UNL     1      -7.625  -0.331  -2.674  0.00  0.00    -0.226 NA
ATOM      3  N   UNL     1      -7.776  -0.165  -4.128  0.00  0.00    -0.231 NA
ATOM      4  C   UNL     1      -6.719  -1.054  -4.677  0.00  0.00    +0.195 C 
ATOM      5  N   UNL     1      -6.723  -2.224  -3.775  0.00  0.00    -0.285 N 
ATOM      6  H   UNL     1      -6.885   0.254  -2.318  0.00  0.00    +0.143 HD
ATOM      7  H   UNL     1      -7.620   0.794  -4.401  0.00  0.00    +0.143 HD
ENDROOT
BRANCH   5   8
ATOM      8  C   UNL     1      -6.269  -3.512  -4.072  0.00  0.00    +0.033 A 
ATOM      9  C   UNL     1      -4.923  -3.733  -4.331  0.00  0.00    +0.023 A 
ATOM     10  C   UNL     1      -4.478  -5.007  -4.624  0.00  0.00    +0.002 A 
ATOM     11  C   UNL     1      -5.371  -6.062  -4.660  0.00  0.00    +0.000 A 
ATOM     12  C   UNL     1      -6.713  -5.845  -4.402  0.00  0.00    +0.002 A 
ATOM     13  C   UNL     1      -7.163  -4.575  -4.103  0.00  0.00    +0.023 A 
ENDBRANCH   5   8
BRANCH   1  14
ATOM     14  S   UNL     1      -6.091  -1.969  -1.162  0.00  0.00    -0.112 S 
BRANCH  14  15
ATOM     15  C   UNL     1      -4.679  -0.960  -1.688  0.00  0.00    +0.168 C 
BRANCH  15  17
ATOM     16  N   UNL     1      -2.435  -0.368  -0.831  0.00  0.00    -0.285 N 
ATOM     17  C   UNL     1      -3.588  -1.043  -0.651  0.00  0.00    +0.227 C 
ATOM     18  O   UNL     1      -3.748  -1.716   0.344  0.00  0.00    -0.275 OA
ATOM     19  H   UNL     1      -2.335   0.227  -1.590  0.00  0.00    +0.155 HD
BRANCH  16  22
ATOM     20  C   UNL     1      -0.026  -2.470  -0.728  0.00  0.00    +0.041 C 
ATOM     21  C   UNL     1      -0.701  -1.810   0.476  0.00  0.00    +0.171 C 
ATOM     22  C   UNL     1      -1.399  -0.525   0.063  0.00  0.00    +0.059 C 
ATOM     23  C   UNL     1      -0.764   0.427   0.780  0.00  0.00    +0.079 C 
ATOM     24  N   UNL     1       0.193  -0.115   1.542  0.00  0.00    -0.157 NA
ATOM     25  N   UNL     1       0.305  -1.343   1.446  0.00  0.00    -0.178 NA
ATOM     26  C   UNL     1      -1.089   1.898   0.729  0.00  0.00    +0.069 C 
ENDBRANCH  16  22
ENDBRANCH  15  17
ENDBRANCH  14  15
ENDBRANCH   1  14
BRANCH   4  27
ATOM     27  C   UNL     1      -7.064  -1.476  -6.107  0.00  0.00    +0.268 C 
BRANCH  27  28
ATOM     28  O   UNL     1      -8.274  -2.235  -6.100  0.00  0.00    -0.488 OA
BRANCH  28  29
ATOM     29  C   UNL     1      -8.724  -2.689  -7.299  0.00  0.00    +0.128 A 
ATOM     30  C   UNL     1      -8.024  -2.421  -8.442  0.00  0.00    +0.046 A 
ATOM     31  C   UNL     1      -8.472  -2.880  -9.678  0.00  0.00    +0.004 A 
ATOM     32  C   UNL     1      -9.617  -3.609  -9.784  0.00  0.00    +0.009 A 
ATOM     33  C   UNL     1     -10.364  -3.906  -8.632  0.00  0.00    -0.014 A 
ATOM     34  C   UNL     1      -9.911  -3.446  -7.371  0.00  0.00    +0.024 A 
ATOM     35  C   UNL     1     -10.656  -3.746  -6.219  0.00  0.00    +0.012 A 
ATOM     36  C   UNL     1     -11.798  -4.479  -6.328  0.00  0.00    +0.001 A 
ATOM     37  C   UNL     1     -12.242  -4.936  -7.567  0.00  0.00    +0.001 A 
ATOM     38  C   UNL     1     -11.552  -4.655  -8.706  0.00  0.00    +0.008 A 
ENDBRANCH  28  29
ENDBRANCH  27  28
ENDBRANCH   4  27
TORSDOF 8
