REMARK  Name = ZINC53113189
REMARK  7 active torsions:
REMARK  status: ('A' for Active; 'I' for Inactive)
REMARK    1  A    between atoms: C_1  and  C_2
REMARK    2  A    between atoms: C_7  and  C_9
REMARK    3  A    between atoms: C_7  and  N_11
REMARK    4  A    between atoms: C_9  and  O_10
REMARK    5  A    between atoms: N_11  and  S_12
REMARK    6  A    between atoms: S_12  and  C_15
REMARK    7  A    between atoms: C_19  and  N_21
REMARK                            x       y       z     vdW  Elec       q    Type
REMARK                         _______ _______ _______ _____ _____    ______ ____
ROOT
ATOM      1  S   UNL     1       3.112  -2.702  -0.144  0.00  0.00    +0.059 S 
ATOM      2  O   UNL     1       3.476  -2.709  -1.517  0.00  0.00    -0.153 OA
ATOM      3  O   UNL     1       3.492  -1.656   0.740  0.00  0.00    -0.153 OA
ENDROOT
BRANCH   1   4
ATOM      4  C   UNL     1       3.734  -4.198   0.550  0.00  0.00    +0.107 A 
ATOM      5  C   UNL     1       4.189  -4.216   1.855  0.00  0.00    +0.031 A 
ATOM      6  C   UNL     1       4.678  -5.388   2.404  0.00  0.00    +0.042 A 
ATOM      7  C   UNL     1       4.714  -6.545   1.648  0.00  0.00    +0.144 A 
ATOM      8  C   UNL     1       4.257  -6.528   0.334  0.00  0.00    +0.062 A 
ATOM      9  C   UNL     1       3.762  -5.351  -0.210  0.00  0.00    +0.054 A 
ATOM     10  F   UNL     1       5.192  -7.689   2.184  0.00  0.00    -0.204 F 
BRANCH   8  11
ATOM     11  N   UNL     1       4.291  -7.696  -0.434  0.00  0.00    -0.356 N 
ATOM     12  H   UNL     1       4.634  -8.519  -0.051  0.00  0.00    +0.142 HD
ATOM     13  H   UNL     1       3.972  -7.684  -1.350  0.00  0.00    +0.142 HD
ENDBRANCH   8  11
ENDBRANCH   1   4
BRANCH   1  14
ATOM     14  N   UNL     1       1.459  -2.789  -0.092  0.00  0.00    -0.182 NA
ATOM     15  H   UNL     1       0.951  -2.852  -0.915  0.00  0.00    +0.149 HD
BRANCH  14  21
ATOM     16  C   UNL     1       0.715   1.049   1.693  0.00  0.00    +0.007 C 
ATOM     17  C   UNL     1       0.473  -0.296   1.004  0.00  0.00    -0.012 C 
ATOM     18  C   UNL     1      -1.028  -0.491   0.778  0.00  0.00    +0.003 C 
ATOM     19  C   UNL     1      -1.269  -1.835   0.089  0.00  0.00    +0.002 C 
ATOM     20  C   UNL     1      -0.736  -2.964   0.973  0.00  0.00    +0.026 C 
ATOM     21  C   UNL     1       0.765  -2.769   1.198  0.00  0.00    +0.063 C 
ATOM     22  C   UNL     1       1.007  -1.425   1.887  0.00  0.00    +0.029 C 
BRANCH  21  23
ATOM     23  C   UNL     1       1.299  -3.899   2.082  0.00  0.00    +0.179 C 
BRANCH  23  24
ATOM     24  O   UNL     1       1.206  -5.139   1.377  0.00  0.00    -0.393 OA
ATOM     25  H   UNL     1       1.528  -5.901   1.879  0.00  0.00    +0.209 HD
ENDBRANCH  23  24
ENDBRANCH  21  23
ENDBRANCH  14  21
ENDBRANCH   1  14
TORSDOF 6
