REMARK  Name = ZINC61522794
REMARK  4 active torsions:
REMARK  status: ('A' for Active; 'I' for Inactive)
REMARK    1  A    between atoms: C_1  and  N_2
REMARK    2  A    between atoms: N_2  and  C_3
REMARK    3  A    between atoms: N_11  and  C_12
REMARK    4  A    between atoms: C_12  and  C_13
REMARK                            x       y       z     vdW  Elec       q    Type
REMARK                         _______ _______ _______ _____ _____    ______ ____
ROOT
ATOM      1  C   UNL     1      -0.018   1.461   0.010  0.00  0.00    +0.132 C 
ATOM      2  N   UNL     1       0.002  -0.004   0.002  0.00  0.00    -0.306 N 
ATOM      3  C   UNL     1       1.281  -0.719  -0.014  0.00  0.00    +0.132 C 
ATOM      4  C   UNL     1      -1.183  -0.710   0.009  0.00  0.00    +0.223 A 
ATOM      5  N   UNL     1      -1.166  -2.039   0.008  0.00  0.00    -0.181 NA
ATOM      6  C   UNL     1      -2.310  -2.715   0.015  0.00  0.00    +0.221 A 
ATOM      7  N   UNL     1      -3.468  -2.061   0.025  0.00  0.00    -0.184 NA
ATOM      8  C   UNL     1      -3.482  -0.738   0.027  0.00  0.00    +0.229 A 
ATOM      9  N   UNL     1      -2.345  -0.061   0.024  0.00  0.00    -0.184 NA
ATOM     10 CL   UNL     1      -4.996   0.113   0.038  0.00  0.00    -0.041 Cl
ATOM     11  N   UNL     1      -2.296  -4.095   0.013  0.00  0.00    -0.309 N 
ATOM     12  H   UNL     1      -1.451  -4.572   0.006  0.00  0.00    +0.149 HD
ENDROOT
BRANCH  11  13
ATOM     13  C   UNL     1      -3.558  -4.840   0.022  0.00  0.00    +0.139 C 
BRANCH  13  14
ATOM     14  C   UNL     1      -3.268  -6.319   0.017  0.00  0.00    -0.030 A 
ATOM     15  C   UNL     1      -3.138  -6.994  -1.182  0.00  0.00    +0.006 A 
ATOM     16  C   UNL     1      -2.872  -8.350  -1.187  0.00  0.00    +0.015 A 
ATOM     17  C   UNL     1      -2.735  -9.032   0.009  0.00  0.00    +0.018 A 
ATOM     18  C   UNL     1      -2.864  -8.356   1.209  0.00  0.00    +0.015 A 
ATOM     19  C   UNL     1      -3.125  -6.999   1.212  0.00  0.00    +0.006 A 
ATOM     20 BR   UNL     1      -2.371 -10.888   0.003  0.00  0.00    -0.050 Br
ENDBRANCH  13  14
ENDBRANCH  11  13
TORSDOF 2
