REMARK  Name = ZINC43221858
REMARK  12 active torsions:
REMARK  status: ('A' for Active; 'I' for Inactive)
REMARK    1  A    between atoms: C_1  and  C_2
REMARK    2  A    between atoms: C_2  and  C_3
REMARK    3  A    between atoms: C_7  and  C_37
REMARK    4  A    between atoms: C_8  and  N_9
REMARK    5  A    between atoms: C_14  and  C_29
REMARK    6  A    between atoms: C_17  and  C_22
REMARK    7  A    between atoms: C_17  and  C_26
REMARK    8  A    between atoms: C_22  and  C_24
REMARK    9  A    between atoms: C_22  and  O_25
REMARK   10  A    between atoms: C_31  and  C_36
REMARK   11  A    between atoms: C_34  and  C_35
REMARK   12  A    between atoms: C_37  and  C_38
REMARK                            x       y       z     vdW  Elec       q    Type
REMARK                         _______ _______ _______ _____ _____    ______ ____
ROOT
ATOM      1  N   UNL     1       3.036  -0.488  -0.097  0.00  0.00    -0.209 N 
ATOM      2  C   UNL     1       3.462   0.803   0.096  0.00  0.00    +0.229 C 
ATOM      3  O   UNL     1       3.159   1.786  -0.546  0.00  0.00    -0.275 OA
ATOM      4  C   UNL     1       4.349   0.732   1.230  0.00  0.00    +0.077 C 
ATOM      5  C   UNL     1       4.931   1.593   2.274  0.00  0.00    -0.026 C 
ATOM      6  N   UNL     1       5.560   0.587   3.198  0.00  0.00    +0.397 N 
ATOM      7  C   UNL     1       4.864  -0.718   2.993  0.00  0.00    +0.074 C 
ATOM      8  C   UNL     1       3.655  -0.386   2.106  0.00  0.00    +0.089 C 
ATOM      9  C   UNL     1       3.325  -1.302   0.960  0.00  0.00    +0.229 C 
ATOM     10  O   UNL     1       3.320  -2.515   0.973  0.00  0.00    -0.275 OA
ATOM     11  H   UNL     1       6.540   0.490   2.981  0.00  0.00    -0.083 HD
ATOM     12  H   UNL     1       5.449   0.887   4.155  0.00  0.00    -0.083 HD
ENDROOT
BRANCH   5  13
ATOM     13  C   UNL     1       5.973   2.514   1.692  0.00  0.00    -0.057 A 
ATOM     14  C   UNL     1       6.481   2.272   0.429  0.00  0.00    +0.005 A 
ATOM     15  C   UNL     1       7.436   3.117  -0.105  0.00  0.00    -0.050 A 
ATOM     16  C   UNL     1       7.883   4.204   0.624  0.00  0.00    +0.003 A 
ATOM     17  C   UNL     1       7.374   4.446   1.885  0.00  0.00    +0.004 A 
ATOM     18  C   UNL     1       6.415   3.604   2.418  0.00  0.00    -0.049 A 
ATOM     19  C   UNL     1       5.857   3.871   3.792  0.00  0.00    +0.044 C 
ATOM     20  C   UNL     1       7.992   2.852  -1.481  0.00  0.00    +0.044 C 
ENDBRANCH   5  13
BRANCH   1  26
ATOM     21  C   UNL     1       0.985  -0.858  -1.323  0.00  0.00    -0.026 A 
ATOM     22  C   UNL     1       0.333  -1.281  -2.464  0.00  0.00    +0.005 A 
ATOM     23  C   UNL     1       1.057  -1.772  -3.534  0.00  0.00    +0.001 A 
ATOM     24  C   UNL     1       2.437  -1.841  -3.466  0.00  0.00    +0.005 A 
ATOM     25  C   UNL     1       3.095  -1.420  -2.327  0.00  0.00    -0.026 A 
ATOM     26  C   UNL     1       2.370  -0.921  -1.253  0.00  0.00    +0.050 A 
BRANCH  21  28
ATOM     27  C   UNL     1       0.123   1.203  -0.247  0.00  0.00    +0.009 C 
ATOM     28  C   UNL     1       0.195  -0.322  -0.157  0.00  0.00    +0.033 C 
ENDBRANCH  21  28
BRANCH  25  29
ATOM     29  C   UNL     1       4.598  -1.496  -2.253  0.00  0.00    +0.033 C 
ATOM     30  C   UNL     1       5.010  -2.800  -1.566  0.00  0.00    +0.009 C 
ENDBRANCH  25  29
ENDBRANCH   1  26
BRANCH   7  31
ATOM     31  C   UNL     1       4.391  -1.270   4.313  0.00  0.00    +0.349 C 
ATOM     32  O   UNL     1       4.625  -0.665   5.346  0.00  0.00    -0.248 OA
ATOM     33  O   UNL     1       3.774  -2.321   4.349  0.00  0.00    -0.248 OA
ENDBRANCH   7  31
BRANCH   7  34
ATOM     34  C   UNL     1       5.799  -1.715   2.306  0.00  0.00    +0.112 C 
ATOM     35  C   UNL     1       7.019  -1.966   3.195  0.00  0.00    +0.037 C 
BRANCH  34  36
ATOM     36  O   UNL     1       5.106  -2.946   2.088  0.00  0.00    -0.393 OA
ATOM     37  H   UNL     1       4.787  -3.366   2.898  0.00  0.00    +0.210 HD
ENDBRANCH  34  36
ENDBRANCH   7  34
TORSDOF 7
