REMARK  Name = ZINC49378586
REMARK  4 active torsions:
REMARK  status: ('A' for Active; 'I' for Inactive)
REMARK    1  A    between atoms: C_3  and  N_12
REMARK    2  A    between atoms: C_6  and  C_7
REMARK    3  A    between atoms: C_7  and  N_8
REMARK    4  A    between atoms: C_13  and  C_15
REMARK                            x       y       z     vdW  Elec       q    Type
REMARK                         _______ _______ _______ _____ _____    ______ ____
ROOT
ATOM      1  C   UNL     1      -0.013   1.375  -0.180  0.00  0.00    +0.007 A 
ATOM      2  C   UNL     1       1.174   2.081  -0.183  0.00  0.00    +0.023 A 
ATOM      3  C   UNL     1       2.380   1.411  -0.018  0.00  0.00    +0.034 A 
ATOM      4  C   UNL     1       2.387   0.032   0.149  0.00  0.00    +0.023 A 
ATOM      5  C   UNL     1       1.197  -0.668   0.150  0.00  0.00    +0.007 A 
ATOM      6  C   UNL     1      -0.002   0.002  -0.014  0.00  0.00    -0.030 A 
ENDROOT
BRANCH   3   7
ATOM      7  N   UNL     1       3.583   2.123  -0.021  0.00  0.00    -0.281 N 
ATOM      8  C   UNL     1       3.627   3.374   0.478  0.00  0.00    +0.255 C 
ATOM      9  O   UNL     1       2.645   3.849   1.018  0.00  0.00    -0.269 OA
ATOM     10  H   UNL     1       4.386   1.716  -0.382  0.00  0.00    +0.155 HD
BRANCH   8  11
ATOM     11  C   UNL     1       4.857   4.162   0.371  0.00  0.00    +0.075 A 
ATOM     12  C   UNL     1       5.111   5.451   0.818  0.00  0.00    +0.022 A 
ATOM     13  C   UNL     1       6.375   5.930   0.570  0.00  0.00    +0.024 A 
ATOM     14  C   UNL     1       7.266   5.136  -0.077  0.00  0.00    +0.056 A 
ATOM     15  S   UNL     1       6.419   3.713  -0.361  0.00  0.00    -0.077 S 
ATOM     16 BR   UNL     1       9.054   5.537  -0.544  0.00  0.00    -0.043 Br
ENDBRANCH   8  11
ENDBRANCH   3   7
BRANCH   6  17
ATOM     17  C   UNL     1      -1.299  -0.765  -0.011  0.00  0.00    +0.141 C 
BRANCH  17  18
ATOM     18  N   UNL     1      -1.624  -1.179  -1.378  0.00  0.00    -0.295 N 
ATOM     19  C   UNL     1      -2.748  -1.883  -1.620  0.00  0.00    +0.297 C 
ATOM     20  O   UNL     1      -3.491  -2.175  -0.704  0.00  0.00    -0.253 OA
ATOM     21  N   UNL     1      -3.047  -2.264  -2.878  0.00  0.00    -0.313 N 
ATOM     22  H   UNL     1      -1.031  -0.946  -2.110  0.00  0.00    +0.151 HD
ATOM     23  H   UNL     1      -2.454  -2.031  -3.609  0.00  0.00    +0.146 HD
ATOM     24  H   UNL     1      -3.855  -2.770  -3.052  0.00  0.00    +0.146 HD
ENDBRANCH  17  18
ENDBRANCH   6  17
TORSDOF 4
