REMARK  Name = ZINC26572206
REMARK  8 active torsions:
REMARK  status: ('A' for Active; 'I' for Inactive)
REMARK    1  A    between atoms: C_1  and  O_2
REMARK    2  A    between atoms: O_2  and  C_3
REMARK    3  A    between atoms: C_9  and  S_13
REMARK    4  A    between atoms: S_13  and  N_16
REMARK    5  A    between atoms: N_16  and  C_17
REMARK    6  A    between atoms: N_21  and  C_24
REMARK    7  A    between atoms: C_24  and  C_25
REMARK    8  A    between atoms: C_33  and  N_34
REMARK                            x       y       z     vdW  Elec       q    Type
REMARK                         _______ _______ _______ _____ _____    ______ ____
ROOT
ATOM      1  C   UNL     1      -0.550  -6.681   3.641  0.00  0.00    +0.164 C 
ATOM      2  C   UNL     1      -1.587  -6.436   4.762  0.00  0.00    +0.049 C 
ATOM      3  C   UNL     1      -2.127  -7.862   5.008  0.00  0.00    +0.110 C 
ATOM      4  N   UNL     1      -1.913  -8.585   3.750  0.00  0.00    -0.295 N 
ATOM      5  C   UNL     1      -1.026  -7.947   2.962  0.00  0.00    +0.235 C 
ATOM      6  O   UNL     1      -0.662  -8.327   1.869  0.00  0.00    -0.274 OA
ENDROOT
BRANCH   1   7
ATOM      7  N   UNL     1       0.785  -6.877   4.212  0.00  0.00    -0.178 NA
ATOM      8  H   UNL     1       0.885  -7.310   5.074  0.00  0.00    +0.149 HD
BRANCH   7   9
ATOM      9  S   UNL     1       2.123  -6.360   3.385  0.00  0.00    +0.059 S 
ATOM     10  O   UNL     1       1.992  -6.845   2.056  0.00  0.00    -0.153 OA
ATOM     11  O   UNL     1       3.247  -6.664   4.199  0.00  0.00    -0.153 OA
BRANCH   9  18
ATOM     12  C   UNL     1       0.626  -0.618   1.041  0.00  0.00    +0.121 A 
ATOM     13  C   UNL     1       1.203   0.154   2.054  0.00  0.00    +0.046 A 
ATOM     14  C   UNL     1       1.834  -0.431   3.106  0.00  0.00    +0.012 A 
ATOM     15  C   UNL     1       1.909  -1.833   3.183  0.00  0.00    -0.018 A 
ATOM     16  C   UNL     1       2.553  -2.471   4.256  0.00  0.00    +0.010 A 
ATOM     17  C   UNL     1       2.606  -3.830   4.299  0.00  0.00    +0.029 A 
ATOM     18  C   UNL     1       2.031  -4.603   3.291  0.00  0.00    +0.106 A 
ATOM     19  C   UNL     1       1.399  -4.020   2.236  0.00  0.00    +0.037 A 
ATOM     20  C   UNL     1       1.324  -2.618   2.158  0.00  0.00    -0.013 A 
ATOM     21  C   UNL     1       0.675  -1.982   1.087  0.00  0.00    +0.054 A 
BRANCH  12  23
ATOM     22  C   UNL     1      -0.017   1.425   0.010  0.00  0.00    +0.277 C 
ATOM     23  O   UNL     1       0.002  -0.004   0.002  0.00  0.00    -0.495 OA
ENDBRANCH  12  23
ENDBRANCH   9  18
ENDBRANCH   7   9
ENDBRANCH   1   7
BRANCH   4  24
ATOM     24  C   UNL     1      -2.579  -9.841   3.394  0.00  0.00    +0.150 C 
BRANCH  24  25
ATOM     25  C   UNL     1      -3.866  -9.539   2.671  0.00  0.00    +0.008 A 
ATOM     26  C   UNL     1      -4.063  -9.390   1.352  0.00  0.00    +0.024 A 
ATOM     27  C   UNL     1      -5.399  -9.100   0.861  0.00  0.00    +0.027 A 
ATOM     28  C   UNL     1      -6.388  -9.002   1.865  0.00  0.00    +0.024 A 
ATOM     29  S   UNL     1      -5.492  -9.303   3.364  0.00  0.00    -0.091 S 
ATOM     30  C   UNL     1      -7.705  -8.730   1.544  0.00  0.00    +0.033 A 
ATOM     31  C   UNL     1      -8.041  -8.556   0.228  0.00  0.00    +0.085 A 
ATOM     32  N   UNL     1      -7.120  -8.647  -0.719  0.00  0.00    -0.349 N 
ATOM     33  C   UNL     1      -5.852  -8.903  -0.471  0.00  0.00    +0.102 A 
ATOM     34  H   UNL     1      -7.392  -8.519  -1.641  0.00  0.00    +0.167 HD
BRANCH  33  35
ATOM     35  N   UNL     1      -4.949  -8.981  -1.522  0.00  0.00    -0.344 N 
ATOM     36  H   UNL     1      -4.014  -9.170  -1.345  0.00  0.00    +0.144 HD
ATOM     37  H   UNL     1      -5.253  -8.848  -2.433  0.00  0.00    +0.144 HD
ENDBRANCH  33  35
ENDBRANCH  24  25
ENDBRANCH   4  24
TORSDOF 7
