REMARK  Name = ZINC35701024
REMARK  10 active torsions:
REMARK  status: ('A' for Active; 'I' for Inactive)
REMARK    1  A    between atoms: C_1  and  C_2
REMARK    2  A    between atoms: C_5  and  C_8
REMARK    3  A    between atoms: C_14  and  C_16
REMARK    4  A    between atoms: C_16  and  C_17
REMARK    5  A    between atoms: C_17  and  N_18
REMARK    6  A    between atoms: N_18  and  C_19
REMARK    7  A    between atoms: C_19  and  C_21
REMARK    8  A    between atoms: C_19  and  C_22
REMARK    9  A    between atoms: C_28  and  C_30
REMARK   10  A    between atoms: C_31  and  C_32
REMARK                            x       y       z     vdW  Elec       q    Type
REMARK                         _______ _______ _______ _____ _____    ______ ____
ROOT
ATOM      1  N   UNL     1       0.271 -12.848  -0.389  0.00  0.00    -0.291 N 
ATOM      2  C   UNL     1       1.476 -13.335  -0.035  0.00  0.00    +0.240 C 
ATOM      3  O   UNL     1       2.484 -12.694  -0.270  0.00  0.00    -0.271 OA
ENDROOT
BRANCH   1   4
ATOM      4  C   UNL     1      -0.933 -13.660  -0.195  0.00  0.00    +0.103 C 
ATOM      5  C   UNL     1      -2.145 -12.921  -0.767  0.00  0.00    +0.033 C 
BRANCH   4   6
ATOM      6  C   UNL     1      -1.143 -13.904   1.277  0.00  0.00    -0.027 A 
ATOM      7  C   UNL     1      -0.994 -12.866   2.178  0.00  0.00    +0.005 A 
ATOM      8  C   UNL     1      -1.186 -13.089   3.529  0.00  0.00    +0.000 A 
ATOM      9  C   UNL     1      -1.529 -14.351   3.978  0.00  0.00    +0.000 A 
ATOM     10  C   UNL     1      -1.679 -15.389   3.077  0.00  0.00    +0.000 A 
ATOM     11  C   UNL     1      -1.491 -15.164   1.726  0.00  0.00    +0.005 A 
ENDBRANCH   4   6
ENDBRANCH   1   4
BRANCH   2  12
ATOM     12  C   UNL     1       1.574 -14.634   0.633  0.00  0.00    +0.068 C 
ATOM     13  C   UNL     1       2.766 -15.073   1.082  0.00  0.00    +0.013 C 
BRANCH  13  14
ATOM     14  C   UNL     1       2.864 -16.380   1.754  0.00  0.00    -0.025 A 
ATOM     15  C   UNL     1       1.723 -17.170   1.923  0.00  0.00    +0.008 A 
ATOM     16  C   UNL     1       1.823 -18.393   2.553  0.00  0.00    +0.001 A 
ATOM     17  C   UNL     1       3.049 -18.838   3.017  0.00  0.00    +0.000 A 
ATOM     18  C   UNL     1       4.182 -18.061   2.854  0.00  0.00    +0.001 A 
ATOM     19  C   UNL     1       4.100 -16.839   2.221  0.00  0.00    +0.008 A 
ENDBRANCH  13  14
ENDBRANCH   2  12
BRANCH   1  20
ATOM     20  C   UNL     1       0.164 -11.506  -0.967  0.00  0.00    +0.118 C 
BRANCH  20  21
ATOM     21  C   UNL     1       0.086 -10.470   0.157  0.00  0.00    +0.115 C 
BRANCH  21  28
ATOM     22  C   UNL     1       0.096  -4.216  -0.851  0.00  0.00    +0.134 A 
ATOM     23  N   UNL     1       0.160  -5.153  -1.789  0.00  0.00    -0.140 NA
ATOM     24  N   UNL     1       0.149  -6.367  -1.440  0.00  0.00    -0.125 NA
ATOM     25  C   UNL     1       0.076  -6.729  -0.173  0.00  0.00    +0.188 A 
ATOM     26  S   UNL     1       0.022  -5.238   0.613  0.00  0.00    -0.030 S 
ATOM     27  N   UNL     1       0.053  -8.007   0.372  0.00  0.00    -0.263 N 
ATOM     28  C   UNL     1       0.111  -9.085  -0.434  0.00  0.00    +0.220 C 
ATOM     29  O   UNL     1       0.183  -8.939  -1.636  0.00  0.00    -0.275 OA
ATOM     30  H   UNL     1      -0.005  -8.123   1.334  0.00  0.00    +0.157 HD
BRANCH  22  35
ATOM     31  C   UNL     1       0.080   1.516  -1.354  0.00  0.00    +0.044 C 
ATOM     32  C   UNL     1       0.084   0.015  -1.222  0.00  0.00    -0.050 A 
ATOM     33  C   UNL     1       0.153  -0.775  -2.356  0.00  0.00    +0.004 A 
ATOM     34  C   UNL     1       0.157  -2.150  -2.242  0.00  0.00    +0.011 A 
ATOM     35  C   UNL     1       0.092  -2.743  -0.980  0.00  0.00    +0.009 A 
ATOM     36  C   UNL     1       0.022  -1.940   0.159  0.00  0.00    +0.011 A 
ATOM     37  C   UNL     1       0.024  -0.566   0.032  0.00  0.00    +0.004 A 
ENDBRANCH  22  35
ENDBRANCH  21  28
ENDBRANCH  20  21
ENDBRANCH   1  20
TORSDOF 8
