REMARK  Name = ZINC09915639
REMARK  12 active torsions:
REMARK  status: ('A' for Active; 'I' for Inactive)
REMARK    1  A    between atoms: C_1  and  C_2
REMARK    2  A    between atoms: C_2  and  C_27
REMARK    3  A    between atoms: C_3  and  C_25
REMARK    4  A    between atoms: C_3  and  O_26
REMARK    5  A    between atoms: C_4  and  C_23
REMARK    6  A    between atoms: C_4  and  O_24
REMARK    7  A    between atoms: C_5  and  C_21
REMARK    8  A    between atoms: C_5  and  O_22
REMARK    9  A    between atoms: C_6  and  C_8
REMARK   10  A    between atoms: C_6  and  O_9
REMARK   11  A    between atoms: O_9  and  C_10
REMARK   12  A    between atoms: C_27  and  O_28
REMARK                            x       y       z     vdW  Elec       q    Type
REMARK                         _______ _______ _______ _____ _____    ______ ____
ROOT
ATOM      1  C   UNL     1       0.014   1.182  -0.134  0.00  0.00    +0.047 C 
ATOM      2  C   UNL     1      -0.719   1.604   1.145  0.00  0.00    +0.125 C 
ATOM      3  C   UNL     1       0.010   1.047   2.364  0.00  0.00    +0.125 C 
ATOM      4  C   UNL     1       1.194   1.907   2.779  0.00  0.00    +0.129 C 
ATOM      5  C   UNL     1       0.840   3.384   2.879  0.00  0.00    +0.159 C 
ATOM      6  C   UNL     1       0.087   3.889   1.654  0.00  0.00    +0.242 C 
ATOM      7  O   UNL     1      -0.898   2.998   1.195  0.00  0.00    -0.326 OA
ATOM      8  C   UNL     1       1.082   4.243   0.542  0.00  0.00    +0.092 C 
ATOM      9  C   UNL     1       0.005   3.647   4.138  0.00  0.00    +0.051 C 
ATOM     10  C   UNL     1       1.679   1.430   4.163  0.00  0.00    +0.047 C 
ATOM     11  C   UNL     1       0.526  -0.363   2.018  0.00  0.00    +0.047 C 
ENDROOT
BRANCH   5  12
ATOM     12  O   UNL     1       2.062   4.138   2.999  0.00  0.00    -0.379 OA
ATOM     13  H   UNL     1       1.930   5.093   3.068  0.00  0.00    +0.211 HD
ENDBRANCH   5  12
BRANCH   4  14
ATOM     14  O   UNL     1       2.277   1.727   1.857  0.00  0.00    -0.383 OA
ATOM     15  H   UNL     1       3.063   2.249   2.067  0.00  0.00    +0.210 HD
ENDBRANCH   4  14
BRANCH   3  16
ATOM     16  O   UNL     1      -0.914   0.918   3.451  0.00  0.00    -0.383 OA
ATOM     17  H   UNL     1      -1.658   0.328   3.268  0.00  0.00    +0.210 HD
ENDBRANCH   3  16
BRANCH   6  18
ATOM     18  O   UNL     1      -0.572   5.121   2.032  0.00  0.00    -0.458 OA
BRANCH  18  19
ATOM     19  C   UNL     1      -1.354   5.715   1.093  0.00  0.00    +0.125 A 
ATOM     20  C   UNL     1      -1.565   5.078  -0.134  0.00  0.00    +0.046 A 
ATOM     21  C   UNL     1      -2.342   5.648  -1.093  0.00  0.00    +0.012 A 
ATOM     22  C   UNL     1      -2.945   6.896  -0.852  0.00  0.00    -0.017 A 
ATOM     23  C   UNL     1      -3.754   7.512  -1.821  0.00  0.00    +0.023 A 
ATOM     24  C   UNL     1      -4.323   8.721  -1.554  0.00  0.00    +0.018 A 
ATOM     25  C   UNL     1      -4.114   9.358  -0.331  0.00  0.00    +0.016 A 
ATOM     26  C   UNL     1      -3.337   8.790   0.630  0.00  0.00    +0.010 A 
ATOM     27  C   UNL     1      -2.733   7.543   0.391  0.00  0.00    -0.014 A 
ATOM     28  C   UNL     1      -1.929   6.925   1.362  0.00  0.00    +0.054 A 
ATOM     29 BR   UNL     1      -5.412   9.547  -2.861  0.00  0.00    -0.050 Br
ENDBRANCH  18  19
ENDBRANCH   6  18
BRANCH   2  30
ATOM     30  C   UNL     1      -2.118   0.945   1.102  0.00  0.00    +0.193 C 
BRANCH  30  31
ATOM     31  O   UNL     1      -2.777   1.305  -0.114  0.00  0.00    -0.392 OA
ATOM     32  H   UNL     1      -3.662   0.927  -0.209  0.00  0.00    +0.210 HD
ENDBRANCH  30  31
ENDBRANCH   2  30
TORSDOF 7
