REMARK  Name = ZINC35929689
REMARK  6 active torsions:
REMARK  status: ('A' for Active; 'I' for Inactive)
REMARK    1  A    between atoms: C_1  and  C_2
REMARK    2  A    between atoms: C_2  and  C_3
REMARK    3  A    between atoms: C_2  and  N_4
REMARK    4  A    between atoms: C_12  and  C_26
REMARK    5  A    between atoms: C_14  and  N_25
REMARK    6  A    between atoms: N_15  and  C_19
REMARK                            x       y       z     vdW  Elec       q    Type
REMARK                         _______ _______ _______ _____ _____    ______ ____
ROOT
ATOM      1  N   UNL     1      -1.122  -0.572  -0.337  0.00  0.00    +0.383 N 
ATOM      2  C   UNL     1      -1.944  -0.101  -1.459  0.00  0.00    -0.059 C 
ATOM      3  C   UNL     1      -3.417  -0.417  -1.179  0.00  0.00    +0.089 C 
ATOM      4  N   UNL     1      -3.540  -1.856  -0.898  0.00  0.00    -0.303 N 
ATOM      5  C   UNL     1      -2.637  -2.447   0.101  0.00  0.00    +0.089 C 
ATOM      6  C   UNL     1      -1.201  -2.035  -0.238  0.00  0.00    -0.059 C 
ATOM      7  C   UNL     1      -4.479  -2.631  -1.555  0.00  0.00    +0.220 A 
ATOM      8  N   UNL     1      -4.547  -3.924  -1.255  0.00  0.00    -0.213 NA
ATOM      9  C   UNL     1      -5.418  -4.739  -1.836  0.00  0.00    +0.090 A 
ATOM     10  C   UNL     1      -6.296  -4.200  -2.804  0.00  0.00    +0.086 A 
ATOM     11  C   UNL     1      -7.312  -4.695  -3.611  0.00  0.00    +0.131 A 
ATOM     12  N   UNL     1      -7.787  -3.667  -4.342  0.00  0.00    -0.216 N 
ATOM     13  N   UNL     1      -7.091  -2.496  -4.024  0.00  0.00    -0.144 NA
ATOM     14  C   UNL     1      -6.187  -2.761  -3.107  0.00  0.00    +0.189 A 
ATOM     15  N   UNL     1      -5.261  -2.046  -2.439  0.00  0.00    -0.193 NA
ATOM     16  H   UNL     1      -1.459  -0.160   0.520  0.00  0.00    -0.081 HD
ENDROOT
BRANCH   9  17
ATOM     17  C   UNL     1      -5.469  -6.175  -1.481  0.00  0.00    +0.020 A 
ATOM     18  C   UNL     1      -5.259  -7.147  -2.460  0.00  0.00    +0.011 A 
ATOM     19  C   UNL     1      -5.308  -8.483  -2.122  0.00  0.00    +0.001 A 
ATOM     20  C   UNL     1      -5.565  -8.862  -0.816  0.00  0.00    +0.001 A 
ATOM     21  C   UNL     1      -5.775  -7.905   0.159  0.00  0.00    +0.020 A 
ATOM     22  C   UNL     1      -5.722  -6.562  -0.164  0.00  0.00    +0.050 A 
ATOM     23 CL   UNL     1      -5.978  -5.361   1.063  0.00  0.00    -0.083 Cl
ENDBRANCH   9  17
BRANCH  12  24
ATOM     24  C   UNL     1      -8.822  -3.758  -5.280  0.00  0.00    +0.067 A 
ATOM     25  C   UNL     1      -8.966  -4.907  -6.048  0.00  0.00    +0.028 A 
ATOM     26  C   UNL     1      -9.988  -4.993  -6.973  0.00  0.00    +0.002 A 
ATOM     27  C   UNL     1     -10.867  -3.938  -7.135  0.00  0.00    +0.000 A 
ATOM     28  C   UNL     1     -10.726  -2.792  -6.373  0.00  0.00    +0.002 A 
ATOM     29  C   UNL     1      -9.710  -2.702  -5.442  0.00  0.00    +0.028 A 
ENDBRANCH  12  24
BRANCH   1  31
ATOM     30  C   UNL     1       0.359   1.352  -0.656  0.00  0.00    -0.014 C 
ATOM     31  C   UNL     1       0.275  -0.172  -0.553  0.00  0.00    -0.075 C 
ATOM     32  C   UNL     1       1.131  -0.652   0.621  0.00  0.00    -0.014 C 
ENDBRANCH   1  31
BRANCH  11  33
ATOM     33  N   UNL     1      -7.756  -6.004  -3.657  0.00  0.00    -0.342 N 
ATOM     34  H   UNL     1      -7.281  -6.694  -3.168  0.00  0.00    +0.144 HD
ATOM     35  H   UNL     1      -8.542  -6.231  -4.177  0.00  0.00    +0.144 HD
ENDBRANCH  11  33
TORSDOF 4
