REMARK  Name = ZINC37147518
REMARK  5 active torsions:
REMARK  status: ('A' for Active; 'I' for Inactive)
REMARK    1  A    between atoms: C_1  and  C_2
REMARK    2  A    between atoms: C_2  and  N_3
REMARK    3  A    between atoms: N_6  and  C_11
REMARK    4  A    between atoms: C_14  and  C_22
REMARK    5  A    between atoms: C_18  and  C_20
REMARK                            x       y       z     vdW  Elec       q    Type
REMARK                         _______ _______ _______ _____ _____    ______ ____
ROOT
ATOM      1  N   UNL     1      -1.707   0.362  -0.305  0.00  0.00    -0.293 N 
ATOM      2  C   UNL     1      -2.499   0.009  -1.483  0.00  0.00    +0.127 C 
ATOM      3  C   UNL     1      -3.373  -1.208  -1.195  0.00  0.00    +0.127 C 
ATOM      4  N   UNL     1      -4.146  -1.008   0.031  0.00  0.00    -0.288 N 
ATOM      5  C   UNL     1      -3.594  -0.367   1.082  0.00  0.00    +0.302 C 
ATOM      6  O   UNL     1      -4.188  -0.293   2.137  0.00  0.00    -0.265 OA
ATOM      7  C   UNL     1      -2.237   0.244   0.929  0.00  0.00    +0.302 C 
ATOM      8  O   UNL     1      -1.624   0.631   1.902  0.00  0.00    -0.265 OA
ENDROOT
BRANCH   4   9
ATOM      9  C   UNL     1      -5.521  -1.503   0.118  0.00  0.00    +0.094 C 
ATOM     10  C   UNL     1      -5.559  -2.978  -0.289  0.00  0.00    +0.027 C 
ATOM     11  C   UNL     1      -6.996  -3.495  -0.199  0.00  0.00    -0.012 C 
ATOM     12  C   UNL     1      -7.890  -2.684  -1.139  0.00  0.00    +0.004 C 
ATOM     13  C   UNL     1      -7.853  -1.210  -0.732  0.00  0.00    +0.020 C 
ATOM     14  C   UNL     1      -6.416  -0.692  -0.822  0.00  0.00    +0.112 C 
ATOM     15  C   UNL     1      -7.034  -4.970  -0.605  0.00  0.00    +0.007 C 
BRANCH  14  16
ATOM     16  C   UNL     1      -5.929  -0.833  -2.205  0.00  0.00    +0.068 C 
ATOM     17  N   UNL     1      -5.554  -0.941  -3.271  0.00  0.00    -0.196 NA
ENDBRANCH  14  16
ENDBRANCH   4   9
BRANCH   1  19
ATOM     18  C   UNL     1       0.628  -0.351  -0.446  0.00  0.00    +0.024 C 
ATOM     19  C   UNL     1      -0.332   0.841  -0.466  0.00  0.00    +0.105 C 
ENDBRANCH   1  19
TORSDOF 3
