REMARK  Name = ZINC13024786
REMARK  12 active torsions:
REMARK  status: ('A' for Active; 'I' for Inactive)
REMARK    1  A    between atoms: C_1  and  C_2
REMARK    2  A    between atoms: C_2  and  C_3
REMARK    3  A    between atoms: C_3  and  C_4
REMARK    4  A    between atoms: C_3  and  C_5
REMARK    5  A    between atoms: C_3  and  N_6
REMARK    6  A    between atoms: C_7  and  C_9
REMARK    7  A    between atoms: C_9  and  C_11
REMARK    8  A    between atoms: C_9  and  N_18
REMARK    9  A    between atoms: C_14  and  C_17
REMARK   10  A    between atoms: N_18  and  C_19
REMARK   11  A    between atoms: C_28  and  C_30
REMARK   12  A    between atoms: C_30  and  N_31
REMARK                            x       y       z     vdW  Elec       q    Type
REMARK                         _______ _______ _______ _____ _____    ______ ____
ROOT
ATOM      1  N   UNL     1      -5.205   3.304  -1.876  0.00  0.00    -0.254 N 
ATOM      2  C   UNL     1      -4.541   4.399  -1.456  0.00  0.00    +0.242 C 
ATOM      3  O   UNL     1      -4.647   5.443  -2.064  0.00  0.00    -0.273 OA
ENDROOT
BRANCH   1   4
ATOM      4  C   UNL     1      -5.167   2.127  -1.117  0.00  0.00    +0.041 A 
ATOM      5  C   UNL     1      -4.479   1.018  -1.591  0.00  0.00    +0.027 A 
ATOM      6  C   UNL     1      -4.440  -0.144  -0.844  0.00  0.00    +0.051 A 
ATOM      7  C   UNL     1      -5.087  -0.205   0.380  0.00  0.00    +0.166 A 
ATOM      8  C   UNL     1      -5.777   0.906   0.858  0.00  0.00    +0.168 A 
ATOM      9  C   UNL     1      -5.811   2.072   0.111  0.00  0.00    +0.073 A 
ATOM     10  O   UNL     1      -6.321   0.594   2.071  0.00  0.00    -0.453 OA
ATOM     11  C   UNL     1      -5.616  -0.580   2.517  0.00  0.00    +0.466 C 
ATOM     12  O   UNL     1      -5.198  -1.214   1.294  0.00  0.00    -0.453 OA
ENDBRANCH   1   4
BRANCH   1  13
ATOM     13  C   UNL     1      -5.968   3.345  -3.126  0.00  0.00    +0.197 C 
BRANCH  13  14
ATOM     14  C   UNL     1      -6.489   1.967  -3.442  0.00  0.00    -0.018 A 
ATOM     15  C   UNL     1      -7.300   1.310  -2.535  0.00  0.00    +0.006 A 
ATOM     16  C   UNL     1      -7.782   0.048  -2.827  0.00  0.00    +0.004 A 
ATOM     17  C   UNL     1      -7.445  -0.562  -4.021  0.00  0.00    -0.050 A 
ATOM     18  C   UNL     1      -6.630   0.092  -4.925  0.00  0.00    +0.004 A 
ATOM     19  C   UNL     1      -6.152   1.357  -4.636  0.00  0.00    +0.006 A 
ATOM     20  C   UNL     1      -7.965  -1.941  -4.336  0.00  0.00    +0.044 C 
ENDBRANCH  13  14
BRANCH  13  22
ATOM     21  N   UNL     1      -7.971   4.498  -4.008  0.00  0.00    -0.308 N 
ATOM     22  C   UNL     1      -7.126   4.298  -2.978  0.00  0.00    +0.239 C 
ATOM     23  O   UNL     1      -7.297   4.886  -1.930  0.00  0.00    -0.273 OA
ATOM     24  H   UNL     1      -7.834   4.028  -4.846  0.00  0.00    +0.149 HD
BRANCH  21  25
ATOM     25  C   UNL     1      -9.097   5.424  -3.864  0.00  0.00    +0.029 C 
ATOM     26  C   UNL     1     -10.005   4.950  -2.728  0.00  0.00    +0.031 C 
ATOM     27  C   UNL     1      -8.567   6.824  -3.543  0.00  0.00    +0.031 C 
BRANCH  25  29
ATOM     28  C   UNL     1     -11.068   6.435  -5.019  0.00  0.00    +0.006 C 
ATOM     29  C   UNL     1      -9.893   5.467  -5.170  0.00  0.00    +0.022 C 
ENDBRANCH  25  29
ENDBRANCH  21  25
ENDBRANCH  13  22
ENDBRANCH   1  13
BRANCH   2  30
ATOM     30  C   UNL     1      -3.667   4.326  -0.231  0.00  0.00    +0.242 C 
BRANCH  30  31
ATOM     31  N   UNL     1      -2.961   5.598  -0.057  0.00  0.00    -0.235 N 
ATOM     32  C   UNL     1      -1.734   5.936  -0.577  0.00  0.00    +0.090 A 
ATOM     33  C   UNL     1      -0.808   5.274  -1.375  0.00  0.00    +0.029 A 
ATOM     34  C   UNL     1       0.355   5.899  -1.727  0.00  0.00    +0.002 A 
ATOM     35  C   UNL     1       0.617   7.195  -1.303  0.00  0.00    +0.002 A 
ATOM     36  C   UNL     1      -0.277   7.868  -0.523  0.00  0.00    +0.032 A 
ATOM     37  C   UNL     1      -1.475   7.248  -0.143  0.00  0.00    +0.113 A 
ATOM     38  N   UNL     1      -2.525   7.647   0.602  0.00  0.00    -0.129 NA
ATOM     39  N   UNL     1      -3.405   6.712   0.671  0.00  0.00    -0.064 NA
ENDBRANCH  30  31
ENDBRANCH   2  30
TORSDOF 8
