REMARK  Name = ZINC37348352
REMARK  6 active torsions:
REMARK  status: ('A' for Active; 'I' for Inactive)
REMARK    1  A    between atoms: C_3  and  C_8
REMARK    2  A    between atoms: C_9  and  C_15
REMARK    3  A    between atoms: C_13  and  N_14
REMARK    4  A    between atoms: C_15  and  C_16
REMARK    5  A    between atoms: C_16  and  C_17
REMARK    6  A    between atoms: C_17  and  C_18
REMARK                            x       y       z     vdW  Elec       q    Type
REMARK                         _______ _______ _______ _____ _____    ______ ____
ROOT
ATOM      1  C   UNL     1       3.659   2.165  -0.022  0.00  0.00    +0.044 A 
ATOM      2  C   UNL     1       4.610   2.189  -1.061  0.00  0.00    +0.072 A 
ATOM      3  N   UNL     1       5.594   2.967  -0.698  0.00  0.00    -0.177 NA
ATOM      4  N   UNL     1       5.326   3.474   0.578  0.00  0.00    -0.264 N 
ATOM      5  H   UNL     1       5.895   4.078   1.081  0.00  0.00    +0.190 HD
ATOM      6  C   UNL     1       4.134   2.985   0.988  0.00  0.00    +0.120 A 
ENDROOT
BRANCH   1   9
ATOM      7  C   UNL     1      -0.017   1.379   0.010  0.00  0.00    +0.002 A 
ATOM      8  C   UNL     1       1.167   2.088   0.002  0.00  0.00    +0.009 A 
ATOM      9  C   UNL     1       2.384   1.408  -0.013  0.00  0.00    -0.011 A 
ATOM     10  C   UNL     1       2.398   0.014  -0.021  0.00  0.00    +0.028 A 
ATOM     11  C   UNL     1       1.208  -0.685  -0.013  0.00  0.00    +0.042 A 
ATOM     12  C   UNL     1       0.002  -0.004   0.002  0.00  0.00    +0.020 A 
ATOM     13 CL   UNL     1       1.222  -2.421  -0.022  0.00  0.00    -0.084 Cl
ENDBRANCH   1   9
BRANCH   6  14
ATOM     14  N   UNL     1       3.506   3.251   2.196  0.00  0.00    -0.343 N 
ATOM     15  H   UNL     1       2.648   2.846   2.397  0.00  0.00    +0.144 HD
ATOM     16  H   UNL     1       3.925   3.843   2.841  0.00  0.00    +0.144 HD
ENDBRANCH   6  14
BRANCH   2  17
ATOM     17  C   UNL     1       4.508   1.445  -2.367  0.00  0.00    +0.058 C 
BRANCH  17  18
ATOM     18  C   UNL     1       3.799   2.322  -3.401  0.00  0.00    +0.011 C 
BRANCH  18  19
ATOM     19  C   UNL     1       3.696   1.566  -4.727  0.00  0.00    +0.043 C 
BRANCH  19  20
ATOM     20  C   UNL     1       2.997   2.430  -5.745  0.00  0.00    -0.010 A 
ATOM     21  C   UNL     1       3.530   3.313  -6.624  0.00  0.00    +0.011 A 
ATOM     22  C   UNL     1       2.686   4.003  -7.475  0.00  0.00    +0.008 A 
ATOM     23  C   UNL     1       1.352   3.776  -7.405  0.00  0.00    +0.045 A 
ATOM     24  S   UNL     1       1.254   2.549  -6.111  0.00  0.00    -0.102 S 
ENDBRANCH  19  20
ENDBRANCH  18  19
ENDBRANCH  17  18
ENDBRANCH   2  17
TORSDOF 6
