REMARK  Name = ZINC36307490
REMARK  13 active torsions:
REMARK  status: ('A' for Active; 'I' for Inactive)
REMARK    1  A    between atoms: C_1  and  N_2
REMARK    2  A    between atoms: C_3  and  O_32
REMARK    3  A    between atoms: C_4  and  C_13
REMARK    4  A    between atoms: C_5  and  C_7
REMARK    5  A    between atoms: C_13  and  N_14
REMARK    6  A    between atoms: N_14  and  C_15
REMARK    7  A    between atoms: N_14  and  C_21
REMARK    8  A    between atoms: C_15  and  C_16
REMARK    9  A    between atoms: C_21  and  C_22
REMARK   10  A    between atoms: C_22  and  C_24
REMARK   11  A    between atoms: C_22  and  O_31
REMARK   12  A    between atoms: C_24  and  C_25
REMARK   13  A    between atoms: O_32  and  C_33
REMARK                            x       y       z     vdW  Elec       q    Type
REMARK                         _______ _______ _______ _____ _____    ______ ____
ROOT
ATOM      1  C   UNL     1       0.714   1.211   0.845  0.00  0.00    +0.176 C 
ATOM      2  N   UNL     1       0.206  -0.148   0.641  0.00  0.00    -0.235 N 
ATOM      3  C   UNL     1       0.302  -0.872  -0.504  0.00  0.00    +0.221 A 
ATOM      4  C   UNL     1      -0.289  -2.074  -0.284  0.00  0.00    +0.025 A 
ATOM      5  C   UNL     1      -0.763  -2.085   1.041  0.00  0.00    +0.098 A 
ATOM      6  N   UNL     1      -0.459  -0.930   1.594  0.00  0.00    -0.168 NA
ENDROOT
BRANCH   5   7
ATOM      7  C   UNL     1      -1.475  -3.207   1.702  0.00  0.00    +0.002 A 
ATOM      8  C   UNL     1      -2.477  -3.896   1.023  0.00  0.00    +0.010 A 
ATOM      9  C   UNL     1      -3.136  -4.939   1.642  0.00  0.00    +0.001 A 
ATOM     10  C   UNL     1      -2.804  -5.299   2.936  0.00  0.00    +0.000 A 
ATOM     11  C   UNL     1      -1.811  -4.617   3.615  0.00  0.00    +0.001 A 
ATOM     12  C   UNL     1      -1.141  -3.577   3.003  0.00  0.00    +0.010 A 
ENDBRANCH   5   7
BRANCH   4  13
ATOM     13  C   UNL     1      -0.416  -3.197  -1.282  0.00  0.00    -0.035 C 
BRANCH  13  14
ATOM     14  N   UNL     1       0.827  -3.980  -1.298  0.00  0.00    +0.389 N 
ATOM     15  H   UNL     1       1.604  -3.373  -1.511  0.00  0.00    -0.081 HD
BRANCH  14  16
ATOM     16  C   UNL     1       0.731  -5.030  -2.321  0.00  0.00    -0.003 C 
BRANCH  16  17
ATOM     17  C   UNL     1       0.517  -4.396  -3.672  0.00  0.00    +0.089 A 
ATOM     18  C   UNL     1       1.481  -4.091  -4.559  0.00  0.00    +0.042 A 
ATOM     19  C   UNL     1       0.840  -3.518  -5.681  0.00  0.00    +0.041 A 
ATOM     20  C   UNL     1      -0.479  -3.509  -5.413  0.00  0.00    +0.195 A 
ATOM     21  O   UNL     1      -0.668  -4.047  -4.197  0.00  0.00    -0.470 OA
ENDBRANCH  16  17
ENDBRANCH  14  16
BRANCH  14  22
ATOM     22  C   UNL     1       1.034  -4.597   0.018  0.00  0.00    -0.046 C 
BRANCH  22  23
ATOM     23  C   UNL     1       2.425  -5.232   0.071  0.00  0.00    +0.102 C 
BRANCH  23  24
ATOM     24  O   UNL     1       2.462  -6.369  -0.795  0.00  0.00    -0.393 OA
ATOM     25  H   UNL     1       1.825  -7.059  -0.565  0.00  0.00    +0.210 HD
ENDBRANCH  23  24
BRANCH  23  26
ATOM     26  C   UNL     1       2.732  -5.672   1.504  0.00  0.00    +0.064 C 
BRANCH  26  27
ATOM     27  C   UNL     1       4.147  -6.185   1.580  0.00  0.00    -0.045 A 
ATOM     28  C   UNL     1       4.410  -7.523   1.353  0.00  0.00    +0.004 A 
ATOM     29  C   UNL     1       5.708  -7.993   1.423  0.00  0.00    +0.000 A 
ATOM     30  C   UNL     1       6.743  -7.126   1.720  0.00  0.00    +0.000 A 
ATOM     31  C   UNL     1       6.479  -5.788   1.945  0.00  0.00    +0.000 A 
ATOM     32  C   UNL     1       5.182  -5.316   1.871  0.00  0.00    +0.004 A 
ENDBRANCH  26  27
ENDBRANCH  23  26
ENDBRANCH  22  23
ENDBRANCH  14  22
ENDBRANCH  13  14
ENDBRANCH   4  13
BRANCH   3  33
ATOM     33  O   UNL     1       0.884  -0.466  -1.661  0.00  0.00    -0.438 OA
BRANCH  33  34
ATOM     34  C   UNL     1       0.129   0.244  -2.541  0.00  0.00    +0.131 A 
ATOM     35  C   UNL     1      -1.160   0.628  -2.198  0.00  0.00    +0.049 A 
ATOM     36  C   UNL     1      -1.926   1.349  -3.092  0.00  0.00    +0.042 A 
ATOM     37  C   UNL     1      -1.408   1.690  -4.331  0.00  0.00    +0.124 A 
ATOM     38  C   UNL     1      -0.122   1.308  -4.675  0.00  0.00    +0.042 A 
ATOM     39  C   UNL     1       0.648   0.591  -3.780  0.00  0.00    +0.049 A 
ATOM     40  F   UNL     1      -2.159   2.396  -5.205  0.00  0.00    -0.205 F 
ENDBRANCH  33  34
ENDBRANCH   3  33
TORSDOF 12
