REMARK  Name = ZINC45834914
REMARK  10 active torsions:
REMARK  status: ('A' for Active; 'I' for Inactive)
REMARK    1  A    between atoms: C_1  and  C_2
REMARK    2  A    between atoms: C_2  and  C_3
REMARK    3  A    between atoms: C_3  and  C_4
REMARK    4  A    between atoms: C_4  and  C_5
REMARK    5  A    between atoms: C_8  and  C_11
REMARK    6  A    between atoms: C_11  and  C_12
REMARK    7  A    between atoms: N_14  and  C_15
REMARK    8  A    between atoms: C_15  and  C_17
REMARK    9  A    between atoms: C_15  and  C_18
REMARK   10  A    between atoms: C_21  and  N_24
REMARK                            x       y       z     vdW  Elec       q    Type
REMARK                         _______ _______ _______ _____ _____    ______ ____
ROOT
ATOM      1  C   UNL     1       4.155  -2.823  -6.777  0.00  0.00    +0.218 C 
ATOM      2  O   UNL     1       3.791  -1.732  -6.391  0.00  0.00    -0.275 OA
ATOM      3  N   UNL     1       4.783  -2.942  -7.963  0.00  0.00    -0.308 N 
ATOM      4  H   UNL     1       5.075  -3.815  -8.272  0.00  0.00    +0.149 HD
ENDROOT
BRANCH   3   5
ATOM      5  C   UNL     1       5.026  -1.755  -8.787  0.00  0.00    +0.100 C 
ATOM      6  C   UNL     1       6.322  -1.078  -8.335  0.00  0.00    +0.033 C 
BRANCH   5   7
ATOM      7  C   UNL     1       5.150  -2.163 -10.232  0.00  0.00    -0.027 A 
ATOM      8  C   UNL     1       5.827  -3.321 -10.567  0.00  0.00    +0.007 A 
ATOM      9  C   UNL     1       5.942  -3.698 -11.890  0.00  0.00    +0.023 A 
ATOM     10  C   UNL     1       5.377  -2.911 -12.886  0.00  0.00    +0.035 A 
ATOM     11  C   UNL     1       4.699  -1.748 -12.547  0.00  0.00    +0.023 A 
ATOM     12  C   UNL     1       4.582  -1.380 -11.221  0.00  0.00    +0.007 A 
BRANCH  10  13
ATOM     13  N   UNL     1       5.493  -3.289 -14.229  0.00  0.00    -0.270 N 
ATOM     14  C   UNL     1       5.508  -4.595 -14.562  0.00  0.00    +0.301 C 
ATOM     15  O   UNL     1       5.324  -5.442 -13.709  0.00  0.00    -0.253 OA
ATOM     16  N   UNL     1       5.726  -4.962 -15.840  0.00  0.00    -0.313 N 
ATOM     17  H   UNL     1       5.562  -2.612 -14.919  0.00  0.00    +0.156 HD
ATOM     18  H   UNL     1       5.872  -4.286 -16.520  0.00  0.00    +0.146 HD
ATOM     19  H   UNL     1       5.737  -5.902 -16.080  0.00  0.00    +0.146 HD
ENDBRANCH  10  13
ENDBRANCH   5   7
ENDBRANCH   3   5
BRANCH   1  20
ATOM     20  C   UNL     1       3.905  -4.044  -5.930  0.00  0.00    +0.130 C 
BRANCH  20  24
ATOM     21  C   UNL     1       1.887  -2.904  -2.342  0.00  0.00    -0.047 A 
ATOM     22  C   UNL     1       1.159  -3.248  -3.466  0.00  0.00    +0.004 A 
ATOM     23  C   UNL     1       1.812  -3.616  -4.627  0.00  0.00    +0.004 A 
ATOM     24  C   UNL     1       3.193  -3.641  -4.665  0.00  0.00    -0.039 A 
ATOM     25  C   UNL     1       3.922  -3.297  -3.542  0.00  0.00    +0.004 A 
ATOM     26  C   UNL     1       3.269  -2.924  -2.382  0.00  0.00    +0.004 A 
BRANCH  21  27
ATOM     27  C   UNL     1       1.176  -2.502  -1.076  0.00  0.00    +0.035 C 
BRANCH  27  28
ATOM     28  C   UNL     1       0.942  -0.990  -1.081  0.00  0.00    +0.004 C 
BRANCH  28  30
ATOM     29  C   UNL     1      -0.015   0.931   0.200  0.00  0.00    +0.004 C 
ATOM     30  C   UNL     1       0.219  -0.581   0.204  0.00  0.00    -0.003 C 
ENDBRANCH  28  30
ENDBRANCH  27  28
ENDBRANCH  21  27
ENDBRANCH  20  24
ENDBRANCH   1  20
TORSDOF 8
