REMARK  Name = ZINC66908540
REMARK  9 active torsions:
REMARK  status: ('A' for Active; 'I' for Inactive)
REMARK    1  A    between atoms: C_1  and  C_2
REMARK    2  A    between atoms: C_2  and  C_4
REMARK    3  A    between atoms: C_2  and  N_13
REMARK    4  A    between atoms: C_4  and  C_5
REMARK    5  A    between atoms: C_5  and  C_6
REMARK    6  A    between atoms: C_9  and  O_12
REMARK    7  A    between atoms: N_16  and  C_17
REMARK    8  A    between atoms: C_17  and  C_18
REMARK    9  A    between atoms: C_18  and  O_28
REMARK                            x       y       z     vdW  Elec       q    Type
REMARK                         _______ _______ _______ _____ _____    ______ ____
ROOT
ATOM      1  N   UNL     1       0.822  -0.127   1.311  0.00  0.00    -0.297 N 
ATOM      2  C   UNL     1       0.118  -0.432   2.419  0.00  0.00    +0.300 C 
ATOM      3  O   UNL     1      -1.088  -0.281   2.434  0.00  0.00    -0.253 OA
ATOM      4  N   UNL     1       0.751  -0.905   3.511  0.00  0.00    -0.296 N 
ATOM      5  H   UNL     1       1.785  -0.247   1.300  0.00  0.00    +0.151 HD
ATOM      6  H   UNL     1       1.714  -1.025   3.499  0.00  0.00    +0.150 HD
ENDROOT
BRANCH   1   8
ATOM      7  C   UNL     1      -0.042   1.902   0.253  0.00  0.00    +0.028 C 
ATOM      8  C   UNL     1       0.134   0.387   0.124  0.00  0.00    +0.072 C 
BRANCH   8   9
ATOM      9  C   UNL     1       0.964   0.074  -1.122  0.00  0.00    +0.026 C 
BRANCH   9  10
ATOM     10  C   UNL     1       1.034  -1.442  -1.320  0.00  0.00    +0.037 C 
BRANCH  10  11
ATOM     11  C   UNL     1       1.852  -1.751  -2.548  0.00  0.00    -0.047 A 
ATOM     12  C   UNL     1       1.235  -1.845  -3.781  0.00  0.00    +0.007 A 
ATOM     13  C   UNL     1       1.982  -2.129  -4.908  0.00  0.00    +0.045 A 
ATOM     14  C   UNL     1       3.352  -2.318  -4.802  0.00  0.00    +0.117 A 
ATOM     15  C   UNL     1       3.969  -2.222  -3.562  0.00  0.00    +0.045 A 
ATOM     16  C   UNL     1       3.218  -1.933  -2.439  0.00  0.00    +0.007 A 
BRANCH  14  17
ATOM     17  O   UNL     1       4.089  -2.598  -5.909  0.00  0.00    -0.507 OA
ATOM     18  H   UNL     1       4.432  -1.815  -6.361  0.00  0.00    +0.292 HD
ENDBRANCH  14  17
ENDBRANCH  10  11
ENDBRANCH   9  10
ENDBRANCH   8   9
ENDBRANCH   1   8
BRANCH   4  19
ATOM     19  C   UNL     1      -0.014  -1.237   4.715  0.00  0.00    +0.145 C 
BRANCH  19  20
ATOM     20  C   UNL     1       0.916  -1.870   5.752  0.00  0.00    +0.107 C 
ATOM     21  C   UNL     1       1.588  -3.099   5.141  0.00  0.00    +0.041 C 
ATOM     22  C   UNL     1       2.341  -3.841   6.252  0.00  0.00    +0.008 C 
ATOM     23  C   UNL     1       1.314  -4.471   7.191  0.00  0.00    +0.035 C 
ATOM     24  C   UNL     1       0.301  -3.447   7.632  0.00  0.00    -0.041 A 
ATOM     25  C   UNL     1       0.115  -2.254   6.969  0.00  0.00    -0.011 A 
ATOM     26  C   UNL     1      -0.841  -1.356   7.423  0.00  0.00    +0.007 A 
ATOM     27  C   UNL     1      -1.604  -1.647   8.536  0.00  0.00    +0.000 A 
ATOM     28  C   UNL     1      -1.415  -2.842   9.204  0.00  0.00    +0.000 A 
ATOM     29  C   UNL     1      -0.467  -3.737   8.752  0.00  0.00    +0.004 A 
BRANCH  20  30
ATOM     30  O   UNL     1       1.918  -0.923   6.127  0.00  0.00    -0.382 OA
ATOM     31  H   UNL     1       1.566  -0.111   6.516  0.00  0.00    +0.211 HD
ENDBRANCH  20  30
ENDBRANCH  19  20
ENDBRANCH   4  19
TORSDOF 8
