REMARK  Name = ZINC15864922
REMARK  8 active torsions:
REMARK  status: ('A' for Active; 'I' for Inactive)
REMARK    1  A    between atoms: C_1  and  C_2
REMARK    2  A    between atoms: C_5  and  C_33
REMARK    3  A    between atoms: C_6  and  N_8
REMARK    4  A    between atoms: C_13  and  C_14
REMARK    5  A    between atoms: C_13  and  N_64
REMARK    6  A    between atoms: C_14  and  C_15
REMARK    7  A    between atoms: C_15  and  N_16
REMARK    8  A    between atoms: C_19  and  C_26
REMARK                            x       y       z     vdW  Elec       q    Type
REMARK                         _______ _______ _______ _____ _____    ______ ____
ROOT
ATOM      1  C   UNL     1       3.280  -3.531  -0.998  0.00  0.00    +0.101 C 
ENDROOT
BRANCH   1   2
ATOM      2  N   UNL     1       2.979  -2.119  -0.750  0.00  0.00    -0.329 N 
ATOM      3  C   UNL     1       1.664  -1.695  -0.671  0.00  0.00    +0.131 A 
ATOM      4  C   UNL     1       1.361  -0.357  -0.303  0.00  0.00    +0.055 A 
ATOM      5  C   UNL     1       2.260   0.742   0.035  0.00  0.00    +0.002 A 
ATOM      6  C   UNL     1       1.727   1.944   0.357  0.00  0.00    +0.056 A 
ATOM      7  S   UNL     1      -0.029   1.669   0.225  0.00  0.00    -0.076 S 
ATOM      8  C   UNL     1      -0.011  -0.038  -0.255  0.00  0.00    +0.114 A 
ATOM      9  N   UNL     1      -0.936  -0.936  -0.537  0.00  0.00    -0.228 NA
ATOM     10  C   UNL     1      -0.593  -2.164  -0.873  0.00  0.00    +0.224 A 
ATOM     11  N   UNL     1       0.674  -2.532  -0.937  0.00  0.00    -0.220 NA
ATOM     12  H   UNL     1       3.702  -1.480  -0.641  0.00  0.00    +0.147 HD
BRANCH   5  13
ATOM     13  C   UNL     1       3.729   0.546   0.025  0.00  0.00    -0.017 A 
ATOM     14  C   UNL     1       4.314  -0.408   0.857  0.00  0.00    +0.010 A 
ATOM     15  C   UNL     1       5.681  -0.590   0.839  0.00  0.00    +0.020 A 
ATOM     16  C   UNL     1       6.474   0.180   0.006  0.00  0.00    +0.041 A 
ATOM     17  C   UNL     1       5.899   1.133  -0.819  0.00  0.00    +0.020 A 
ATOM     18  C   UNL     1       4.532   1.319  -0.813  0.00  0.00    +0.010 A 
ATOM     19 CL   UNL     1       8.195  -0.049  -0.006  0.00  0.00    -0.084 Cl
ENDBRANCH   5  13
ENDBRANCH   1   2
BRANCH   1  20
ATOM     20  C   UNL     1       4.797  -3.729  -1.038  0.00  0.00    +0.000 C 
BRANCH  20  21
ATOM     21  C   UNL     1       5.111  -5.204  -1.297  0.00  0.00    -0.077 C 
BRANCH  21  27
ATOM     22  N   UNL     1       9.024  -6.291  -2.462  0.00  0.00    -0.333 N 
ATOM     23  C   UNL     1       8.433  -6.979  -1.306  0.00  0.00    +0.086 C 
ATOM     24  C   UNL     1       6.911  -6.824  -1.345  0.00  0.00    -0.060 C 
ATOM     25  C   UNL     1       7.158  -4.707  -2.493  0.00  0.00    -0.060 C 
ATOM     26  C   UNL     1       8.680  -4.862  -2.453  0.00  0.00    +0.086 C 
ATOM     27  N   UNL     1       6.579  -5.384  -1.313  0.00  0.00    +0.382 N 
ATOM     28  H   UNL     1       6.975  -4.968  -0.462  0.00  0.00    -0.082 HD
BRANCH  22  34
ATOM     29  C   UNL     1      13.420  -5.745  -0.334  0.00  0.00    +0.044 C 
ATOM     30  C   UNL     1      12.564  -6.218  -1.481  0.00  0.00    -0.049 A 
ATOM     31  C   UNL     1      13.150  -6.833  -2.572  0.00  0.00    +0.004 A 
ATOM     32  C   UNL     1      12.369  -7.268  -3.627  0.00  0.00    +0.005 A 
ATOM     33  C   UNL     1      10.999  -7.094  -3.591  0.00  0.00    -0.029 A 
ATOM     34  C   UNL     1      10.408  -6.473  -2.499  0.00  0.00    +0.033 A 
ATOM     35  C   UNL     1      11.196  -6.037  -1.441  0.00  0.00    +0.026 A 
ATOM     36  C   UNL     1      10.148  -7.575  -4.738  0.00  0.00    +0.045 C 
ENDBRANCH  22  34
ENDBRANCH  21  27
ENDBRANCH  20  21
ENDBRANCH   1  20
TORSDOF 6
