REMARK  Name = ZINC16291475
REMARK  14 active torsions:
REMARK  status: ('A' for Active; 'I' for Inactive)
REMARK    1  A    between atoms: C_1  and  C_2
REMARK    2  A    between atoms: C_5  and  C_8
REMARK    3  A    between atoms: C_8  and  C_35
REMARK    4  A    between atoms: N_9  and  N_10
REMARK    5  A    between atoms: C_11  and  C_13
REMARK    6  A    between atoms: C_13  and  N_14
REMARK    7  A    between atoms: N_14  and  C_15
REMARK    8  A    between atoms: N_14  and  S_22
REMARK    9  A    between atoms: C_18  and  C_21
REMARK   10  A    between atoms: S_22  and  C_25
REMARK   11  A    between atoms: C_28  and  O_33
REMARK   12  A    between atoms: C_29  and  O_31
REMARK   13  A    between atoms: O_31  and  C_32
REMARK   14  A    between atoms: O_33  and  C_34
REMARK                            x       y       z     vdW  Elec       q    Type
REMARK                         _______ _______ _______ _____ _____    ______ ____
ROOT
ATOM      1  N   UNL     1      -3.600   1.770   0.018  0.00  0.00    -0.194 N 
ENDROOT
BRANCH   1   2
ATOM      2  C   UNL     1      -4.053   2.285   1.235  0.00  0.00    +0.052 A 
ATOM      3  C   UNL     1      -5.387   2.641   1.386  0.00  0.00    +0.025 A 
ATOM      4  C   UNL     1      -5.833   3.145   2.592  0.00  0.00    +0.005 A 
ATOM      5  C   UNL     1      -4.951   3.305   3.645  0.00  0.00    -0.050 A 
ATOM      6  C   UNL     1      -3.621   2.956   3.496  0.00  0.00    +0.005 A 
ATOM      7  C   UNL     1      -3.170   2.447   2.294  0.00  0.00    +0.025 A 
ATOM      8  C   UNL     1      -5.440   3.860   4.958  0.00  0.00    +0.044 C 
ENDBRANCH   1   2
BRANCH   1   9
ATOM      9  S   UNL     1      -3.783   2.651  -1.373  0.00  0.00    +0.075 S 
ATOM     10  O   UNL     1      -4.026   3.993  -0.975  0.00  0.00    -0.150 OA
ATOM     11  O   UNL     1      -2.704   2.292  -2.225  0.00  0.00    -0.150 OA
BRANCH   9  12
ATOM     12  C   UNL     1      -5.255   2.084  -2.159  0.00  0.00    +0.112 A 
ATOM     13  C   UNL     1      -5.215   0.971  -2.978  0.00  0.00    +0.032 A 
ATOM     14  C   UNL     1      -6.368   0.519  -3.592  0.00  0.00    +0.051 A 
ATOM     15  C   UNL     1      -7.565   1.188  -3.396  0.00  0.00    +0.162 A 
ATOM     16  C   UNL     1      -7.605   2.312  -2.575  0.00  0.00    +0.163 A 
ATOM     17  C   UNL     1      -6.446   2.756  -1.958  0.00  0.00    +0.078 A 
BRANCH  16  18
ATOM     18  O   UNL     1      -8.777   2.972  -2.379  0.00  0.00    -0.491 OA
ATOM     19  C   UNL     1      -8.743   4.116  -1.524  0.00  0.00    +0.277 C 
ENDBRANCH  16  18
BRANCH  15  20
ATOM     20  O   UNL     1      -8.700   0.749  -4.004  0.00  0.00    -0.491 OA
ATOM     21  C   UNL     1      -8.584  -0.410  -4.832  0.00  0.00    +0.277 C 
ENDBRANCH  15  20
ENDBRANCH   9  12
ENDBRANCH   1   9
BRANCH   1  22
ATOM     22  C   UNL     1      -2.963   0.452  -0.028  0.00  0.00    +0.228 C 
BRANCH  22  24
ATOM     23  N   UNL     1      -0.705  -0.500   0.310  0.00  0.00    -0.205 N 
ATOM     24  C   UNL     1      -1.498   0.591   0.293  0.00  0.00    +0.251 C 
ATOM     25  O   UNL     1      -1.031   1.683   0.537  0.00  0.00    -0.272 OA
ATOM     26  H   UNL     1      -1.078  -1.373   0.115  0.00  0.00    +0.177 HD
BRANCH  23  28
ATOM     27  C   UNL     1       1.422  -1.419   0.615  0.00  0.00    +0.063 C 
ATOM     28  N   UNL     1       0.658  -0.370   0.604  0.00  0.00    -0.185 NA
ATOM     29  C   UNL     1       0.843  -2.776   0.312  0.00  0.00    +0.068 C 
BRANCH  27  34
ATOM     30  C   UNL     1       7.021  -0.886   1.820  0.00  0.00    +0.044 C 
ATOM     31  C   UNL     1       5.554  -1.026   1.505  0.00  0.00    -0.050 A 
ATOM     32  C   UNL     1       4.742   0.095   1.494  0.00  0.00    +0.004 A 
ATOM     33  C   UNL     1       3.399  -0.025   1.205  0.00  0.00    +0.010 A 
ATOM     34  C   UNL     1       2.858  -1.282   0.924  0.00  0.00    -0.003 A 
ATOM     35  C   UNL     1       3.682  -2.410   0.942  0.00  0.00    +0.010 A 
ATOM     36  C   UNL     1       5.025  -2.274   1.227  0.00  0.00    +0.004 A 
ENDBRANCH  27  34
ENDBRANCH  23  28
ENDBRANCH  22  24
ENDBRANCH   1  22
TORSDOF 9
