REMARK  Name = ZINC40305061
REMARK  11 active torsions:
REMARK  status: ('A' for Active; 'I' for Inactive)
REMARK    1  A    between atoms: C_1  and  C_2
REMARK    2  A    between atoms: C_2  and  C_3
REMARK    3  A    between atoms: C_2  and  C_4
REMARK    4  A    between atoms: C_4  and  N_5
REMARK    5  A    between atoms: N_5  and  C_6
REMARK    6  A    between atoms: C_6  and  C_7
REMARK    7  A    between atoms: C_7  and  C_8
REMARK    8  A    between atoms: C_7  and  C_9
REMARK    9  A    between atoms: C_10  and  C_12
REMARK   10  A    between atoms: C_15  and  N_19
REMARK   11  A    between atoms: C_17  and  N_18
REMARK                            x       y       z     vdW  Elec       q    Type
REMARK                         _______ _______ _______ _____ _____    ______ ____
ROOT
ATOM      1  C   UNL     1      -0.519   1.265   4.234  0.00  0.00    +0.058 A 
ATOM      2  C   UNL     1      -1.913   1.137   4.212  0.00  0.00    +0.017 A 
ATOM      3  C   UNL     1      -2.644   1.420   5.329  0.00  0.00    +0.023 A 
ATOM      4  C   UNL     1      -2.011   1.839   6.499  0.00  0.00    +0.026 A 
ATOM      5  C   UNL     1      -0.630   1.971   6.539  0.00  0.00    +0.046 A 
ATOM      6  C   UNL     1       0.124   1.681   5.412  0.00  0.00    +0.039 A 
ENDROOT
BRANCH   1   8
ATOM      7  N   UNL     1       0.150  -0.243   2.433  0.00  0.00    -0.297 N 
ATOM      8  C   UNL     1       0.269   0.960   3.030  0.00  0.00    +0.248 C 
ATOM      9  O   UNL     1       1.029   1.792   2.573  0.00  0.00    -0.270 OA
BRANCH   7  10
ATOM     10  C   UNL     1       0.842  -0.505   1.169  0.00  0.00    +0.111 C 
BRANCH  10  12
ATOM     11  C   UNL     1      -0.175   1.489   0.060  0.00  0.00    +0.009 C 
ATOM     12  C   UNL     1      -0.029  -0.033   0.003  0.00  0.00    +0.000 C 
ATOM     13  C   UNL     1       0.628  -0.433  -1.319  0.00  0.00    +0.009 C 
ENDBRANCH  10  12
ENDBRANCH   7  10
BRANCH   7  14
ATOM     14  C   UNL     1      -0.672  -1.288   3.049  0.00  0.00    +0.111 C 
BRANCH  14  15
ATOM     15  C   UNL     1       0.192  -2.127   3.992  0.00  0.00    +0.000 C 
ATOM     16  C   UNL     1      -0.690  -3.137   4.728  0.00  0.00    +0.009 C 
ATOM     17  C   UNL     1       1.254  -2.873   3.182  0.00  0.00    +0.009 C 
ENDBRANCH  14  15
ENDBRANCH   7  14
ENDBRANCH   1   8
BRANCH   6  18
ATOM     18  N   UNL     1       1.507   1.806   5.446  0.00  0.00    -0.357 N 
ATOM     19  H   UNL     1       2.026   1.677   4.636  0.00  0.00    +0.142 HD
ATOM     20  H   UNL     1       1.954   2.023   6.279  0.00  0.00    +0.142 HD
ENDBRANCH   6  18
BRANCH   4  21
ATOM     21  N   UNL     1      -2.767   2.125   7.630  0.00  0.00    -0.358 N 
ATOM     22  H   UNL     1      -3.733   2.034   7.605  0.00  0.00    +0.142 HD
ATOM     23  H   UNL     1      -2.329   2.416   8.445  0.00  0.00    +0.142 HD
ENDBRANCH   4  21
TORSDOF 7
