REMARK  Name = ZINC17080032
REMARK  8 active torsions:
REMARK  status: ('A' for Active; 'I' for Inactive)
REMARK    1  A    between atoms: C_1  and  C_2
REMARK    2  A    between atoms: C_2  and  C_3
REMARK    3  A    between atoms: C_3  and  C_4
REMARK    4  A    between atoms: C_3  and  C_5
REMARK    5  A    between atoms: C_3  and  C_6
REMARK    6  A    between atoms: C_13  and  N_18
REMARK    7  A    between atoms: C_14  and  C_15
REMARK    8  A    between atoms: N_21  and  C_22
REMARK                            x       y       z     vdW  Elec       q    Type
REMARK                         _______ _______ _______ _____ _____    ______ ____
ROOT
ATOM      1  C   UNL     1      -3.099  -2.138  10.147  0.00  0.00    -0.000 C 
ATOM      2  C   UNL     1      -3.196  -0.694  10.647  0.00  0.00    +0.009 C 
ATOM      3  C   UNL     1      -4.048   0.135   9.683  0.00  0.00    +0.037 C 
ATOM      4  C   UNL     1      -3.503  -0.043   8.271  0.00  0.00    -0.023 A 
ATOM      5  C   UNL     1      -2.697  -1.081   7.963  0.00  0.00    -0.004 A 
ATOM      6  S   UNL     1      -2.327  -0.872   6.244  0.00  0.00    -0.077 S 
ATOM      7  C   UNL     1      -3.231   0.574   5.938  0.00  0.00    +0.086 A 
ATOM      8  C   UNL     1      -3.793   0.863   7.173  0.00  0.00    +0.068 A 
ATOM      9  C   UNL     1      -2.227  -2.166   8.883  0.00  0.00    +0.046 C 
ENDROOT
BRANCH   7  10
ATOM     10  N   UNL     1      -3.358   1.275   4.748  0.00  0.00    -0.263 N 
ATOM     11  C   UNL     1      -2.727   0.841   3.639  0.00  0.00    +0.304 C 
ATOM     12  O   UNL     1      -2.047  -0.166   3.682  0.00  0.00    -0.252 OA
ATOM     13  N   UNL     1      -2.850   1.522   2.483  0.00  0.00    -0.296 N 
ATOM     14  H   UNL     1      -3.973   2.186   4.710  0.00  0.00    +0.157 HD
ATOM     15  H   UNL     1      -3.465   2.433   2.444  0.00  0.00    +0.151 HD
BRANCH  13  16
ATOM     16  C   UNL     1      -2.164   1.050   1.278  0.00  0.00    +0.074 C 
ATOM     17  C   UNL     1      -0.729   1.579   1.267  0.00  0.00    +0.022 C 
ATOM     18  C   UNL     1      -0.013   1.086   0.008  0.00  0.00    +0.002 C 
ATOM     19  C   UNL     1      -0.753   1.593  -1.232  0.00  0.00    +0.000 C 
ATOM     20  C   UNL     1      -2.188   1.063  -1.221  0.00  0.00    +0.002 C 
ATOM     21  C   UNL     1      -2.904   1.556   0.038  0.00  0.00    +0.022 C 
ENDBRANCH  13  16
ENDBRANCH   7  10
BRANCH   8  22
ATOM     22  C   UNL     1      -4.650   2.038   7.362  0.00  0.00    +0.244 C 
ATOM     23  O   UNL     1      -5.851   1.948   7.192  0.00  0.00    -0.270 OA
ATOM     24  N   UNL     1      -4.107   3.217   7.725  0.00  0.00    -0.325 N 
ATOM     25  H   UNL     1      -4.750   4.098   7.867  0.00  0.00    +0.145 HD
ATOM     26  H   UNL     1      -3.021   3.298   7.879  0.00  0.00    +0.145 HD
ENDBRANCH   8  22
BRANCH   1  27
ATOM     27  C   UNL     1      -2.463  -3.013  11.229  0.00  0.00    -0.032 C 
ATOM     28  C   UNL     1      -1.061  -2.490  11.548  0.00  0.00    +0.011 C 
ATOM     29  C   UNL     1      -3.324  -2.970  12.492  0.00  0.00    +0.011 C 
BRANCH  27  31
ATOM     30  C   UNL     1      -1.730  -5.331  11.807  0.00  0.00    +0.004 C 
ATOM     31  C   UNL     1      -2.367  -4.455  10.726  0.00  0.00    +0.003 C 
ENDBRANCH  27  31
ENDBRANCH   1  27
TORSDOF 5
