REMARK  Name = ZINC56307440
REMARK  7 active torsions:
REMARK  status: ('A' for Active; 'I' for Inactive)
REMARK    1  A    between atoms: C_1  and  C_2
REMARK    2  A    between atoms: C_2  and  C_4
REMARK    3  A    between atoms: C_2  and  N_19
REMARK    4  A    between atoms: N_6  and  C_7
REMARK    5  A    between atoms: C_10  and  N_13
REMARK    6  A    between atoms: N_19  and  S_20
REMARK    7  A    between atoms: S_20  and  C_23
REMARK                            x       y       z     vdW  Elec       q    Type
REMARK                         _______ _______ _______ _____ _____    ______ ____
ROOT
ATOM      1  C   UNL     1       0.727  -0.492   1.228  0.00  0.00    +0.236 C 
ATOM      2  O   UNL     1       0.148  -1.184   2.039  0.00  0.00    -0.274 OA
ATOM      3  N   UNL     1       2.019  -0.161   1.426  0.00  0.00    -0.284 N 
ATOM      4  H   UNL     1       2.501   0.337   0.747  0.00  0.00    +0.155 HD
ENDROOT
BRANCH   3   5
ATOM      5  C   UNL     1       2.665  -0.537   2.610  0.00  0.00    +0.034 A 
ATOM      6  C   UNL     1       3.610   0.304   3.183  0.00  0.00    +0.025 A 
ATOM      7  C   UNL     1       4.247  -0.067   4.350  0.00  0.00    +0.025 A 
ATOM      8  C   UNL     1       3.943  -1.281   4.952  0.00  0.00    +0.038 A 
ATOM      9  C   UNL     1       2.998  -2.122   4.380  0.00  0.00    +0.025 A 
ATOM     10  C   UNL     1       2.356  -1.748   3.216  0.00  0.00    +0.025 A 
BRANCH   8  11
ATOM     11  N   UNL     1       4.590  -1.657   6.136  0.00  0.00    -0.254 N 
ATOM     12  C   UNL     1       4.451  -2.959   6.806  0.00  0.00    +0.134 C 
ATOM     13  C   UNL     1       5.365  -2.837   8.041  0.00  0.00    +0.125 C 
ATOM     14  N   UNL     1       5.921  -1.480   7.936  0.00  0.00    -0.297 N 
ATOM     15  C   UNL     1       5.438  -0.891   6.835  0.00  0.00    +0.307 C 
ATOM     16  O   UNL     1       5.739   0.239   6.501  0.00  0.00    -0.252 OA
ATOM     17  H   UNL     1       6.543  -1.078   8.562  0.00  0.00    +0.150 HD
ENDBRANCH   8  11
ENDBRANCH   3   5
BRANCH   1  19
ATOM     18  C   UNL     1      -0.001   1.528  -0.012  0.00  0.00    +0.035 C 
ATOM     19  C   UNL     1       0.003  -0.002   0.001  0.00  0.00    +0.159 C 
BRANCH  19  20
ATOM     20  N   UNL     1      -1.377  -0.494   0.019  0.00  0.00    -0.178 NA
ATOM     21  H   UNL     1      -1.850  -0.581   0.862  0.00  0.00    +0.149 HD
BRANCH  20  22
ATOM     22  S   UNL     1      -2.129  -0.902  -1.398  0.00  0.00    +0.065 S 
ATOM     23  O   UNL     1      -3.428  -1.362  -1.051  0.00  0.00    -0.153 OA
ATOM     24  O   UNL     1      -1.919   0.179  -2.296  0.00  0.00    -0.153 OA
BRANCH  22  25
ATOM     25  C   UNL     1      -1.267  -2.287  -2.066  0.00  0.00    +0.142 A 
ATOM     26  C   UNL     1      -1.491  -3.609  -1.867  0.00  0.00    +0.036 A 
ATOM     27  C   UNL     1      -0.679  -4.529  -2.503  0.00  0.00    +0.010 A 
ATOM     28  C   UNL     1       0.317  -4.082  -3.306  0.00  0.00    +0.047 A 
ATOM     29  S   UNL     1       0.123  -2.312  -3.186  0.00  0.00    -0.077 S 
ENDBRANCH  22  25
ENDBRANCH  20  22
ENDBRANCH  19  20
ENDBRANCH   1  19
TORSDOF 6
