REMARK  Name = ZINC01203520
REMARK  4 active torsions:
REMARK  status: ('A' for Active; 'I' for Inactive)
REMARK    1  A    between atoms: C_5  and  O_16
REMARK    2  A    between atoms: C_6  and  C_7
REMARK    3  A    between atoms: N_8  and  N_9
REMARK    4  A    between atoms: N_12  and  N_13
REMARK                            x       y       z     vdW  Elec       q    Type
REMARK                         _______ _______ _______ _____ _____    ______ ____
ROOT
ATOM      1  C   UNL     1      -1.259  -0.768  -0.040  0.00  0.00    +0.144 C 
ATOM      2  N   UNL     1      -1.240  -2.066  -0.036  0.00  0.00    -0.179 NA
ENDROOT
BRANCH   1   8
ATOM      3  C   UNL     1      -0.011   1.385  -0.058  0.00  0.00    +0.028 A 
ATOM      4  C   UNL     1       1.177   2.087  -0.071  0.00  0.00    +0.020 A 
ATOM      5  C   UNL     1       2.387   1.413  -0.082  0.00  0.00    +0.034 A 
ATOM      6  C   UNL     1       2.416   0.029  -0.078  0.00  0.00    +0.061 A 
ATOM      7  C   UNL     1       1.232  -0.690  -0.065  0.00  0.00    +0.139 A 
ATOM      8  C   UNL     1       0.006  -0.012  -0.054  0.00  0.00    +0.038 A 
ATOM      9 BR   UNL     1       4.074  -0.880  -0.092  0.00  0.00    -0.046 Br
ATOM     10 BR   UNL     1       1.153   3.978  -0.077  0.00  0.00    -0.050 Br
BRANCH   7  11
ATOM     11  O   UNL     1       1.260  -2.049  -0.062  0.00  0.00    -0.505 OA
ATOM     12  H   UNL     1       1.277  -2.440   0.822  0.00  0.00    +0.292 HD
ENDBRANCH   7  11
ENDBRANCH   1   8
BRANCH   2  13
ATOM     13  N   UNL     1      -2.442  -2.784  -0.022  0.00  0.00    -0.247 N 
ATOM     14  C   UNL     1      -2.421  -4.160  -0.018  0.00  0.00    +0.213 C 
ATOM     15  N   UNL     1      -1.290  -4.795  -0.142  0.00  0.00    -0.369 N 
ATOM     16  N   UNL     1      -3.595  -4.865   0.116  0.00  0.00    -0.197 N 
ATOM     17  H   UNL     1      -3.573  -5.832   0.200  0.00  0.00    +0.197 HD
ATOM     18  H   UNL     1      -1.282  -5.763  -0.212  0.00  0.00    +0.159 HD
ATOM     19  H   UNL     1      -3.289  -2.312  -0.015  0.00  0.00    +0.192 HD
ATOM     20  H   UNL     1      -0.456  -4.301  -0.163  0.00  0.00    +0.159 HD
BRANCH  16  21
ATOM     21  N   UNL     1      -4.821  -4.188   0.132  0.00  0.00    +0.133 N 
ATOM     22  O   UNL     1      -4.844  -2.979   0.138  0.00  0.00    -0.108 OA
ATOM     23  O   UNL     1      -5.856  -4.813   0.139  0.00  0.00    -0.108 OA
ENDBRANCH  16  21
ENDBRANCH   2  13
TORSDOF 4
