REMARK  Name = ZINC36543580
REMARK  15 active torsions:
REMARK  status: ('A' for Active; 'I' for Inactive)
REMARK    1  A    between atoms: C_1  and  C_2
REMARK    2  A    between atoms: C_3  and  C_4
REMARK    3  A    between atoms: C_4  and  C_6
REMARK    4  A    between atoms: C_4  and  N_17
REMARK    5  A    between atoms: N_8  and  C_9
REMARK    6  A    between atoms: C_9  and  C_10
REMARK    7  A    between atoms: C_9  and  C_11
REMARK    8  A    between atoms: C_9  and  C_12
REMARK    9  A    between atoms: C_12  and  C_13
REMARK   10  A    between atoms: C_13  and  C_14
REMARK   11  A    between atoms: C_13  and  C_15
REMARK   12  A    between atoms: C_13  and  C_16
REMARK   13  A    between atoms: N_17  and  C_18
REMARK   14  A    between atoms: C_25  and  C_27
REMARK   15  A    between atoms: C_32  and  O_33
REMARK                            x       y       z     vdW  Elec       q    Type
REMARK                         _______ _______ _______ _____ _____    ______ ____
ROOT
ATOM      1  N   UNL     1      -2.898   1.023   0.553  0.00  0.00    -0.250 N 
ATOM      2  C   UNL     1      -1.602   1.391   0.586  0.00  0.00    +0.255 C 
ATOM      3  O   UNL     1      -0.740   0.562   0.804  0.00  0.00    -0.269 OA
ENDROOT
BRANCH   1   4
ATOM      4  C   UNL     1      -3.897   1.991   0.404  0.00  0.00    +0.056 A 
ATOM      5  C   UNL     1      -4.497   2.549   1.525  0.00  0.00    +0.025 A 
ATOM      6  C   UNL     1      -5.483   3.505   1.376  0.00  0.00    +0.002 A 
ATOM      7  C   UNL     1      -5.873   3.907   0.111  0.00  0.00    +0.002 A 
ATOM      8  C   UNL     1      -5.277   3.354  -1.008  0.00  0.00    +0.022 A 
ATOM      9  C   UNL     1      -4.287   2.401  -0.865  0.00  0.00    +0.062 A 
ATOM     10 CL   UNL     1      -3.535   1.712  -2.270  0.00  0.00    -0.082 Cl
ENDBRANCH   1   4
BRANCH   2  11
ATOM     11  C   UNL     1      -1.230   2.800   0.359  0.00  0.00    +0.079 A 
ATOM     12  C   UNL     1      -1.788   3.810   1.147  0.00  0.00    +0.017 A 
ATOM     13  C   UNL     1      -1.436   5.125   0.929  0.00  0.00    +0.001 A 
ATOM     14  C   UNL     1      -0.530   5.450  -0.067  0.00  0.00    +0.004 A 
ATOM     15  C   UNL     1       0.029   4.462  -0.853  0.00  0.00    +0.046 A 
ATOM     16  C   UNL     1      -0.309   3.133  -0.644  0.00  0.00    +0.129 A 
BRANCH  16  17
ATOM     17  O   UNL     1       0.244   2.161  -1.411  0.00  0.00    -0.506 OA
ATOM     18  H   UNL     1      -0.257   1.960  -2.213  0.00  0.00    +0.292 HD
ENDBRANCH  16  17
ENDBRANCH   2  11
BRANCH   1  19
ATOM     19  C   UNL     1      -3.261  -0.392   0.671  0.00  0.00    +0.190 C 
BRANCH  19  20
ATOM     20  C   UNL     1      -2.891  -0.892   2.044  0.00  0.00    +0.238 C 
ATOM     21  O   UNL     1      -2.270  -0.177   2.803  0.00  0.00    -0.273 OA
ATOM     22  N   UNL     1      -3.250  -2.132   2.429  0.00  0.00    -0.308 N 
ATOM     23  H   UNL     1      -3.747  -2.704   1.822  0.00  0.00    +0.149 HD
BRANCH  22  24
ATOM     24  C   UNL     1      -2.890  -2.618   3.763  0.00  0.00    +0.030 C 
ATOM     25  C   UNL     1      -1.370  -2.756   3.863  0.00  0.00    +0.031 C 
ATOM     26  C   UNL     1      -3.383  -1.625   4.818  0.00  0.00    +0.031 C 
BRANCH  24  27
ATOM     27  C   UNL     1      -3.542  -3.982   4.002  0.00  0.00    +0.031 C 
BRANCH  27  28
ATOM     28  C   UNL     1      -4.867  -4.054   3.240  0.00  0.00    -0.036 C 
ATOM     29  C   UNL     1      -4.596  -4.414   1.778  0.00  0.00    +0.010 C 
ATOM     30  C   UNL     1      -5.761  -5.124   3.872  0.00  0.00    +0.010 C 
ATOM     31  C   UNL     1      -5.570  -2.697   3.310  0.00  0.00    +0.010 C 
ENDBRANCH  27  28
ENDBRANCH  24  27
ENDBRANCH  22  24
ENDBRANCH  19  20
BRANCH  19  34
ATOM     32  C   UNL     1      -4.683  -1.693  -1.384  0.00  0.00    +0.035 C 
ATOM     33  C   UNL     1      -3.184  -1.822  -1.306  0.00  0.00    -0.032 C 
ATOM     34  C   UNL     1      -2.520  -1.190  -0.370  0.00  0.00    +0.000 C 
ENDBRANCH  19  34
ENDBRANCH   1  19
TORSDOF 9
