REMARK  Name = ZINC23462017
REMARK  12 active torsions:
REMARK  status: ('A' for Active; 'I' for Inactive)
REMARK    1  A    between atoms: C_1  and  C_2
REMARK    2  A    between atoms: C_2  and  O_3
REMARK    3  A    between atoms: O_3  and  C_4
REMARK    4  A    between atoms: C_4  and  C_5
REMARK    5  A    between atoms: C_5  and  C_6
REMARK    6  A    between atoms: C_6  and  N_7
REMARK    7  A    between atoms: C_11  and  S_26
REMARK    8  A    between atoms: C_15  and  S_16
REMARK    9  A    between atoms: S_16  and  C_17
REMARK   10  A    between atoms: C_17  and  C_18
REMARK   11  A    between atoms: S_26  and  N_29
REMARK   12  A    between atoms: C_33  and  C_36
REMARK                            x       y       z     vdW  Elec       q    Type
REMARK                         _______ _______ _______ _____ _____    ______ ____
ROOT
ATOM      1  N   UNL     1      -0.020   1.094   2.454  0.00  0.00    -0.319 N 
ATOM      2  C   UNL     1       1.009   1.741   3.118  0.00  0.00    +0.070 A 
ATOM      3  C   UNL     1       1.669   2.945   2.927  0.00  0.00    +0.030 A 
ATOM      4  C   UNL     1       2.681   3.318   3.788  0.00  0.00    +0.030 A 
ATOM      5  C   UNL     1       3.042   2.496   4.845  0.00  0.00    +0.108 A 
ATOM      6  C   UNL     1       2.397   1.297   5.050  0.00  0.00    +0.058 A 
ATOM      7  C   UNL     1       1.371   0.905   4.187  0.00  0.00    +0.092 A 
ATOM      8  N   UNL     1       0.567  -0.189   4.130  0.00  0.00    -0.222 NA
ATOM      9  C   UNL     1      -0.255  -0.079   3.115  0.00  0.00    +0.170 A 
ENDROOT
BRANCH   5  10
ATOM     10  S   UNL     1       4.336   2.990   5.934  0.00  0.00    +0.061 S 
ATOM     11  O   UNL     1       4.853   1.801   6.516  0.00  0.00    -0.153 OA
ATOM     12  O   UNL     1       5.152   3.900   5.209  0.00  0.00    -0.153 OA
BRANCH  10  13
ATOM     13  N   UNL     1       3.639   3.854   7.163  0.00  0.00    -0.176 NA
ATOM     14  C   UNL     1       3.481   5.311   7.057  0.00  0.00    +0.109 C 
ATOM     15  C   UNL     1       2.007   5.662   7.311  0.00  0.00    +0.017 C 
ATOM     16  C   UNL     1       1.575   5.080   8.659  0.00  0.00    +0.006 C 
ATOM     17  C   UNL     1       1.707   3.555   8.623  0.00  0.00    +0.002 C 
ATOM     18  C   UNL     1       3.173   3.179   8.382  0.00  0.00    +0.112 C 
ATOM     19  C   UNL     1       1.244   2.971   9.959  0.00  0.00    +0.009 C 
ENDBRANCH  10  13
ENDBRANCH   5  10
BRANCH   1  20
ATOM     20  C   UNL     1      -0.729   1.579   1.267  0.00  0.00    +0.126 C 
BRANCH  20  21
ATOM     21  C   UNL     1      -0.013   1.086   0.008  0.00  0.00    +0.050 C 
BRANCH  21  22
ATOM     22  C   UNL     1      -0.753   1.593  -1.232  0.00  0.00    +0.161 C 
BRANCH  22  23
ATOM     23  O   UNL     1      -0.084   1.132  -2.407  0.00  0.00    -0.380 OA
BRANCH  23  25
ATOM     24  C   UNL     1       0.098   1.004  -4.814  0.00  0.00    +0.034 C 
ATOM     25  C   UNL     1      -0.698   1.552  -3.627  0.00  0.00    +0.156 C 
ENDBRANCH  23  25
ENDBRANCH  22  23
ENDBRANCH  21  22
ENDBRANCH  20  21
ENDBRANCH   1  20
BRANCH   9  26
ATOM     26  S   UNL     1      -1.478  -1.266   2.668  0.00  0.00    -0.083 S 
BRANCH  26  27
ATOM     27  C   UNL     1      -1.202  -2.503   3.960  0.00  0.00    +0.115 C 
BRANCH  27  28
ATOM     28  C   UNL     1      -2.164  -3.647   3.774  0.00  0.00    +0.001 A 
ATOM     29  C   UNL     1      -1.811  -4.727   2.986  0.00  0.00    +0.007 A 
ATOM     30  C   UNL     1      -2.693  -5.777   2.814  0.00  0.00    +0.003 A 
ATOM     31  C   UNL     1      -3.931  -5.750   3.429  0.00  0.00    +0.041 A 
ATOM     32  C   UNL     1      -4.288  -4.671   4.218  0.00  0.00    +0.159 A 
ATOM     33  C   UNL     1      -3.401  -3.620   4.395  0.00  0.00    +0.162 A 
ATOM     34  F   UNL     1      -3.745  -2.567   5.169  0.00  0.00    -0.202 F 
ATOM     35  F   UNL     1      -5.497  -4.644   4.820  0.00  0.00    -0.202 F 
ENDBRANCH  27  28
ENDBRANCH  26  27
ENDBRANCH   9  26
TORSDOF 10
