REMARK  Name = ZINC58961623
REMARK  10 active torsions:
REMARK  status: ('A' for Active; 'I' for Inactive)
REMARK    1  A    between atoms: C_1  and  C_2
REMARK    2  A    between atoms: C_2  and  C_4
REMARK    3  A    between atoms: C_2  and  S_15
REMARK    4  A    between atoms: N_6  and  C_7
REMARK    5  A    between atoms: C_7  and  C_8
REMARK    6  A    between atoms: C_8  and  C_9
REMARK    7  A    between atoms: C_9  and  N_10
REMARK    8  A    between atoms: S_15  and  C_16
REMARK    9  A    between atoms: C_18  and  C_26
REMARK   10  A    between atoms: C_20  and  C_22
REMARK                            x       y       z     vdW  Elec       q    Type
REMARK                         _______ _______ _______ _____ _____    ______ ____
ROOT
ATOM      1  C   UNL     1      -2.365  -0.093  -1.525  0.00  0.00    +0.190 A 
ATOM      2  N   UNL     1      -3.619  -0.392  -1.827  0.00  0.00    -0.222 NA
ATOM      3  C   UNL     1      -4.151   0.001  -2.982  0.00  0.00    +0.077 A 
ATOM      4  C   UNL     1      -3.364   0.735  -3.875  0.00  0.00    +0.060 A 
ATOM      5  C   UNL     1      -2.059   1.024  -3.519  0.00  0.00    +0.148 A 
ATOM      6  N   UNL     1      -1.598   0.605  -2.351  0.00  0.00    -0.218 NA
ENDROOT
BRANCH   3   7
ATOM      7  C   UNL     1      -5.555  -0.335  -3.317  0.00  0.00    +0.019 A 
ATOM      8  C   UNL     1      -6.102   0.075  -4.532  0.00  0.00    +0.013 A 
ATOM      9  C   UNL     1      -7.409  -0.240  -4.840  0.00  0.00    +0.021 A 
ATOM     10  C   UNL     1      -8.179  -0.963  -3.944  0.00  0.00    +0.042 A 
ATOM     11  C   UNL     1      -7.642  -1.374  -2.736  0.00  0.00    +0.040 A 
ATOM     12  C   UNL     1      -6.332  -1.069  -2.421  0.00  0.00    +0.052 A 
ATOM     13 CL   UNL     1      -5.658  -1.591  -0.909  0.00  0.00    -0.083 Cl
ATOM     14 CL   UNL     1      -9.824  -1.355  -4.338  0.00  0.00    -0.083 Cl
ENDBRANCH   3   7
BRANCH   5  15
ATOM     15  C   UNL     1      -1.173   1.812  -4.449  0.00  0.00    +0.434 C 
ATOM     16  F   UNL     1      -1.302   3.177  -4.171  0.00  0.00    -0.164 F 
ATOM     17  F   UNL     1       0.158   1.422  -4.267  0.00  0.00    -0.164 F 
ATOM     18  F   UNL     1      -1.553   1.568  -5.773  0.00  0.00    -0.164 F 
ENDBRANCH   5  15
BRANCH   1  19
ATOM     19  S   UNL     1      -1.700  -0.632   0.015  0.00  0.00    -0.074 S 
BRANCH  19  21
ATOM     20  C   UNL     1      -0.019   1.526   0.010  0.00  0.00    +0.029 C 
ATOM     21  C   UNL     1       0.002  -0.004   0.002  0.00  0.00    +0.137 C 
BRANCH  21  22
ATOM     22  C   UNL     1       0.731  -0.503   1.223  0.00  0.00    +0.226 C 
ATOM     23  O   UNL     1       0.105  -0.891   2.187  0.00  0.00    -0.275 OA
ATOM     24  N   UNL     1       2.079  -0.519   1.244  0.00  0.00    -0.314 N 
ATOM     25  H   UNL     1       2.579  -0.208   0.473  0.00  0.00    +0.149 HD
BRANCH  24  26
ATOM     26  C   UNL     1       2.787  -1.004   2.431  0.00  0.00    +0.106 C 
BRANCH  26  27
ATOM     27  C   UNL     1       4.296  -0.916   2.195  0.00  0.00    +0.040 C 
BRANCH  27  28
ATOM     28  C   UNL     1       5.036  -1.423   3.435  0.00  0.00    +0.124 C 
BRANCH  28  29
ATOM     29  N   UNL     1       6.481  -1.339   3.209  0.00  0.00    -0.338 N 
ATOM     30  C   UNL     1       7.276  -2.311   2.664  0.00  0.00    +0.104 A 
ATOM     31  C   UNL     1       8.530  -1.820   2.640  0.00  0.00    +0.101 A 
ATOM     32  N   UNL     1       8.502  -0.583   3.156  0.00  0.00    -0.352 N 
ATOM     33  C   UNL     1       7.277  -0.285   3.495  0.00  0.00    +0.173 A 
ATOM     34  H   UNL     1       9.270   0.001   3.259  0.00  0.00    +0.166 HD
ENDBRANCH  28  29
ENDBRANCH  27  28
ENDBRANCH  26  27
ENDBRANCH  24  26
ENDBRANCH  21  22
ENDBRANCH  19  21
ENDBRANCH   1  19
TORSDOF 9
