REMARK  Name = ZINC08712984
REMARK  8 active torsions:
REMARK  status: ('A' for Active; 'I' for Inactive)
REMARK    1  A    between atoms: C_4  and  C_7
REMARK    2  A    between atoms: C_7  and  N_8
REMARK    3  A    between atoms: N_8  and  C_9
REMARK    4  A    between atoms: C_9  and  C_11
REMARK    5  A    between atoms: C_9  and  C_18
REMARK    6  A    between atoms: N_20  and  C_21
REMARK    7  A    between atoms: C_30  and  C_32
REMARK    8  A    between atoms: C_32  and  N_33
REMARK                            x       y       z     vdW  Elec       q    Type
REMARK                         _______ _______ _______ _____ _____    ______ ____
ROOT
ATOM      1  N   UNL     1      -4.242   5.412  -2.659  0.00  0.00    -0.284 N 
ATOM      2  C   UNL     1      -3.792   4.222  -3.103  0.00  0.00    +0.238 C 
ATOM      3  O   UNL     1      -3.065   4.173  -4.072  0.00  0.00    -0.274 OA
ENDROOT
BRANCH   1   4
ATOM      4  C   UNL     1      -5.008   5.487  -1.412  0.00  0.00    +0.143 C 
BRANCH   4   8
ATOM      5  C   UNL     1      -2.371   6.392   1.825  0.00  0.00    +0.000 A 
ATOM      6  C   UNL     1      -3.116   7.398   1.238  0.00  0.00    +0.000 A 
ATOM      7  C   UNL     1      -3.969   7.105   0.191  0.00  0.00    +0.005 A 
ATOM      8  C   UNL     1      -4.077   5.806  -0.270  0.00  0.00    -0.030 A 
ATOM      9  C   UNL     1      -3.337   4.799   0.321  0.00  0.00    +0.005 A 
ATOM     10  C   UNL     1      -2.480   5.093   1.365  0.00  0.00    +0.000 A 
ENDBRANCH   4   8
ENDBRANCH   1   4
BRANCH   1  11
ATOM     11  C   UNL     1      -3.967   6.631  -3.423  0.00  0.00    +0.166 C 
BRANCH  11  12
ATOM     12  C   UNL     1      -3.040   7.542  -2.615  0.00  0.00    +0.023 C 
ATOM     13  C   UNL     1      -1.752   6.786  -2.264  0.00  0.00    +0.010 C 
ATOM     14  C   UNL     1      -0.924   7.654  -1.315  0.00  0.00    +0.027 C 
ATOM     15  C   UNL     1      -0.803   9.048  -1.856  0.00  0.00    -0.031 C 
ATOM     16  C   UNL     1      -1.567   9.536  -2.781  0.00  0.00    -0.031 C 
ATOM     17  C   UNL     1      -2.673   8.772  -3.447  0.00  0.00    +0.032 C 
ENDBRANCH  11  12
BRANCH  11  18
ATOM     18  C   UNL     1      -5.260   7.352  -3.703  0.00  0.00    +0.238 C 
ATOM     19  O   UNL     1      -6.270   7.040  -3.107  0.00  0.00    -0.273 OA
ATOM     20  N   UNL     1      -5.296   8.344  -4.615  0.00  0.00    -0.284 N 
ATOM     21  H   UNL     1      -4.511   8.538  -5.151  0.00  0.00    +0.155 HD
BRANCH  20  22
ATOM     22  C   UNL     1      -6.467   9.093  -4.790  0.00  0.00    +0.037 A 
ATOM     23  C   UNL     1      -7.287   9.363  -3.703  0.00  0.00    +0.027 A 
ATOM     24  C   UNL     1      -8.442  10.102  -3.874  0.00  0.00    +0.051 A 
ATOM     25  C   UNL     1      -8.785  10.575  -5.131  0.00  0.00    +0.166 A 
ATOM     26  C   UNL     1      -7.964  10.306  -6.223  0.00  0.00    +0.168 A 
ATOM     27  C   UNL     1      -6.803   9.570  -6.050  0.00  0.00    +0.072 A 
ATOM     28  O   UNL     1      -8.515  10.875  -7.335  0.00  0.00    -0.453 OA
ATOM     29  C   UNL     1      -9.886  11.146  -6.988  0.00  0.00    +0.466 C 
ATOM     30  O   UNL     1      -9.851  11.314  -5.559  0.00  0.00    -0.453 OA
ENDBRANCH  20  22
ENDBRANCH  11  18
ENDBRANCH   1  11
BRANCH   2  31
ATOM     31  C   UNL     1      -4.191   2.954  -2.395  0.00  0.00    +0.241 C 
BRANCH  31  32
ATOM     32  N   UNL     1      -3.736   1.797  -3.170  0.00  0.00    -0.235 N 
ATOM     33  C   UNL     1      -2.527   1.155  -3.056  0.00  0.00    +0.090 A 
ATOM     34  C   UNL     1      -1.406   1.339  -2.253  0.00  0.00    +0.029 A 
ATOM     35  C   UNL     1      -0.331   0.507  -2.386  0.00  0.00    +0.002 A 
ATOM     36  C   UNL     1      -0.345  -0.524  -3.317  0.00  0.00    +0.002 A 
ATOM     37  C   UNL     1      -1.432  -0.727  -4.116  0.00  0.00    +0.032 A 
ATOM     38  C   UNL     1      -2.546   0.116  -4.003  0.00  0.00    +0.113 A 
ATOM     39  N   UNL     1      -3.732   0.167  -4.642  0.00  0.00    -0.129 NA
ATOM     40  N   UNL     1      -4.444   1.136  -4.185  0.00  0.00    -0.064 NA
ENDBRANCH  31  32
ENDBRANCH   2  31
TORSDOF 8
