REMARK  Name = ZINC20082656
REMARK  13 active torsions:
REMARK  status: ('A' for Active; 'I' for Inactive)
REMARK    1  A    between atoms: C_1  and  C_2
REMARK    2  A    between atoms: C_7  and  C_14
REMARK    3  A    between atoms: C_14  and  C_16
REMARK    4  A    between atoms: C_14  and  N_25
REMARK    5  A    between atoms: N_20  and  C_21
REMARK    6  A    between atoms: C_21  and  C_22
REMARK    7  A    between atoms: C_21  and  C_23
REMARK    8  A    between atoms: C_21  and  C_24
REMARK    9  A    between atoms: N_25  and  C_26
REMARK   10  A    between atoms: N_25  and  C_34
REMARK   11  A    between atoms: C_26  and  C_27
REMARK   12  A    between atoms: C_27  and  C_28
REMARK   13  A    between atoms: C_34  and  C_35
REMARK                            x       y       z     vdW  Elec       q    Type
REMARK                         _______ _______ _______ _____ _____    ______ ____
ROOT
ATOM      1  C   UNL     1      -0.664  -0.489  -0.330  0.00  0.00    +0.163 C 
ENDROOT
BRANCH   1   8
ATOM      2  C   UNL     1      -2.971  -4.110  -7.052  0.00  0.00    +0.044 C 
ATOM      3  C   UNL     1      -2.334  -3.541  -5.810  0.00  0.00    -0.048 A 
ATOM      4  C   UNL     1      -1.041  -3.914  -5.469  0.00  0.00    +0.004 A 
ATOM      5  C   UNL     1      -0.445  -3.410  -4.348  0.00  0.00    +0.010 A 
ATOM      6  C   UNL     1      -1.144  -2.510  -3.537  0.00  0.00    -0.001 A 
ATOM      7  C   UNL     1      -0.535  -1.951  -2.328  0.00  0.00    +0.021 A 
ATOM      8  C   UNL     1      -1.261  -1.083  -1.580  0.00  0.00    +0.042 A 
ATOM      9  C   UNL     1      -2.574  -0.738  -1.965  0.00  0.00    +0.254 A 
ATOM     10  O   UNL     1      -3.210   0.040  -1.275  0.00  0.00    -0.268 OA
ATOM     11  N   UNL     1      -3.139  -1.242  -3.076  0.00  0.00    -0.322 N 
ATOM     12  H   UNL     1      -4.162  -0.948  -3.355  0.00  0.00    +0.169 HD
ATOM     13  C   UNL     1      -2.455  -2.129  -3.879  0.00  0.00    +0.049 A 
ATOM     14  C   UNL     1      -3.041  -2.656  -5.026  0.00  0.00    +0.029 A 
ENDBRANCH   1   8
BRANCH   1  15
ATOM     15  C   UNL     1      -0.507   0.999  -0.506  0.00  0.00    +0.174 A 
ATOM     16  N   UNL     1      -1.466   1.892  -0.517  0.00  0.00    -0.111 NA
ATOM     17  N   UNL     1      -0.930   3.051  -0.690  0.00  0.00    -0.023 NA
ATOM     18  N   UNL     1       0.346   2.919  -0.797  0.00  0.00    -0.043 NA
ATOM     19  N   UNL     1       0.646   1.669  -0.689  0.00  0.00    -0.222 N 
BRANCH  19  20
ATOM     20  C   UNL     1       1.990   1.088  -0.753  0.00  0.00    +0.059 C 
ATOM     21  C   UNL     1       2.042   0.049  -1.875  0.00  0.00    +0.036 C 
ATOM     22  C   UNL     1       3.011   2.192  -1.033  0.00  0.00    +0.036 C 
ATOM     23  C   UNL     1       2.319   0.415   0.581  0.00  0.00    +0.036 C 
ENDBRANCH  19  20
ENDBRANCH   1  15
BRANCH   1  24
ATOM     24  N   UNL     1      -1.552  -0.756   0.810  0.00  0.00    -0.284 NA
BRANCH  24  25
ATOM     25  C   UNL     1      -0.912  -0.373   2.076  0.00  0.00    +0.090 C 
BRANCH  25  26
ATOM     26  C   UNL     1      -1.002   1.144   2.255  0.00  0.00    +0.050 C 
BRANCH  26  27
ATOM     27  C   UNL     1      -0.488   1.520   3.621  0.00  0.00    -0.046 A 
ATOM     28  C   UNL     1      -1.357   1.580   4.694  0.00  0.00    +0.003 A 
ATOM     29  C   UNL     1      -0.885   1.920   5.948  0.00  0.00    +0.000 A 
ATOM     30  C   UNL     1       0.454   2.211   6.126  0.00  0.00    +0.000 A 
ATOM     31  C   UNL     1       1.323   2.157   5.052  0.00  0.00    +0.000 A 
ATOM     32  C   UNL     1       0.851   1.812   3.799  0.00  0.00    +0.003 A 
ENDBRANCH  26  27
ENDBRANCH  25  26
ENDBRANCH  24  25
BRANCH  24  33
ATOM     33  C   UNL     1      -1.968  -2.164   0.836  0.00  0.00    +0.127 C 
BRANCH  33  34
ATOM     34  C   UNL     1      -3.152  -2.322   1.754  0.00  0.00    +0.004 A 
ATOM     35  C   UNL     1      -4.474  -2.308   1.452  0.00  0.00    +0.012 A 
ATOM     36  C   UNL     1      -5.395  -2.474   2.468  0.00  0.00    +0.008 A 
ATOM     37  C   UNL     1      -4.950  -2.647   3.737  0.00  0.00    +0.045 A 
ATOM     38  S   UNL     1      -3.180  -2.583   3.519  0.00  0.00    -0.100 S 
ENDBRANCH  33  34
ENDBRANCH  24  33
ENDBRANCH   1  24
TORSDOF 9
