REMARK  Name = ZINC13563379
REMARK  6 active torsions:
REMARK  status: ('A' for Active; 'I' for Inactive)
REMARK    1  A    between atoms: C_1  and  C_2
REMARK    2  A    between atoms: C_2  and  C_24
REMARK    3  A    between atoms: C_6  and  N_17
REMARK    4  A    between atoms: C_9  and  N_16
REMARK    5  A    between atoms: C_10  and  C_12
REMARK    6  A    between atoms: N_14  and  N_15
REMARK                            x       y       z     vdW  Elec       q    Type
REMARK                         _______ _______ _______ _____ _____    ______ ____
ROOT
ATOM      1  C   UNL     1      -1.398  -0.541   0.302  0.00  0.00    +0.041 C 
ATOM      2  C   UNL     1       0.002  -0.005  -0.002  0.00  0.00    +0.068 C 
ATOM      3  C   UNL     1      -0.018   1.525   0.008  0.00  0.00    +0.070 C 
ATOM      4  C   UNL     1       1.391   2.053  -0.003  0.00  0.00    -0.025 A 
ATOM      5  C   UNL     1       2.455   1.270   0.310  0.00  0.00    +0.020 A 
ATOM      6  C   UNL     1       3.749   1.808   0.294  0.00  0.00    +0.105 A 
ATOM      7  C   UNL     1       2.940   3.865  -0.340  0.00  0.00    +0.089 A 
ATOM      8  C   UNL     1       1.602   3.414  -0.351  0.00  0.00    +0.031 A 
ATOM      9  C   UNL     1       0.615   4.416  -0.720  0.00  0.00    +0.054 A 
ATOM     10  C   UNL     1       1.055   5.688  -1.019  0.00  0.00    +0.098 A 
ATOM     11  S   UNL     1       2.821   5.572  -0.812  0.00  0.00    -0.064 S 
ATOM     12  C   UNL     1       2.283  -0.182   0.679  0.00  0.00    +0.199 C 
ATOM     13  O   UNL     1       0.919  -0.451   1.004  0.00  0.00    -0.369 OA
ATOM     14  C   UNL     1       0.460  -0.505  -1.374  0.00  0.00    +0.041 C 
ATOM     15  N   UNL     1       4.017   3.104  -0.027  0.00  0.00    -0.337 N 
ATOM     16  H   UNL     1       4.972   3.480  -0.032  0.00  0.00    +0.168 HD
ENDROOT
BRANCH   6  17
ATOM     17  N   UNL     1       4.832   1.004   0.618  0.00  0.00    -0.316 N 
ATOM     18  C   UNL     1       4.971  -0.116  -0.349  0.00  0.00    +0.106 C 
ATOM     19  C   UNL     1       6.447  -0.555  -0.172  0.00  0.00    +0.020 C 
ATOM     20  C   UNL     1       7.183   0.786   0.050  0.00  0.00    +0.020 C 
ATOM     21  C   UNL     1       6.098   1.764   0.539  0.00  0.00    +0.106 C 
ENDBRANCH   6  17
BRANCH  10  22
ATOM     22  C   UNL     1       0.288   6.815  -1.400  0.00  0.00    +0.266 C 
ATOM     23  O   UNL     1      -0.923   6.723  -1.496  0.00  0.00    -0.268 OA
ATOM     24  N   UNL     1       0.897   7.990  -1.656  0.00  0.00    -0.249 N 
ATOM     25  H   UNL     1       1.861   8.063  -1.579  0.00  0.00    +0.169 HD
BRANCH  24  26
ATOM     26  N   UNL     1       0.157   9.077  -2.023  0.00  0.00    -0.254 NA
ATOM     27  H   UNL     1       0.748   9.880  -2.181  0.00  0.00    +0.140 HD
ATOM     28  H   UNL     1      -0.403   8.875  -2.838  0.00  0.00    +0.140 HD
ENDBRANCH  24  26
ENDBRANCH  10  22
BRANCH   9  29
ATOM     29  N   UNL     1      -0.735   4.101  -0.770  0.00  0.00    -0.356 N 
ATOM     30  H   UNL     1      -1.082   3.368  -0.236  0.00  0.00    +0.142 HD
ATOM     31  H   UNL     1      -1.332   4.612  -1.338  0.00  0.00    +0.142 HD
ENDBRANCH   9  29
TORSDOF 4
