REMARK  Name = ZINC00888013
REMARK  11 active torsions:
REMARK  status: ('A' for Active; 'I' for Inactive)
REMARK    1  A    between atoms: C_1  and  C_2
REMARK    2  A    between atoms: C_5  and  C_8
REMARK    3  A    between atoms: C_8  and  C_10
REMARK    4  A    between atoms: C_8  and  N_21
REMARK    5  A    between atoms: N_12  and  C_13
REMARK    6  A    between atoms: C_13  and  C_14
REMARK    7  A    between atoms: N_21  and  C_22
REMARK    8  A    between atoms: C_22  and  C_23
REMARK    9  A    between atoms: C_32  and  C_34
REMARK   10  A    between atoms: C_34  and  N_35
REMARK   11  A    between atoms: C_37  and  C_40
REMARK                            x       y       z     vdW  Elec       q    Type
REMARK                         _______ _______ _______ _____ _____    ______ ____
ROOT
ATOM      1  N   UNL     1      -0.889  -4.808   1.077  0.00  0.00    -0.280 N 
ATOM      2  C   UNL     1      -1.821  -5.617   0.537  0.00  0.00    +0.240 C 
ATOM      3  O   UNL     1      -1.694  -6.013  -0.603  0.00  0.00    -0.273 OA
ENDROOT
BRANCH   1   4
ATOM      4  C   UNL     1       0.210  -4.303   0.251  0.00  0.00    +0.193 C 
BRANCH   4   9
ATOM      5  C   UNL     1      -1.915  -0.897  -3.906  0.00  0.00    +0.044 C 
ATOM      6  C   UNL     1      -1.360  -1.786  -2.822  0.00  0.00    -0.050 A 
ATOM      7  C   UNL     1      -0.264  -2.588  -3.079  0.00  0.00    +0.004 A 
ATOM      8  C   UNL     1       0.244  -3.402  -2.084  0.00  0.00    +0.006 A 
ATOM      9  C   UNL     1      -0.343  -3.414  -0.833  0.00  0.00    -0.018 A 
ATOM     10  C   UNL     1      -1.439  -2.611  -0.576  0.00  0.00    +0.006 A 
ATOM     11  C   UNL     1      -1.944  -1.794  -1.569  0.00  0.00    +0.004 A 
ENDBRANCH   4   9
BRANCH   4  12
ATOM     12  C   UNL     1       1.163  -3.513   1.110  0.00  0.00    +0.238 C 
ATOM     13  O   UNL     1       0.981  -3.438   2.307  0.00  0.00    -0.273 OA
ATOM     14  N   UNL     1       2.218  -2.890   0.549  0.00  0.00    -0.309 N 
ATOM     15  H   UNL     1       2.365  -2.950  -0.408  0.00  0.00    +0.149 HD
BRANCH  14  16
ATOM     16  C   UNL     1       3.145  -2.122   1.385  0.00  0.00    +0.139 C 
BRANCH  16  17
ATOM     17  C   UNL     1       4.228  -1.530   0.521  0.00  0.00    -0.030 A 
ATOM     18  C   UNL     1       5.389  -2.242   0.283  0.00  0.00    +0.008 A 
ATOM     19  C   UNL     1       6.383  -1.700  -0.510  0.00  0.00    +0.038 A 
ATOM     20  C   UNL     1       6.216  -0.444  -1.066  0.00  0.00    +0.123 A 
ATOM     21  C   UNL     1       5.053   0.269  -0.828  0.00  0.00    +0.038 A 
ATOM     22  C   UNL     1       4.058  -0.277  -0.039  0.00  0.00    +0.008 A 
ATOM     23  F   UNL     1       7.187   0.087  -1.841  0.00  0.00    -0.205 F 
ENDBRANCH  16  17
ENDBRANCH  14  16
ENDBRANCH   4  12
ENDBRANCH   1   4
BRANCH   1  24
ATOM     24  C   UNL     1      -0.974  -4.433   2.491  0.00  0.00    +0.144 C 
BRANCH  24  25
ATOM     25  C   UNL     1      -0.324  -5.500   3.334  0.00  0.00    -0.026 A 
ATOM     26  C   UNL     1      -1.069  -6.575   3.780  0.00  0.00    +0.009 A 
ATOM     27  C   UNL     1      -0.476  -7.556   4.553  0.00  0.00    +0.050 A 
ATOM     28  C   UNL     1       0.866  -7.463   4.883  0.00  0.00    +0.166 A 
ATOM     29  C   UNL     1       1.616  -6.380   4.433  0.00  0.00    +0.167 A 
ATOM     30  C   UNL     1       1.017  -5.403   3.654  0.00  0.00    +0.054 A 
ATOM     31  O   UNL     1       2.896  -6.517   4.886  0.00  0.00    -0.453 OA
ATOM     32  C   UNL     1       2.825  -7.479   5.955  0.00  0.00    +0.466 C 
ATOM     33  O   UNL     1       1.676  -8.280   5.618  0.00  0.00    -0.453 OA
ENDBRANCH  24  25
ENDBRANCH   1  24
BRANCH   2  34
ATOM     34  C   UNL     1      -3.021  -6.031   1.349  0.00  0.00    +0.264 C 
BRANCH  34  35
ATOM     35  N   UNL     1      -3.844  -6.958   0.567  0.00  0.00    -0.154 N 
ATOM     36  N   UNL     1      -4.802  -6.618  -0.224  0.00  0.00    -0.129 NA
ATOM     37  C   UNL     1      -5.304  -7.721  -0.747  0.00  0.00    +0.211 A 
ATOM     38  N   UNL     1      -4.603  -8.743  -0.232  0.00  0.00    -0.107 NA
ATOM     39  N   UNL     1      -3.718  -8.239   0.560  0.00  0.00    -0.045 NA
BRANCH  37  40
ATOM     40  C   UNL     1      -6.423  -7.814  -1.711  0.00  0.00    +0.060 A 
ATOM     41  C   UNL     1      -6.984  -8.926  -2.277  0.00  0.00    +0.019 A 
ATOM     42  C   UNL     1      -8.030  -8.765  -3.159  0.00  0.00    +0.008 A 
ATOM     43  C   UNL     1      -8.472  -7.512  -3.438  0.00  0.00    +0.046 A 
ATOM     44  S   UNL     1      -7.397  -6.503  -2.432  0.00  0.00    -0.093 S 
ENDBRANCH  37  40
ENDBRANCH  34  35
ENDBRANCH   2  34
TORSDOF 10
