REMARK  Name = ZINC35667595
REMARK  14 active torsions:
REMARK  status: ('A' for Active; 'I' for Inactive)
REMARK    1  A    between atoms: C_1  and  N_2
REMARK    2  A    between atoms: N_2  and  C_3
REMARK    3  A    between atoms: N_2  and  C_4
REMARK    4  A    between atoms: C_4  and  C_5
REMARK    5  A    between atoms: C_5  and  N_6
REMARK    6  A    between atoms: N_6  and  C_7
REMARK    7  A    between atoms: C_7  and  C_8
REMARK    8  A    between atoms: C_11  and  S_20
REMARK    9  A    between atoms: N_12  and  C_13
REMARK   10  A    between atoms: C_13  and  C_14
REMARK   11  A    between atoms: S_20  and  C_23
REMARK   12  A    between atoms: C_23  and  C_24
REMARK   13  A    between atoms: C_30  and  C_32
REMARK   14  A    between atoms: C_32  and  C_33
REMARK                            x       y       z     vdW  Elec       q    Type
REMARK                         _______ _______ _______ _____ _____    ______ ____
ROOT
ATOM      1  C   UNL     1      -3.222  -3.884  -1.766  0.00  0.00    +0.057 A 
ATOM      2  C   UNL     1      -4.431  -4.464  -1.897  0.00  0.00    +0.137 A 
ATOM      3  N   UNL     1      -4.305  -5.500  -2.739  0.00  0.00    -0.220 NA
ATOM      4  C   UNL     1      -3.064  -5.585  -3.135  0.00  0.00    +0.252 A 
ATOM      5  N   UNL     1      -2.356  -4.591  -2.556  0.00  0.00    -0.307 N 
ENDROOT
BRANCH   4   6
ATOM      6  S   UNL     1      -2.421  -6.791  -4.247  0.00  0.00    +0.034 S 
ATOM      7  O   UNL     1      -1.021  -6.798  -4.005  0.00  0.00    -0.166 OA
ATOM      8  O   UNL     1      -3.203  -7.955  -4.011  0.00  0.00    -0.166 OA
BRANCH   6   9
ATOM      9  C   UNL     1      -2.766  -6.132  -5.901  0.00  0.00    +0.210 C 
BRANCH   9  10
ATOM     10  C   UNL     1      -2.318  -7.126  -6.941  0.00  0.00    -0.026 A 
ATOM     11  C   UNL     1      -1.028  -7.074  -7.436  0.00  0.00    +0.005 A 
ATOM     12  C   UNL     1      -0.617  -7.985  -8.391  0.00  0.00    +0.000 A 
ATOM     13  C   UNL     1      -1.495  -8.949  -8.850  0.00  0.00    +0.000 A 
ATOM     14  C   UNL     1      -2.784  -9.002  -8.354  0.00  0.00    +0.000 A 
ATOM     15  C   UNL     1      -3.194  -8.093  -7.397  0.00  0.00    +0.005 A 
ENDBRANCH   9  10
ENDBRANCH   6   9
ENDBRANCH   4   6
BRANCH   1  16
ATOM     16  C   UNL     1      -2.889  -2.684  -0.918  0.00  0.00    +0.162 C 
BRANCH  16  17
ATOM     17  N   UNL     1      -2.408  -3.130   0.392  0.00  0.00    -0.297 N 
ATOM     18  C   UNL     1      -3.289  -3.414   1.372  0.00  0.00    +0.220 C 
ATOM     19  O   UNL     1      -4.479  -3.301   1.169  0.00  0.00    -0.275 OA
BRANCH  17  20
ATOM     20  C   UNL     1      -0.970  -3.268   0.637  0.00  0.00    +0.089 C 
BRANCH  20  21
ATOM     21  C   UNL     1      -0.391  -1.913   1.048  0.00  0.00    -0.060 C 
BRANCH  21  23
ATOM     22  C   UNL     1       1.636  -0.697   1.457  0.00  0.00    -0.097 C 
ATOM     23  N   UNL     1       1.068  -2.023   1.181  0.00  0.00    +0.377 N 
ATOM     24  C   UNL     1       1.391  -2.935   2.286  0.00  0.00    -0.097 C 
ATOM     25  H   UNL     1       1.457  -2.384   0.322  0.00  0.00    -0.083 HD
ENDBRANCH  21  23
ENDBRANCH  20  21
ENDBRANCH  17  20
BRANCH  18  26
ATOM     26  C   UNL     1      -2.794  -3.873   2.720  0.00  0.00    +0.131 C 
BRANCH  26  27
ATOM     27  C   UNL     1      -3.971  -4.122   3.628  0.00  0.00    -0.039 A 
ATOM     28  C   UNL     1      -4.468  -3.098   4.411  0.00  0.00    +0.004 A 
ATOM     29  C   UNL     1      -5.547  -3.326   5.244  0.00  0.00    +0.000 A 
ATOM     30  C   UNL     1      -6.129  -4.579   5.294  0.00  0.00    +0.000 A 
ATOM     31  C   UNL     1      -5.632  -5.603   4.511  0.00  0.00    +0.000 A 
ATOM     32  C   UNL     1      -4.556  -5.374   3.674  0.00  0.00    +0.004 A 
ENDBRANCH  26  27
ENDBRANCH  18  26
ENDBRANCH  16  17
ENDBRANCH   1  16
BRANCH   5  33
ATOM     33  C   UNL     1      -0.928  -4.323  -2.737  0.00  0.00    +0.160 C 
BRANCH  33  34
ATOM     34  C   UNL     1      -0.730  -3.448  -3.948  0.00  0.00    -0.028 A 
ATOM     35  C   UNL     1      -0.435  -4.019  -5.172  0.00  0.00    +0.005 A 
ATOM     36  C   UNL     1      -0.254  -3.217  -6.283  0.00  0.00    +0.000 A 
ATOM     37  C   UNL     1      -0.368  -1.844  -6.170  0.00  0.00    +0.000 A 
ATOM     38  C   UNL     1      -0.664  -1.273  -4.947  0.00  0.00    +0.000 A 
ATOM     39  C   UNL     1      -0.850  -2.076  -3.837  0.00  0.00    +0.005 A 
ENDBRANCH  33  34
ENDBRANCH   5  33
TORSDOF 12
