REMARK  Name = ZINC40172775
REMARK  7 active torsions:
REMARK  status: ('A' for Active; 'I' for Inactive)
REMARK    1  A    between atoms: C_1  and  C_2
REMARK    2  A    between atoms: C_12  and  C_14
REMARK    3  A    between atoms: C_14  and  C_16
REMARK    4  A    between atoms: C_14  and  N_17
REMARK    5  A    between atoms: C_21  and  S_22
REMARK    6  A    between atoms: S_22  and  C_23
REMARK    7  A    between atoms: C_23  and  C_24
REMARK                            x       y       z     vdW  Elec       q    Type
REMARK                         _______ _______ _______ _____ _____    ______ ____
ROOT
ATOM      1  C   UNL     1       0.122  -8.485   0.891  0.00  0.00    +0.175 C 
ATOM      2  C   UNL     1      -1.118  -8.847   1.710  0.00  0.00    +0.041 C 
ENDROOT
BRANCH   1  14
ATOM      3  C   UNL     1      -0.018   1.503   0.010  0.00  0.00    +0.044 C 
ATOM      4  C   UNL     1       0.002  -0.004   0.002  0.00  0.00    -0.049 A 
ATOM      5  C   UNL     1       0.006  -0.698  -1.199  0.00  0.00    +0.005 A 
ATOM      6  C   UNL     1       0.024  -2.068  -1.235  0.00  0.00    +0.029 A 
ATOM      7  C   UNL     1       0.040  -2.822  -0.038  0.00  0.00    +0.080 A 
ATOM      8  C   UNL     1       0.036  -2.081   1.166  0.00  0.00    +0.041 A 
ATOM      9  C   UNL     1       0.023  -0.709   1.191  0.00  0.00    +0.020 A 
ATOM     10  S   UNL     1       0.059  -3.361   2.397  0.00  0.00    -0.052 S 
ATOM     11  C   UNL     1       0.073  -4.752   1.275  0.00  0.00    +0.165 A 
ATOM     12  N   UNL     1       0.059  -4.165   0.101  0.00  0.00    -0.225 NA
ATOM     13  N   UNL     1       0.093  -6.106   1.569  0.00  0.00    -0.263 N 
ATOM     14  C   UNL     1       0.101  -7.012   0.571  0.00  0.00    +0.241 C 
ATOM     15  O   UNL     1       0.090  -6.643  -0.584  0.00  0.00    -0.273 OA
ATOM     16  H   UNL     1       0.101  -6.402   2.493  0.00  0.00    +0.157 HD
ENDBRANCH   1  14
BRANCH   1  17
ATOM     17  N   UNL     1       0.127  -9.255  -0.355  0.00  0.00    -0.279 N 
ATOM     18  C   UNL     1      -0.832  -9.216  -1.327  0.00  0.00    +0.216 A 
ATOM     19  N   UNL     1      -0.476 -10.040  -2.282  0.00  0.00    -0.113 NA
ATOM     20  N   UNL     1       0.744 -10.624  -1.916  0.00  0.00    -0.121 NA
ATOM     21  C   UNL     1       1.095 -10.135  -0.752  0.00  0.00    +0.194 A 
ATOM     22  N   UNL     1      -1.984  -8.440  -1.306  0.00  0.00    -0.328 N 
ATOM     23  H   UNL     1      -2.163  -7.857  -0.552  0.00  0.00    +0.145 HD
ATOM     24  H   UNL     1      -2.609  -8.480  -2.047  0.00  0.00    +0.145 HD
BRANCH  21  25
ATOM     25  S   UNL     1       2.556 -10.542   0.145  0.00  0.00    -0.081 S 
BRANCH  25  26
ATOM     26  C   UNL     1       3.400 -11.748  -0.915  0.00  0.00    +0.112 C 
BRANCH  26  27
ATOM     27  C   UNL     1       4.683 -12.185  -0.256  0.00  0.00    -0.037 A 
ATOM     28  C   UNL     1       5.854 -11.491  -0.497  0.00  0.00    +0.004 A 
ATOM     29  C   UNL     1       7.031 -11.892   0.108  0.00  0.00    +0.000 A 
ATOM     30  C   UNL     1       7.037 -12.985   0.954  0.00  0.00    +0.000 A 
ATOM     31  C   UNL     1       5.865 -13.678   1.195  0.00  0.00    +0.000 A 
ATOM     32  C   UNL     1       4.687 -13.275   0.594  0.00  0.00    +0.004 A 
ENDBRANCH  26  27
ENDBRANCH  25  26
ENDBRANCH  21  25
ENDBRANCH   1  17
TORSDOF 5
