REMARK  Name = ZINC12657975
REMARK  10 active torsions:
REMARK  status: ('A' for Active; 'I' for Inactive)
REMARK    1  A    between atoms: C_1  and  C_2
REMARK    2  A    between atoms: C_2  and  C_3
REMARK    3  A    between atoms: C_3  and  C_4
REMARK    4  A    between atoms: C_4  and  N_74
REMARK    5  A    between atoms: C_5  and  C_6
REMARK    6  A    between atoms: C_9  and  O_37
REMARK    7  A    between atoms: C_12  and  O_36
REMARK    8  A    between atoms: C_21  and  C_35
REMARK    9  A    between atoms: C_22  and  O_34
REMARK   10  A    between atoms: C_25  and  C_27
REMARK                            x       y       z     vdW  Elec       q    Type
REMARK                         _______ _______ _______ _____ _____    ______ ____
ROOT
ATOM      1  C   UNL     1       5.603  -4.160  -1.771  0.00  0.00    +0.036 C 
ATOM      2  C   UNL     1       5.836  -4.798  -0.400  0.00  0.00    +0.018 C 
ATOM      3  C   UNL     1       4.496  -5.252   0.185  0.00  0.00    +0.032 C 
ATOM      4  C   UNL     1       3.851  -6.276  -0.751  0.00  0.00    +0.117 C 
ATOM      5  C   UNL     1       3.620  -5.639  -2.122  0.00  0.00    +0.067 C 
ATOM      6  C   UNL     1       4.960  -5.186  -2.707  0.00  0.00    +0.079 C 
ATOM      7  C   UNL     1       4.728  -4.550  -4.079  0.00  0.00    +0.036 C 
ATOM      8  C   UNL     1       3.803  -3.339  -3.932  0.00  0.00    +0.009 C 
ATOM      9  C   UNL     1       4.431  -2.326  -3.008  0.00  0.00    +0.025 C 
ATOM     10  C   UNL     1       4.671  -2.957  -1.621  0.00  0.00    +0.009 C 
ATOM     11  C   UNL     1       5.259  -1.962  -0.626  0.00  0.00    +0.005 C 
ATOM     12  C   UNL     1       4.394  -0.695  -0.523  0.00  0.00    +0.010 C 
ATOM     13  C   UNL     1       4.294  -0.103  -1.916  0.00  0.00    +0.003 C 
ATOM     14  C   UNL     1       3.528  -1.125  -2.804  0.00  0.00    +0.075 C 
ATOM     15  C   UNL     1       3.235  -0.289  -4.055  0.00  0.00    +0.036 C 
ATOM     16  C   UNL     1       2.823   1.088  -3.465  0.00  0.00    +0.011 C 
ATOM     17  C   UNL     1       3.467   1.170  -2.058  0.00  0.00    +0.043 C 
ATOM     18  C   UNL     1       5.697   0.125  -2.482  0.00  0.00    +0.014 C 
ENDROOT
BRANCH  17  19
ATOM     19  C   UNL     1       2.382   1.222  -0.980  0.00  0.00    +0.204 C 
ATOM     20  C   UNL     1       2.994   1.555   0.360  0.00  0.00    +0.024 C 
ATOM     21  C   UNL     1       2.442   2.695   0.766  0.00  0.00    +0.091 C 
ATOM     22  C   UNL     1       1.479   3.157  -0.238  0.00  0.00    +0.332 C 
ATOM     23  O   UNL     1       0.814   4.170  -0.152  0.00  0.00    -0.246 OA
ATOM     24  O   UNL     1       1.440   2.292  -1.269  0.00  0.00    -0.454 OA
ENDBRANCH  17  19
BRANCH   1  25
ATOM     25  C   UNL     1       6.920  -3.708  -2.346  0.00  0.00    +0.060 C 
ATOM     26  N   UNL     1       7.997  -3.919  -1.623  0.00  0.00    -0.393 N 
ATOM     27  H   UNL     1       7.919  -4.375  -0.707  0.00  0.00    +0.159 HD
BRANCH  26  28
ATOM     28  C   UNL     1       9.343  -3.492  -2.138  0.00  0.00    +0.112 C 
BRANCH  28  29
ATOM     29  C   UNL     1       9.895  -2.407  -1.211  0.00  0.00    +0.021 C 
BRANCH  29  31
ATOM     30  C   UNL     1      11.843  -0.908  -0.758  0.00  0.00    +0.004 C 
ATOM     31  C   UNL     1      11.290  -1.993  -1.684  0.00  0.00    -0.002 C 
ENDBRANCH  29  31
ENDBRANCH  28  29
ENDBRANCH  26  28
ENDBRANCH   1  25
BRANCH  14  32
ATOM     32  O   UNL     1       2.308  -1.520  -2.173  0.00  0.00    -0.388 OA
ATOM     33  H   UNL     1       1.740  -2.074  -2.727  0.00  0.00    +0.210 HD
ENDBRANCH  14  32
BRANCH   6  34
ATOM     34  O   UNL     1       5.826  -6.314  -2.845  0.00  0.00    -0.388 OA
ATOM     35  H   UNL     1       5.481  -7.006  -3.426  0.00  0.00    +0.210 HD
ENDBRANCH   6  34
BRANCH   4  36
ATOM     36  O   UNL     1       2.600  -6.698  -0.205  0.00  0.00    -0.392 OA
ATOM     37  H   UNL     1       2.671  -7.112   0.666  0.00  0.00    +0.210 HD
ENDBRANCH   4  36
TORSDOF 8
