REMARK  Name = ZINC09700545
REMARK  11 active torsions:
REMARK  status: ('A' for Active; 'I' for Inactive)
REMARK    1  A    between atoms: C_1  and  C_2
REMARK    2  A    between atoms: C_2  and  C_4
REMARK    3  A    between atoms: C_2  and  O_16
REMARK    4  A    between atoms: C_4  and  C_6
REMARK    5  A    between atoms: O_16  and  C_17
REMARK    6  A    between atoms: C_17  and  C_19
REMARK    7  A    between atoms: N_27  and  C_30
REMARK    8  A    between atoms: C_30  and  C_31
REMARK    9  A    between atoms: C_31  and  C_32
REMARK   10  A    between atoms: C_32  and  O_33
REMARK   11  A    between atoms: O_33  and  C_34
REMARK                            x       y       z     vdW  Elec       q    Type
REMARK                         _______ _______ _______ _____ _____    ______ ____
ROOT
ATOM      1  C   UNL     1       3.977   4.548  -0.011  0.00  0.00    +0.340 C 
ATOM      2  O   UNL     1       3.281   5.543   0.001  0.00  0.00    -0.245 OA
ENDROOT
BRANCH   1   3
ATOM      3  C   UNL     1       3.350   3.208  -0.013  0.00  0.00    +0.060 A 
ATOM      4  C   UNL     1       4.151   2.065  -0.026  0.00  0.00    +0.016 A 
ATOM      5  C   UNL     1       3.573   0.807  -0.027  0.00  0.00    +0.014 A 
ATOM      6  C   UNL     1       2.193   0.681  -0.015  0.00  0.00    +0.049 A 
ATOM      7  C   UNL     1       1.378   1.832  -0.001  0.00  0.00    +0.050 A 
ATOM      8  C   UNL     1       1.958   3.089   0.000  0.00  0.00    +0.028 A 
ATOM      9  C   UNL     1      -0.016   1.341   0.009  0.00  0.00    +0.254 C 
ATOM     10  O   UNL     1      -1.012   2.036   0.018  0.00  0.00    -0.270 OA
ATOM     11  N   UNL     1       0.002  -0.004   0.002  0.00  0.00    -0.234 N 
ATOM     12  C   UNL     1       1.263  -0.471  -0.013  0.00  0.00    +0.254 C 
ATOM     13  O   UNL     1       1.586  -1.642  -0.021  0.00  0.00    -0.270 OA
BRANCH  11  14
ATOM     14  C   UNL     1      -1.195  -0.849   0.008  0.00  0.00    +0.119 C 
BRANCH  14  15
ATOM     15  C   UNL     1      -1.624  -1.135  -1.432  0.00  0.00    +0.047 C 
BRANCH  15  16
ATOM     16  C   UNL     1      -2.874  -2.018  -1.426  0.00  0.00    +0.161 C 
BRANCH  16  17
ATOM     17  O   UNL     1      -3.275  -2.285  -2.771  0.00  0.00    -0.383 OA
ATOM     18  C   UNL     1      -4.440  -3.106  -2.878  0.00  0.00    +0.193 C 
ENDBRANCH  16  17
ENDBRANCH  15  16
ENDBRANCH  14  15
ENDBRANCH  11  14
ENDBRANCH   1   3
BRANCH   1  19
ATOM     19  O   UNL     1       5.319   4.664  -0.024  0.00  0.00    -0.450 OA
BRANCH  19  21
ATOM     20  C   UNL     1       6.042   6.490  -1.463  0.00  0.00    +0.061 C 
ATOM     21  C   UNL     1       5.864   6.010  -0.022  0.00  0.00    +0.244 C 
BRANCH  21  22
ATOM     22  C   UNL     1       7.200   6.009   0.676  0.00  0.00    +0.205 C 
ATOM     23  O   UNL     1       7.818   4.972   0.804  0.00  0.00    -0.288 OA
BRANCH  22  24
ATOM     24  C   UNL     1       7.735   7.220   1.183  0.00  0.00    +0.046 A 
ATOM     25  C   UNL     1       7.162   8.472   1.112  0.00  0.00    +0.095 A 
ATOM     26  N   UNL     1       7.968   9.372   1.708  0.00  0.00    -0.360 N 
ATOM     27  H   UNL     1       7.774  10.319   1.784  0.00  0.00    +0.165 HD
ATOM     28  C   UNL     1       9.108   8.763   2.189  0.00  0.00    +0.047 A 
ATOM     29  C   UNL     1       9.020   7.395   1.887  0.00  0.00    +0.010 A 
ATOM     30  C   UNL     1      10.044   6.529   2.260  0.00  0.00    +0.011 A 
ATOM     31  C   UNL     1      11.145   7.021   2.928  0.00  0.00    +0.001 A 
ATOM     32  C   UNL     1      11.234   8.372   3.228  0.00  0.00    +0.002 A 
ATOM     33  C   UNL     1      10.227   9.240   2.864  0.00  0.00    +0.026 A 
ENDBRANCH  22  24
ENDBRANCH  21  22
ENDBRANCH  19  21
ENDBRANCH   1  19
TORSDOF 9
