REMARK  Name = ZINC22708080
REMARK  8 active torsions:
REMARK  status: ('A' for Active; 'I' for Inactive)
REMARK    1  A    between atoms: C_1  and  C_2
REMARK    2  A    between atoms: C_9  and  N_14
REMARK    3  A    between atoms: C_10  and  C_11
REMARK    4  A    between atoms: N_14  and  C_15
REMARK    5  A    between atoms: C_15  and  N_17
REMARK    6  A    between atoms: C_18  and  C_20
REMARK    7  A    between atoms: C_25  and  O_26
REMARK    8  A    between atoms: O_26  and  C_27
REMARK                            x       y       z     vdW  Elec       q    Type
REMARK                         _______ _______ _______ _____ _____    ______ ____
ROOT
ATOM      1  N   UNL     1       4.524   0.945  -4.492  0.00  0.00    -0.291 N 
ATOM      2  H   UNL     1       4.256   0.688  -5.528  0.00  0.00    +0.154 HD
ENDROOT
BRANCH   1  10
ATOM      3  C   UNL     1      -0.734   1.582   1.262  0.00  0.00    +0.008 C 
ATOM      4  C   UNL     1      -0.013   1.086   0.008  0.00  0.00    -0.009 C 
ATOM      5  C   UNL     1      -0.738   1.596  -1.241  0.00  0.00    +0.008 C 
ATOM      6  C   UNL     1      -0.177   0.907  -2.486  0.00  0.00    +0.037 C 
ATOM      7  C   UNL     1       1.339   1.061  -2.490  0.00  0.00    -0.023 A 
ATOM      8  C   UNL     1       2.009   1.379  -1.361  0.00  0.00    -0.004 A 
ATOM      9  S   UNL     1       3.710   1.446  -1.848  0.00  0.00    -0.077 S 
ATOM     10  C   UNL     1       3.536   1.057  -3.527  0.00  0.00    +0.084 A 
ATOM     11  C   UNL     1       2.166   0.884  -3.672  0.00  0.00    +0.068 A 
ATOM     12  C   UNL     1       1.427   1.620  -0.003  0.00  0.00    +0.046 C 
BRANCH  11  13
ATOM     13  C   UNL     1       1.576   0.536  -4.968  0.00  0.00    +0.244 C 
ATOM     14  O   UNL     1       1.437  -0.632  -5.279  0.00  0.00    -0.270 OA
ATOM     15  N   UNL     1       1.188   1.510  -5.815  0.00  0.00    -0.325 N 
ATOM     16  H   UNL     1       0.745   1.248  -6.787  0.00  0.00    +0.145 HD
ATOM     17  H   UNL     1       1.314   2.566  -5.534  0.00  0.00    +0.145 HD
ENDBRANCH  11  13
ENDBRANCH   1  10
BRANCH   1  18
ATOM     18  C   UNL     1       5.815   1.150  -4.162  0.00  0.00    +0.141 C 
ATOM     19  S   UNL     1       6.233   1.549  -2.551  0.00  0.00    -0.018 S 
BRANCH  18  20
ATOM     20  N   UNL     1       6.776   1.041  -5.100  0.00  0.00    -0.263 N 
ATOM     21  C   UNL     1       8.066   1.246  -4.770  0.00  0.00    +0.253 C 
ATOM     22  O   UNL     1       8.364   1.529  -3.626  0.00  0.00    -0.270 OA
ATOM     23  H   UNL     1       6.507   0.784  -6.136  0.00  0.00    +0.157 HD
BRANCH  21  24
ATOM     24  C   UNL     1       9.118   1.127  -5.797  0.00  0.00    +0.081 A 
ATOM     25  C   UNL     1       8.782   0.795  -7.112  0.00  0.00    +0.036 A 
ATOM     26  C   UNL     1       9.769   0.690  -8.069  0.00  0.00    +0.043 A 
ATOM     27  C   UNL     1      11.097   0.901  -7.730  0.00  0.00    +0.043 A 
ATOM     28  C   UNL     1      11.443   1.224  -6.432  0.00  0.00    +0.085 A 
ATOM     29  C   UNL     1      10.461   1.339  -5.458  0.00  0.00    +0.150 A 
ATOM     30 CL   UNL     1      13.109   1.486  -6.019  0.00  0.00    -0.080 Cl
ATOM     31 CL   UNL     1       9.349   0.284  -9.704  0.00  0.00    -0.083 Cl
BRANCH  29  32
ATOM     32  O   UNL     1      10.800   1.657  -4.183  0.00  0.00    -0.493 OA
ATOM     33  C   UNL     1      11.088   0.571  -3.299  0.00  0.00    +0.277 C 
ENDBRANCH  29  32
ENDBRANCH  21  24
ENDBRANCH  18  20
ENDBRANCH   1  18
TORSDOF 6
