REMARK  Name = ZINC27661982
REMARK  11 active torsions:
REMARK  status: ('A' for Active; 'I' for Inactive)
REMARK    1  A    between atoms: C_1  and  C_2
REMARK    2  A    between atoms: C_2  and  S_3
REMARK    3  A    between atoms: S_3  and  C_6
REMARK    4  A    between atoms: C_9  and  N_22
REMARK    5  A    between atoms: C_10  and  C_12
REMARK    6  A    between atoms: N_14  and  C_15
REMARK    7  A    between atoms: N_22  and  C_23
REMARK    8  A    between atoms: N_22  and  C_29
REMARK    9  A    between atoms: C_23  and  C_24
REMARK   10  A    between atoms: C_29  and  C_30
REMARK   11  A    between atoms: C_33  and  C_35
REMARK                            x       y       z     vdW  Elec       q    Type
REMARK                         _______ _______ _______ _____ _____    ______ ____
ROOT
ATOM      1  C   UNL     1       3.739  -0.265  -0.360  0.00  0.00    +0.271 A 
ATOM      2  N   UNL     1       3.952  -1.567  -0.323  0.00  0.00    -0.218 NA
ATOM      3  C   UNL     1       2.952  -2.419  -0.201  0.00  0.00    +0.140 A 
ATOM      4  C   UNL     1       1.647  -1.926  -0.112  0.00  0.00    +0.080 A 
ATOM      5  C   UNL     1       1.463  -0.535  -0.156  0.00  0.00    +0.152 A 
ATOM      6  N   UNL     1       2.532   0.249  -0.285  0.00  0.00    -0.205 NA
ENDROOT
BRANCH   5   7
ATOM      7  C   UNL     1       0.106   0.048  -0.066  0.00  0.00    +0.269 C 
ATOM      8  O   UNL     1      -0.862  -0.678   0.047  0.00  0.00    -0.268 OA
ATOM      9  N   UNL     1      -0.056   1.385  -0.110  0.00  0.00    -0.279 N 
ATOM     10  H   UNL     1       0.823   2.046  -0.135  0.00  0.00    +0.155 HD
BRANCH   9  11
ATOM     11  C   UNL     1      -1.343   1.933  -0.122  0.00  0.00    +0.052 A 
ATOM     12  C   UNL     1      -2.368   1.321   0.587  0.00  0.00    +0.025 A 
ATOM     13  C   UNL     1      -3.636   1.867   0.577  0.00  0.00    +0.002 A 
ATOM     14  C   UNL     1      -3.890   3.018  -0.147  0.00  0.00    +0.002 A 
ATOM     15  C   UNL     1      -2.874   3.628  -0.859  0.00  0.00    +0.022 A 
ATOM     16  C   UNL     1      -1.601   3.090  -0.850  0.00  0.00    +0.062 A 
ATOM     17 CL   UNL     1      -0.326   3.856  -1.745  0.00  0.00    -0.082 Cl
ENDBRANCH   9  11
ENDBRANCH   5   7
BRANCH   1  18
ATOM     18  S   UNL     1       5.118   0.820  -0.524  0.00  0.00    +0.032 S 
ATOM     19  O   UNL     1       4.691   2.040   0.066  0.00  0.00    -0.166 OA
ATOM     20  O   UNL     1       6.214   0.097   0.020  0.00  0.00    -0.166 OA
BRANCH  18  22
ATOM     21  C   UNL     1       6.519   1.965  -2.575  0.00  0.00    +0.028 C 
ATOM     22  C   UNL     1       5.335   1.032  -2.312  0.00  0.00    +0.172 C 
ENDBRANCH  18  22
ENDBRANCH   1  18
BRANCH   4  23
ATOM     23  N   UNL     1       0.565  -2.786   0.017  0.00  0.00    -0.312 N 
BRANCH  23  24
ATOM     24  C   UNL     1       0.424  -3.637  -1.172  0.00  0.00    +0.179 C 
BRANCH  24  25
ATOM     25  C   UNL     1       0.082  -2.781  -2.364  0.00  0.00    +0.122 A 
ATOM     26  C   UNL     1       0.959  -2.289  -3.257  0.00  0.00    +0.046 A 
ATOM     27  C   UNL     1       0.210  -1.549  -4.201  0.00  0.00    +0.041 A 
ATOM     28  C   UNL     1      -1.079  -1.633  -3.829  0.00  0.00    +0.195 A 
ATOM     29  O   UNL     1      -1.152  -2.386  -2.719  0.00  0.00    -0.466 OA
ENDBRANCH  24  25
ENDBRANCH  23  24
BRANCH  23  30
ATOM     30  C   UNL     1       0.681  -3.599   1.236  0.00  0.00    +0.180 C 
BRANCH  30  31
ATOM     31  C   UNL     1      -0.650  -4.234   1.545  0.00  0.00    +0.122 A 
ATOM     32  C   UNL     1      -1.036  -5.471   1.183  0.00  0.00    +0.046 A 
ATOM     33  C   UNL     1      -2.348  -5.652   1.678  0.00  0.00    +0.045 A 
ATOM     34  C   UNL     1      -2.686  -4.515   2.313  0.00  0.00    +0.102 A 
ATOM     35  O   UNL     1      -1.652  -3.662   2.234  0.00  0.00    -0.463 OA
ATOM     36  C   UNL     1      -4.000  -4.247   3.000  0.00  0.00    +0.086 C 
ENDBRANCH  30  31
ENDBRANCH  23  30
ENDBRANCH   4  23
TORSDOF 9
