REMARK  Name = ZINC45724979
REMARK  12 active torsions:
REMARK  status: ('A' for Active; 'I' for Inactive)
REMARK    1  A    between atoms: C_1  and  C_2
REMARK    2  A    between atoms: C_2  and  C_3
REMARK    3  A    between atoms: C_2  and  C_4
REMARK    4  A    between atoms: C_4  and  C_5
REMARK    5  A    between atoms: C_8  and  C_11
REMARK    6  A    between atoms: C_11  and  C_13
REMARK    7  A    between atoms: C_11  and  N_16
REMARK    8  A    between atoms: C_13  and  C_14
REMARK    9  A    between atoms: C_13  and  C_15
REMARK   10  A    between atoms: N_19  and  C_20
REMARK   11  A    between atoms: C_25  and  C_26
REMARK   12  A    between atoms: C_26  and  C_27
REMARK                            x       y       z     vdW  Elec       q    Type
REMARK                         _______ _______ _______ _____ _____    ______ ____
ROOT
ATOM      1  N   UNL     1      -0.450  -6.863   0.495  0.00  0.00    -0.292 N 
ATOM      2  C   UNL     1       0.129  -8.058   0.262  0.00  0.00    +0.304 C 
ATOM      3  O   UNL     1      -0.124  -8.668  -0.759  0.00  0.00    -0.252 OA
ATOM      4  N   UNL     1       0.988  -8.578   1.161  0.00  0.00    -0.269 N 
ATOM      5  H   UNL     1      -0.248  -6.377   1.309  0.00  0.00    +0.151 HD
ATOM      6  H   UNL     1       1.253  -8.057   1.936  0.00  0.00    +0.156 HD
ENDROOT
BRANCH   4   7
ATOM      7  C   UNL     1       1.497  -9.868   0.978  0.00  0.00    +0.038 A 
ATOM      8  C   UNL     1       0.790 -10.795   0.224  0.00  0.00    +0.023 A 
ATOM      9  C   UNL     1       1.295 -12.067   0.044  0.00  0.00    +0.002 A 
ATOM     10  C   UNL     1       2.505 -12.419   0.615  0.00  0.00    +0.000 A 
ATOM     11  C   UNL     1       3.212 -11.499   1.367  0.00  0.00    +0.006 A 
ATOM     12  C   UNL     1       2.714 -10.222   1.545  0.00  0.00    -0.017 A 
BRANCH  12  13
ATOM     13  C   UNL     1       3.488  -9.218   2.359  0.00  0.00    +0.132 C 
BRANCH  13  14
ATOM     14  C   UNL     1       2.987  -9.230   3.780  0.00  0.00    +0.215 C 
ATOM     15  O   UNL     1       2.090  -9.981   4.100  0.00  0.00    -0.276 OA
ATOM     16  N   UNL     1       3.537  -8.407   4.695  0.00  0.00    -0.329 N 
ATOM     17  H   UNL     1       4.254  -7.807   4.439  0.00  0.00    +0.145 HD
ATOM     18  H   UNL     1       3.214  -8.415   5.610  0.00  0.00    +0.145 HD
ENDBRANCH  13  14
ENDBRANCH  12  13
ENDBRANCH   4   7
BRANCH   1  19
ATOM     19  C   UNL     1      -1.383  -6.299  -0.483  0.00  0.00    +0.107 C 
BRANCH  19  23
ATOM     20  C   UNL     1      -1.465  -2.046  -0.085  0.00  0.00    -0.047 A 
ATOM     21  C   UNL     1      -1.493  -2.623  -1.340  0.00  0.00    +0.004 A 
ATOM     22  C   UNL     1      -1.466  -4.000  -1.469  0.00  0.00    +0.006 A 
ATOM     23  C   UNL     1      -1.411  -4.798  -0.343  0.00  0.00    -0.027 A 
ATOM     24  C   UNL     1      -1.382  -4.221   0.913  0.00  0.00    +0.006 A 
ATOM     25  C   UNL     1      -1.405  -2.845   1.042  0.00  0.00    +0.004 A 
BRANCH  20  26
ATOM     26  C   UNL     1      -1.494  -0.546   0.056  0.00  0.00    +0.038 C 
BRANCH  26  28
ATOM     27  C   UNL     1      -0.096   1.524   0.067  0.00  0.00    +0.007 C 
ATOM     28  C   UNL     1      -0.063  -0.005   0.050  0.00  0.00    -0.013 C 
ATOM     29  C   UNL     1       0.680  -0.514   1.287  0.00  0.00    +0.007 C 
ENDBRANCH  26  28
ENDBRANCH  20  26
ENDBRANCH  19  23
BRANCH  19  30
ATOM     30  C   UNL     1      -2.784  -6.861  -0.234  0.00  0.00    +0.008 C 
ATOM     31  C   UNL     1      -3.759  -6.271  -1.255  0.00  0.00    +0.009 C 
ATOM     32  C   UNL     1      -2.756  -8.384  -0.377  0.00  0.00    +0.009 C 
ENDBRANCH  19  30
ENDBRANCH   1  19
TORSDOF 8
