REMARK  Name = ZINC09692577
REMARK  12 active torsions:
REMARK  status: ('A' for Active; 'I' for Inactive)
REMARK    1  A    between atoms: C_1  and  C_2
REMARK    2  A    between atoms: C_2  and  C_3
REMARK    3  A    between atoms: C_3  and  C_4
REMARK    4  A    between atoms: C_4  and  N_5
REMARK    5  A    between atoms: N_5  and  C_6
REMARK    6  A    between atoms: C_6  and  C_7
REMARK    7  A    between atoms: C_13  and  C_15
REMARK    8  A    between atoms: C_15  and  C_17
REMARK    9  A    between atoms: C_15  and  N_24
REMARK   10  A    between atoms: C_17  and  C_18
REMARK   11  A    between atoms: N_24  and  S_25
REMARK   12  A    between atoms: S_25  and  C_28
REMARK                            x       y       z     vdW  Elec       q    Type
REMARK                         _______ _______ _______ _____ _____    ______ ____
ROOT
ATOM      1  C   UNL     1       3.289   4.013  -1.685  0.00  0.00    +0.166 C 
ENDROOT
BRANCH   1   3
ATOM      2  N   UNL     1       3.504   6.313  -2.569  0.00  0.00    -0.296 N 
ATOM      3  C   UNL     1       4.022   5.073  -2.466  0.00  0.00    +0.235 C 
ATOM      4  O   UNL     1       5.079   4.811  -3.001  0.00  0.00    -0.274 OA
BRANCH   2   5
ATOM      5  C   UNL     1       2.289   6.662  -1.829  0.00  0.00    +0.108 C 
BRANCH   5   6
ATOM      6  C   UNL     1       2.670   7.257  -0.472  0.00  0.00    +0.019 C 
BRANCH   6   8
ATOM      7  C   UNL     1       1.782   8.216   1.657  0.00  0.00    +0.004 C 
ATOM      8  C   UNL     1       1.401   7.622   0.300  0.00  0.00    -0.002 C 
ENDBRANCH   6   8
ENDBRANCH   5   6
ENDBRANCH   2   5
BRANCH   2   9
ATOM      9  C   UNL     1       4.156   7.311  -3.420  0.00  0.00    +0.142 C 
BRANCH   9  10
ATOM     10  C   UNL     1       3.589   7.231  -4.814  0.00  0.00    -0.030 A 
ATOM     11  C   UNL     1       4.171   6.397  -5.750  0.00  0.00    +0.005 A 
ATOM     12  C   UNL     1       3.647   6.320  -7.027  0.00  0.00    +0.000 A 
ATOM     13  C   UNL     1       2.547   7.084  -7.370  0.00  0.00    +0.000 A 
ATOM     14  C   UNL     1       1.968   7.922  -6.435  0.00  0.00    +0.000 A 
ATOM     15  C   UNL     1       2.489   7.995  -5.157  0.00  0.00    +0.005 A 
ENDBRANCH   9  10
ENDBRANCH   2   9
ENDBRANCH   1   3
BRANCH   1  16
ATOM     16  N   UNL     1       4.218   2.936  -1.332  0.00  0.00    -0.178 NA
ATOM     17  H   UNL     1       4.750   2.509  -2.022  0.00  0.00    +0.149 HD
BRANCH  16  18
ATOM     18  S   UNL     1       4.361   2.449   0.244  0.00  0.00    +0.061 S 
ATOM     19  O   UNL     1       4.470   3.630   1.026  0.00  0.00    -0.153 OA
ATOM     20  O   UNL     1       5.349   1.427   0.265  0.00  0.00    -0.153 OA
BRANCH  18  21
ATOM     21  C   UNL     1       2.838   1.686   0.693  0.00  0.00    +0.133 A 
ATOM     22  C   UNL     1       2.795   0.356   0.945  0.00  0.00    +0.031 A 
ATOM     23  C   UNL     1       1.607  -0.281   1.303  0.00  0.00    +0.004 A 
ATOM     24  C   UNL     1       0.442   0.402   1.415  0.00  0.00    +0.031 A 
ATOM     25  C   UNL     1       0.412   1.799   1.166  0.00  0.00    +0.102 A 
ATOM     26  C   UNL     1       1.655   2.465   0.791  0.00  0.00    +0.126 A 
ATOM     27  N   UNL     1       1.482   3.770   0.588  0.00  0.00    -0.189 NA
ATOM     28  S   UNL     1      -0.037   4.055   0.845  0.00  0.00    +0.117 S 
ATOM     29  N   UNL     1      -0.614   2.646   1.215  0.00  0.00    -0.191 NA
ENDBRANCH  18  21
ENDBRANCH  16  18
ENDBRANCH   1  16
BRANCH   1  30
ATOM     30  C   UNL     1       2.152   3.446  -2.538  0.00  0.00    +0.065 C 
BRANCH  30  31
ATOM     31  C   UNL     1       2.726   2.786  -3.765  0.00  0.00    -0.045 A 
ATOM     32  C   UNL     1       2.924   3.523  -4.918  0.00  0.00    +0.004 A 
ATOM     33  C   UNL     1       3.455   2.918  -6.042  0.00  0.00    +0.000 A 
ATOM     34  C   UNL     1       3.777   1.574  -6.017  0.00  0.00    +0.000 A 
ATOM     35  C   UNL     1       3.574   0.836  -4.866  0.00  0.00    +0.000 A 
ATOM     36  C   UNL     1       3.048   1.442  -3.740  0.00  0.00    +0.004 A 
ENDBRANCH  30  31
ENDBRANCH   1  30
TORSDOF 11
