REMARK  Name = ZINC50567601
REMARK  6 active torsions:
REMARK  status: ('A' for Active; 'I' for Inactive)
REMARK    1  A    between atoms: C_1  and  C_2
REMARK    2  A    between atoms: C_8  and  C_10
REMARK    3  A    between atoms: N_13  and  CA_14
REMARK    4  A    between atoms: CA_14  and  CB_16
REMARK    5  A    between atoms: CA_14  and  C_18
REMARK    6  A    between atoms: CB_16  and  OG_17
REMARK                            x       y       z     vdW  Elec       q    Type
REMARK                         _______ _______ _______ _____ _____    ______ ____
ROOT
ATOM      1  C   UNK A   0      -0.153   1.455   0.232  0.00  0.00    +0.009 C 
ATOM      2  C   UNK A   0      -0.056  -0.064   0.077  0.00  0.00    +0.006 C 
ATOM      3  C   UNK A   0       0.679  -0.399  -1.223  0.00  0.00    +0.006 C 
ATOM      4  C   UNK A   0       0.748  -1.917  -1.396  0.00  0.00    +0.019 C 
ATOM      5  C   UNK A   0       1.530  -2.526  -0.228  0.00  0.00    +0.109 C 
ATOM      6  N   UNK A   0       0.913  -2.089   1.033  0.00  0.00    -0.283 N 
ATOM      7  C   UNK A   0       0.716  -0.651   1.262  0.00  0.00    +0.077 C 
ATOM      8  C   UNK A   0      -0.083  -0.442   2.550  0.00  0.00    +0.028 C 
ATOM      9  C   UNK A   0       0.535  -2.990   1.961  0.00  0.00    +0.303 C 
ATOM     10  O   UNK A   0       0.124  -2.614   3.041  0.00  0.00    -0.253 OA
ATOM     11  N   SER A   1       0.613  -4.309   1.691  0.00  0.00    -0.284 N 
ATOM     12  H   SER A   1       1.010  -4.611   0.859  0.00  0.00    +0.151 HD
ENDROOT
BRANCH  11  13
ATOM     13  CA  SER A   1       0.099  -5.285   2.654  0.00  0.00    +0.213 C 
BRANCH  13  14
ATOM     14  C   SER A   1       1.159  -5.580   3.684  0.00  0.00    +0.378 C 
ATOM     15  O   SER A   1       0.837  -5.890   4.819  0.00  0.00    -0.244 OA
ATOM     16  OXT SER A   1       2.338  -5.510   3.383  0.00  0.00    -0.244 OA
ENDBRANCH  13  14
BRANCH  13  17
ATOM     17  CB  SER A   1      -0.274  -6.576   1.922  0.00  0.00    +0.189 C 
BRANCH  17  18
ATOM     18  OG  SER A   1       0.904  -7.170   1.373  0.00  0.00    -0.393 OA
ATOM     19  H   SER A   1       0.742  -7.994   0.894  0.00  0.00    +0.209 HD
ENDBRANCH  17  18
ENDBRANCH  13  17
ENDBRANCH  11  13
TORSDOF 4
