REMARK  Name = ZINC24911642
REMARK  5 active torsions:
REMARK  status: ('A' for Active; 'I' for Inactive)
REMARK    1  A    between atoms: C_4  and  O_7
REMARK    2  A    between atoms: O_7  and  C_8
REMARK    3  A    between atoms: C_13  and  N_14
REMARK    4  A    between atoms: C_19  and  N_21
REMARK    5  A    between atoms: C_24  and  N_27
REMARK                            x       y       z     vdW  Elec       q    Type
REMARK                         _______ _______ _______ _____ _____    ______ ____
ROOT
ATOM      1  N   UNL     1      -9.649  -1.581   1.018  0.00  0.00    -0.266 N 
ATOM      2  C   UNL     1      -8.818  -2.536   0.555  0.00  0.00    +0.306 C 
ATOM      3  O   UNL     1      -9.047  -3.707   0.791  0.00  0.00    -0.252 OA
ATOM      4  N   UNL     1      -7.734  -2.194  -0.168  0.00  0.00    -0.288 N 
ATOM      5  C   UNL     1      -6.641  -2.947  -0.814  0.00  0.00    +0.095 C 
ATOM      6  C   UNL     1      -6.505  -1.737  -1.756  0.00  0.00    -0.033 C 
ATOM      7  C   UNL     1      -7.163  -0.913  -0.635  0.00  0.00    +0.095 C 
ATOM      8  H   UNL     1      -9.388  -0.519   0.896  0.00  0.00    +0.156 HD
ENDROOT
BRANCH   6   9
ATOM      9  N   UNL     1      -5.113  -1.357  -2.031  0.00  0.00    +0.384 N 
ATOM     10  C   UNL     1      -5.053  -0.172  -2.897  0.00  0.00    -0.076 C 
ATOM     11  C   UNL     1      -3.598   0.109  -3.280  0.00  0.00    +0.006 C 
ATOM     12  C   UNL     1      -2.776   0.339  -2.009  0.00  0.00    +0.089 C 
ATOM     13  C   UNL     1      -2.894  -0.890  -1.104  0.00  0.00    +0.006 C 
ATOM     14  C   UNL     1      -4.370  -1.141  -0.783  0.00  0.00    -0.076 C 
ATOM     15  H   UNL     1      -4.633  -2.188  -2.568  0.00  0.00    -0.081 HD
BRANCH  12  16
ATOM     16  N   UNL     1      -1.371   0.550  -2.367  0.00  0.00    -0.289 N 
ATOM     17  C   UNL     1      -0.621   1.690  -2.086  0.00  0.00    +0.070 A 
ATOM     18  C   UNL     1      -0.909   2.885  -1.444  0.00  0.00    +0.028 A 
ATOM     19  C   UNL     1       0.069   3.853  -1.322  0.00  0.00    +0.002 A 
ATOM     20  C   UNL     1       1.335   3.635  -1.838  0.00  0.00    +0.002 A 
ATOM     21  C   UNL     1       1.631   2.448  -2.478  0.00  0.00    +0.028 A 
ATOM     22  C   UNL     1       0.656   1.470  -2.606  0.00  0.00    +0.067 A 
ATOM     23  N   UNL     1       0.644   0.202  -3.182  0.00  0.00    -0.306 N 
ATOM     24  H   UNL     1       1.552  -0.193  -3.661  0.00  0.00    +0.170 HD
ATOM     25  C   UNL     1      -0.584  -0.325  -3.020  0.00  0.00    +0.328 A 
ATOM     26  O   UNL     1      -0.932  -1.424  -3.410  0.00  0.00    -0.247 OA
ENDBRANCH  12  16
ENDBRANCH   6   9
BRANCH   1  32
ATOM     27  C   UNL     1     -11.946  -1.088   1.603  0.00  0.00    +0.150 A 
ATOM     28  C   UNL     1     -13.128  -1.451   2.229  0.00  0.00    +0.048 A 
ATOM     29  C   UNL     1     -13.208  -2.650   2.912  0.00  0.00    +0.004 A 
ATOM     30  C   UNL     1     -12.114  -3.493   2.968  0.00  0.00    +0.002 A 
ATOM     31  C   UNL     1     -10.933  -3.141   2.342  0.00  0.00    +0.027 A 
ATOM     32  C   UNL     1     -10.845  -1.940   1.654  0.00  0.00    +0.077 A 
BRANCH  27  33
ATOM     33  O   UNL     1     -11.864   0.093   0.935  0.00  0.00    -0.454 OA
BRANCH  33  37
ATOM     34  C   UNL     1     -12.019   0.005  -3.186  0.00  0.00    +0.000 A 
ATOM     35  C   UNL     1     -11.968   1.218  -2.523  0.00  0.00    +0.004 A 
ATOM     36  C   UNL     1     -11.916   1.250  -1.143  0.00  0.00    +0.046 A 
ATOM     37  C   UNL     1     -11.915   0.064  -0.422  0.00  0.00    +0.129 A 
ATOM     38  C   UNL     1     -11.960  -1.151  -1.090  0.00  0.00    +0.046 A 
ATOM     39  C   UNL     1     -12.018  -1.178  -2.470  0.00  0.00    +0.004 A 
ENDBRANCH  33  37
ENDBRANCH  27  33
ENDBRANCH   1  32
TORSDOF 5
