REMARK  Name = ZINC17853349
REMARK  8 active torsions:
REMARK  status: ('A' for Active; 'I' for Inactive)
REMARK    1  A    between atoms: C_1  and  C_2
REMARK    2  A    between atoms: C_2  and  C_4
REMARK    3  A    between atoms: C_2  and  N_14
REMARK    4  A    between atoms: C_7  and  S_10
REMARK    5  A    between atoms: S_10  and  N_13
REMARK    6  A    between atoms: C_15  and  C_17
REMARK    7  A    between atoms: C_17  and  C_18
REMARK    8  A    between atoms: C_21  and  N_24
REMARK                            x       y       z     vdW  Elec       q    Type
REMARK                         _______ _______ _______ _____ _____    ______ ____
ROOT
ATOM      1  N   UNL     1       5.276  -1.612  -1.726  0.00  0.00    -0.308 N 
ATOM      2  C   UNL     1       4.125  -0.962  -1.464  0.00  0.00    +0.218 C 
ATOM      3  O   UNL     1       3.422  -0.583  -2.377  0.00  0.00    -0.275 OA
ATOM      4  H   UNL     1       5.838  -1.915  -0.996  0.00  0.00    +0.149 HD
ENDROOT
BRANCH   1   6
ATOM      5  C   UNL     1       5.012  -3.142  -3.615  0.00  0.00    +0.033 C 
ATOM      6  C   UNL     1       5.679  -1.860  -3.112  0.00  0.00    +0.100 C 
BRANCH   6   7
ATOM      7  C   UNL     1       7.176  -2.013  -3.180  0.00  0.00    -0.027 A 
ATOM      8  C   UNL     1       7.847  -2.704  -2.188  0.00  0.00    +0.007 A 
ATOM      9  C   UNL     1       9.220  -2.848  -2.254  0.00  0.00    +0.029 A 
ATOM     10  C   UNL     1       9.924  -2.292  -3.306  0.00  0.00    +0.105 A 
ATOM     11  C   UNL     1       9.254  -1.597  -4.295  0.00  0.00    +0.029 A 
ATOM     12  C   UNL     1       7.880  -1.458  -4.232  0.00  0.00    +0.007 A 
BRANCH  10  13
ATOM     13  S   UNL     1      11.675  -2.470  -3.385  0.00  0.00    +0.056 S 
ATOM     14  O   UNL     1      12.001  -3.628  -2.628  0.00  0.00    -0.153 OA
ATOM     15  O   UNL     1      12.037  -2.326  -4.752  0.00  0.00    -0.153 OA
BRANCH  13  16
ATOM     16  N   UNL     1      12.335  -1.179  -2.583  0.00  0.00    -0.204 NA
ATOM     17  H   UNL     1      11.758  -0.511  -2.183  0.00  0.00    +0.144 HD
ATOM     18  H   UNL     1      13.299  -1.093  -2.514  0.00  0.00    +0.144 HD
ENDBRANCH  13  16
ENDBRANCH  10  13
ENDBRANCH   6   7
ENDBRANCH   1   6
BRANCH   2  19
ATOM     19  C   UNL     1       3.710  -0.707  -0.038  0.00  0.00    +0.130 C 
BRANCH  19  20
ATOM     20  C   UNL     1       2.396   0.031  -0.021  0.00  0.00    -0.039 A 
ATOM     21  C   UNL     1       1.208  -0.677   0.004  0.00  0.00    +0.006 A 
ATOM     22  C   UNL     1       0.002  -0.004   0.019  0.00  0.00    +0.024 A 
ATOM     23  C   UNL     1      -0.017   1.385   0.010  0.00  0.00    +0.036 A 
ATOM     24  C   UNL     1       1.178   2.092  -0.015  0.00  0.00    +0.024 A 
ATOM     25  C   UNL     1       2.381   1.413  -0.031  0.00  0.00    +0.006 A 
BRANCH  23  26
ATOM     26  N   UNL     1      -1.237   2.069   0.019  0.00  0.00    -0.271 N 
ATOM     27  C   UNL     1      -2.550   1.422  -0.084  0.00  0.00    +0.114 C 
ATOM     28  C   UNL     1      -3.536   2.548  -0.467  0.00  0.00    +0.029 C 
ATOM     29  C   UNL     1      -2.817   3.799   0.090  0.00  0.00    +0.098 C 
ATOM     30  C   UNL     1      -1.357   3.403   0.130  0.00  0.00    +0.220 C 
ATOM     31  O   UNL     1      -0.430   4.178   0.241  0.00  0.00    -0.275 OA
ENDBRANCH  23  26
ENDBRANCH  19  20
ENDBRANCH   2  19
TORSDOF 7
