REMARK  Name = ZINC35592231
REMARK  9 active torsions:
REMARK  status: ('A' for Active; 'I' for Inactive)
REMARK    1  A    between atoms: C_1  and  O_2
REMARK    2  A    between atoms: O_2  and  C_3
REMARK    3  A    between atoms: C_8  and  N_9
REMARK    4  A    between atoms: N_12  and  C_13
REMARK    5  A    between atoms: N_12  and  C_32
REMARK    6  A    between atoms: C_13  and  C_14
REMARK    7  A    between atoms: C_19  and  O_20
REMARK    8  A    between atoms: O_20  and  S_21
REMARK    9  A    between atoms: S_21  and  C_24
REMARK                            x       y       z     vdW  Elec       q    Type
REMARK                         _______ _______ _______ _____ _____    ______ ____
ROOT
ATOM      1  C   UNL     1      -1.371  -6.905  -0.327  0.00  0.00    +0.016 A 
ATOM      2  C   UNL     1      -1.391  -7.307   0.995  0.00  0.00    +0.029 A 
ATOM      3  C   UNL     1      -2.541  -7.854   1.535  0.00  0.00    +0.042 A 
ATOM      4  C   UNL     1      -3.674  -8.000   0.754  0.00  0.00    +0.023 A 
ATOM      5  C   UNL     1      -3.658  -7.599  -0.568  0.00  0.00    +0.050 A 
ATOM      6  C   UNL     1      -2.507  -7.045  -1.111  0.00  0.00    +0.162 A 
ATOM      7 CL   UNL     1      -2.563  -8.358   3.196  0.00  0.00    -0.084 Cl
ENDROOT
BRANCH   1   8
ATOM      8  C   UNL     1      -0.118  -6.309  -0.916  0.00  0.00    +0.148 C 
BRANCH   8  12
ATOM      9  N   UNL     1      -0.038  -2.792   0.145  0.00  0.00    -0.266 N 
ATOM     10  C   UNL     1       0.182  -4.122   0.114  0.00  0.00    +0.307 C 
ATOM     11  O   UNL     1       0.760  -4.664   1.036  0.00  0.00    -0.252 OA
ATOM     12  N   UNL     1      -0.237  -4.849  -0.940  0.00  0.00    -0.278 N 
ATOM     13  H   UNL     1      -0.560  -2.370  -0.555  0.00  0.00    +0.156 HD
BRANCH   9  19
ATOM     14  C   UNL     1       0.819  -0.685   0.973  0.00  0.00    +0.141 A 
ATOM     15  C   UNL     1       1.332   0.076   2.011  0.00  0.00    +0.047 A 
ATOM     16  C   UNL     1       1.518  -0.491   3.258  0.00  0.00    +0.004 A 
ATOM     17  C   UNL     1       1.193  -1.818   3.473  0.00  0.00    +0.002 A 
ATOM     18  C   UNL     1       0.681  -2.583   2.443  0.00  0.00    +0.027 A 
ATOM     19  C   UNL     1       0.486  -2.019   1.190  0.00  0.00    +0.077 A 
BRANCH  14  21
ATOM     20  C   UNL     1       1.000   1.246  -0.405  0.00  0.00    +0.277 C 
ATOM     21  O   UNL     1       0.636  -0.128  -0.255  0.00  0.00    -0.493 OA
ENDBRANCH  14  21
ENDBRANCH   9  19
BRANCH  12  22
ATOM     22  C   UNL     1      -0.811  -4.181  -2.111  0.00  0.00    +0.078 C 
ATOM     23  C   UNL     1      -0.285  -4.591  -3.487  0.00  0.00    +0.024 C 
ATOM     24  C   UNL     1       0.096  -3.232  -2.898  0.00  0.00    +0.024 C 
ENDBRANCH  12  22
ENDBRANCH   8  12
ENDBRANCH   1   8
BRANCH   6  25
ATOM     25  O   UNL     1      -2.492  -6.645  -2.409  0.00  0.00    -0.342 OA
BRANCH  25  26
ATOM     26  S   UNL     1      -2.063  -7.730  -3.386  0.00  0.00    +0.151 S 
ATOM     27  O   UNL     1      -1.901  -7.099  -4.649  0.00  0.00    -0.131 OA
ATOM     28  O   UNL     1      -1.014  -8.453  -2.756  0.00  0.00    -0.131 OA
BRANCH  26  29
ATOM     29  C   UNL     1      -3.416  -8.847  -3.552  0.00  0.00    +0.128 A 
ATOM     30  C   UNL     1      -3.523  -9.932  -2.703  0.00  0.00    +0.033 A 
ATOM     31  C   UNL     1      -4.584 -10.809  -2.831  0.00  0.00    +0.040 A 
ATOM     32  C   UNL     1      -5.540 -10.599  -3.811  0.00  0.00    +0.124 A 
ATOM     33  C   UNL     1      -5.431  -9.511  -4.661  0.00  0.00    +0.040 A 
ATOM     34  C   UNL     1      -4.372  -8.633  -4.527  0.00  0.00    +0.033 A 
ATOM     35  F   UNL     1      -6.577 -11.455  -3.938  0.00  0.00    -0.205 F 
ENDBRANCH  26  29
ENDBRANCH  25  26
ENDBRANCH   6  25
TORSDOF 8
