REMARK  Name = ZINC36055589
REMARK  14 active torsions:
REMARK  status: ('A' for Active; 'I' for Inactive)
REMARK    1  A    between atoms: C_1  and  C_2
REMARK    2  A    between atoms: C_2  and  C_3
REMARK    3  A    between atoms: C_2  and  N_4
REMARK    4  A    between atoms: N_4  and  C_5
REMARK    5  A    between atoms: C_5  and  C_6
REMARK    6  A    between atoms: C_11  and  C_22
REMARK    7  A    between atoms: N_13  and  C_14
REMARK    8  A    between atoms: C_17  and  O_20
REMARK    9  A    between atoms: O_20  and  C_21
REMARK   10  A    between atoms: C_25  and  O_28
REMARK   11  A    between atoms: O_28  and  C_29
REMARK   12  A    between atoms: C_30  and  C_32
REMARK   13  A    between atoms: C_35  and  O_38
REMARK   14  A    between atoms: O_38  and  C_39
REMARK                            x       y       z     vdW  Elec       q    Type
REMARK                         _______ _______ _______ _____ _____    ______ ____
ROOT
ATOM      1  C   UNL     1      -2.404  -1.649   2.091  0.00  0.00    +0.237 C 
ATOM      2  O   UNL     1      -1.486  -1.474   2.865  0.00  0.00    -0.274 OA
ATOM      3  N   UNL     1      -3.350  -2.568   2.364  0.00  0.00    -0.254 N 
ATOM      4  C   UNL     1      -3.275  -3.317   3.531  0.00  0.00    +0.207 A 
ATOM      5  N   UNL     1      -2.341  -3.217   4.444  0.00  0.00    -0.214 NA
ATOM      6  C   UNL     1      -2.590  -4.098   5.436  0.00  0.00    +0.091 A 
ATOM      7  C   UNL     1      -3.727  -4.771   5.123  0.00  0.00    +0.122 A 
ATOM      8  N   UNL     1      -4.165  -4.274   3.920  0.00  0.00    -0.287 N 
ATOM      9  H   UNL     1      -4.084  -2.708   1.744  0.00  0.00    +0.158 HD
ENDROOT
BRANCH   8  10
ATOM     10  C   UNL     1      -5.313  -4.677   3.220  0.00  0.00    +0.049 A 
ATOM     11  C   UNL     1      -6.211  -3.727   2.753  0.00  0.00    +0.030 A 
ATOM     12  C   UNL     1      -7.340  -4.125   2.064  0.00  0.00    +0.047 A 
ATOM     13  C   UNL     1      -7.577  -5.473   1.840  0.00  0.00    +0.120 A 
ATOM     14  C   UNL     1      -6.680  -6.423   2.308  0.00  0.00    +0.047 A 
ATOM     15  C   UNL     1      -5.547  -6.026   2.990  0.00  0.00    +0.030 A 
BRANCH  13  16
ATOM     16  O   UNL     1      -8.689  -5.864   1.163  0.00  0.00    -0.495 OA
ATOM     17  C   UNL     1      -8.870  -7.268   0.968  0.00  0.00    +0.277 C 
ENDBRANCH  13  16
ENDBRANCH   8  10
BRANCH   6  18
ATOM     18  C   UNL     1      -1.766  -4.296   6.653  0.00  0.00    +0.002 A 
ATOM     19  C   UNL     1      -2.137  -5.250   7.600  0.00  0.00    +0.013 A 
ATOM     20  C   UNL     1      -1.369  -5.432   8.731  0.00  0.00    +0.046 A 
ATOM     21  C   UNL     1      -0.228  -4.667   8.927  0.00  0.00    +0.120 A 
ATOM     22  C   UNL     1       0.144  -3.716   7.986  0.00  0.00    +0.046 A 
ATOM     23  C   UNL     1      -0.617  -3.534   6.851  0.00  0.00    +0.013 A 
BRANCH  21  24
ATOM     24  O   UNL     1       0.526  -4.848  10.043  0.00  0.00    -0.495 OA
ATOM     25  C   UNL     1       1.688  -4.027  10.181  0.00  0.00    +0.277 C 
ENDBRANCH  21  24
ENDBRANCH   6  18
BRANCH   1  26
ATOM     26  C   UNL     1      -2.485  -0.836   0.825  0.00  0.00    +0.204 C 
BRANCH  26  27
ATOM     27  N   UNL     1      -1.348   0.086   0.762  0.00  0.00    -0.286 N 
ATOM     28  C   UNL     1      -1.452   1.320   1.293  0.00  0.00    +0.247 C 
ATOM     29  O   UNL     1      -2.506   1.922   1.232  0.00  0.00    -0.270 OA
BRANCH  28  30
ATOM     30  C   UNL     1      -0.284   1.942   1.948  0.00  0.00    +0.037 A 
ATOM     31  C   UNL     1       1.009   1.615   1.533  0.00  0.00    +0.016 A 
ATOM     32  C   UNL     1       2.096   2.197   2.146  0.00  0.00    +0.046 A 
ATOM     33  C   UNL     1       1.907   3.109   3.178  0.00  0.00    +0.120 A 
ATOM     34  C   UNL     1       0.622   3.437   3.595  0.00  0.00    +0.046 A 
ATOM     35  C   UNL     1      -0.469   2.863   2.982  0.00  0.00    +0.016 A 
BRANCH  33  36
ATOM     36  O   UNL     1       2.981   3.680   3.781  0.00  0.00    -0.495 OA
ATOM     37  C   UNL     1       2.715   4.609   4.835  0.00  0.00    +0.277 C 
ENDBRANCH  33  36
ENDBRANCH  28  30
BRANCH  27  39
ATOM     38  C   UNL     1       0.459   0.820  -0.713  0.00  0.00    +0.028 C 
ATOM     39  C   UNL     1      -0.099  -0.334   0.122  0.00  0.00    +0.071 C 
ATOM     40  C   UNL     1       0.918  -0.725   1.196  0.00  0.00    +0.028 C 
ENDBRANCH  27  39
ENDBRANCH  26  27
ENDBRANCH   1  26
TORSDOF 9
