REMARK  Name = ZINC00885477
REMARK  5 active torsions:
REMARK  status: ('A' for Active; 'I' for Inactive)
REMARK    1  A    between atoms: C_1  and  C_2
REMARK    2  A    between atoms: C_7  and  N_8
REMARK    3  A    between atoms: N_8  and  C_9
REMARK    4  A    between atoms: C_12  and  C_27
REMARK    5  A    between atoms: C_15  and  C_23
REMARK                            x       y       z     vdW  Elec       q    Type
REMARK                         _______ _______ _______ _____ _____    ______ ____
ROOT
ATOM      1  C   UNL     1       0.446  -0.648   3.549  0.00  0.00    +0.246 C 
ATOM      2  O   UNL     1       0.516  -1.988   3.412  0.00  0.00    -0.270 OA
ATOM      3  C   UNL     1       0.182  -0.092   4.787  0.00  0.00    +0.040 C 
ATOM      4  C   UNL     1      -0.065   1.266   4.899  0.00  0.00    +0.037 C 
ATOM      5  N   UNL     1      -0.226   1.840   6.076  0.00  0.00    -0.215 NA
ATOM      6  C   UNL     1       0.034   1.210   7.211  0.00  0.00    +0.087 C 
ATOM      7  C   UNL     1       0.654  -0.162   7.221  0.00  0.00    +0.139 C 
ATOM      8  C   UNL     1       0.156  -0.966   6.016  0.00  0.00    +0.019 C 
ATOM      9  C   UNL     1       1.065  -2.177   5.800  0.00  0.00    +0.013 C 
ATOM     10  C   UNL     1       1.037  -3.065   7.046  0.00  0.00    +0.001 C 
ATOM     11  C   UNL     1      -0.395  -3.541   7.301  0.00  0.00    +0.000 C 
ATOM     12  C   UNL     1      -1.304  -2.329   7.517  0.00  0.00    +0.001 C 
ATOM     13  C   UNL     1      -1.276  -1.443   6.270  0.00  0.00    +0.013 C 
ATOM     14  S   UNL     1      -0.341   1.972   8.698  0.00  0.00    -0.037 S 
ATOM     15  C   UNL     1      -0.150   2.106   3.650  0.00  0.00    +0.063 C 
ENDROOT
BRANCH   7  16
ATOM     16  C   UNL     1       2.154  -0.034   7.155  0.00  0.00    +0.221 C 
ATOM     17  O   UNL     1       2.670   0.585   6.248  0.00  0.00    -0.275 OA
ATOM     18  N   UNL     1       2.921  -0.606   8.104  0.00  0.00    -0.329 N 
ATOM     19  H   UNL     1       2.508  -1.101   8.829  0.00  0.00    +0.145 HD
ATOM     20  H   UNL     1       3.887  -0.524   8.061  0.00  0.00    +0.145 HD
ENDBRANCH   7  16
BRANCH   1  21
ATOM     21  N   UNL     1       0.636   0.160   2.464  0.00  0.00    -0.281 N 
ATOM     22  H   UNL     1      -0.082   0.736   2.157  0.00  0.00    +0.155 HD
BRANCH  21  29
ATOM     23  C   UNL     1       0.861   1.661   0.057  0.00  0.00    +0.045 C 
ATOM     24  C   UNL     1       2.018   0.875   0.618  0.00  0.00    -0.029 A 
ATOM     25  C   UNL     1       3.235   0.875  -0.036  0.00  0.00    +0.005 A 
ATOM     26  C   UNL     1       4.297   0.154   0.478  0.00  0.00    +0.000 A 
ATOM     27  C   UNL     1       4.145  -0.568   1.648  0.00  0.00    +0.002 A 
ATOM     28  C   UNL     1       2.932  -0.572   2.307  0.00  0.00    +0.023 A 
ATOM     29  C   UNL     1       1.864   0.156   1.796  0.00  0.00    +0.037 A 
ENDBRANCH  21  29
ENDBRANCH   1  21
TORSDOF 3
