REMARK  Name = ZINC38931894
REMARK  7 active torsions:
REMARK  status: ('A' for Active; 'I' for Inactive)
REMARK    1  A    between atoms: C_1  and  C_2
REMARK    2  A    between atoms: C_2  and  O_3
REMARK    3  A    between atoms: O_3  and  C_4
REMARK    4  A    between atoms: C_4  and  C_6
REMARK    5  A    between atoms: C_6  and  N_7
REMARK    6  A    between atoms: N_16  and  C_17
REMARK    7  A    between atoms: C_17  and  C_19
REMARK                            x       y       z     vdW  Elec       q    Type
REMARK                         _______ _______ _______ _____ _____    ______ ____
ROOT
ATOM      1  N   UNL     1       1.497  -3.844   2.426  0.00  0.00    -0.308 N 
ATOM      2  C   UNL     1       0.451  -4.550   2.997  0.00  0.00    +0.094 A 
ATOM      3  C   UNL     1      -0.663  -4.028   3.680  0.00  0.00    +0.151 A 
ATOM      4  C   UNL     1      -1.629  -4.860   4.197  0.00  0.00    +0.078 A 
ATOM      5  C   UNL     1      -1.536  -6.238   4.063  0.00  0.00    +0.127 A 
ATOM      6  C   UNL     1      -0.450  -6.778   3.395  0.00  0.00    +0.055 A 
ATOM      7  C   UNL     1       0.514  -5.945   2.878  0.00  0.00    +0.044 A 
ATOM      8  S   UNL     1       2.023  -6.213   1.979  0.00  0.00    -0.052 S 
ATOM      9  C   UNL     1       2.505  -4.504   1.791  0.00  0.00    +0.167 A 
ATOM     10  N   UNL     1       3.576  -4.004   1.186  0.00  0.00    -0.152 NA
ATOM     11  F   UNL     1      -2.493  -7.041   4.577  0.00  0.00    -0.205 F 
ATOM     12  F   UNL     1      -0.786  -2.691   3.831  0.00  0.00    -0.203 F 
ENDROOT
BRANCH  10  13
ATOM     13  C   UNL     1       4.466  -4.824   0.612  0.00  0.00    +0.271 C 
ATOM     14  O   UNL     1       4.292  -6.031   0.645  0.00  0.00    -0.268 OA
BRANCH  13  15
ATOM     15  C   UNL     1       5.655  -4.269  -0.059  0.00  0.00    +0.064 A 
ATOM     16  C   UNL     1       5.986  -2.953  -0.171  0.00  0.00    +0.096 A 
ATOM     17  N   UNL     1       7.151  -2.830  -0.856  0.00  0.00    -0.360 N 
ATOM     18  H   UNL     1       7.587  -1.988  -1.060  0.00  0.00    +0.165 HD
ATOM     19  C   UNL     1       7.628  -4.072  -1.219  0.00  0.00    +0.047 A 
ATOM     20  C   UNL     1       6.721  -5.029  -0.734  0.00  0.00    +0.012 A 
ATOM     21  C   UNL     1       6.954  -6.385  -0.951  0.00  0.00    +0.011 A 
ATOM     22  C   UNL     1       8.079  -6.782  -1.640  0.00  0.00    +0.001 A 
ATOM     23  C   UNL     1       8.978  -5.838  -2.116  0.00  0.00    +0.002 A 
ATOM     24  C   UNL     1       8.755  -4.493  -1.917  0.00  0.00    +0.026 A 
ENDBRANCH  13  15
ENDBRANCH  10  13
BRANCH   1  25
ATOM     25  C   UNL     1       1.516  -2.381   2.500  0.00  0.00    +0.244 C 
BRANCH  25  26
ATOM     26  C   UNL     1       0.801  -1.808   1.304  0.00  0.00    +0.327 C 
ATOM     27  O   UNL     1       0.324  -2.546   0.475  0.00  0.00    -0.249 OA
BRANCH  26  28
ATOM     28  O   UNL     1       0.693  -0.477   1.160  0.00  0.00    -0.464 OA
BRANCH  28  30
ATOM     29  C   UNL     1      -0.019   1.526   0.010  0.00  0.00    +0.048 C 
ATOM     30  C   UNL     1       0.002  -0.004   0.002  0.00  0.00    +0.229 C 
ENDBRANCH  28  30
ENDBRANCH  26  28
ENDBRANCH  25  26
ENDBRANCH   1  25
TORSDOF 6
