REMARK  Name = ZINC64669176
REMARK  5 active torsions:
REMARK  status: ('A' for Active; 'I' for Inactive)
REMARK    1  A    between atoms: C_1  and  C_2
REMARK    2  A    between atoms: C_2  and  C_3
REMARK    3  A    between atoms: C_5  and  C_8
REMARK    4  A    between atoms: C_11  and  C_14
REMARK    5  A    between atoms: C_16  and  C_19
REMARK                            x       y       z     vdW  Elec       q    Type
REMARK                         _______ _______ _______ _____ _____    ______ ____
ROOT
ATOM      1  C   UNL     1       0.461  -1.553   4.721  0.00  0.00    +0.001 A 
ATOM      2  C   UNL     1       1.310  -2.000   5.734  0.00  0.00    +0.011 A 
ATOM      3  C   UNL     1       0.798  -2.304   6.976  0.00  0.00    +0.012 A 
ATOM      4  C   UNL     1      -0.568  -2.167   7.221  0.00  0.00    +0.022 A 
ATOM      5  C   UNL     1      -1.416  -1.721   6.208  0.00  0.00    +0.012 A 
ATOM      6  C   UNL     1      -0.904  -1.410   4.968  0.00  0.00    +0.011 A 
ENDROOT
BRANCH   1   9
ATOM      7  C   UNL     1       0.731  -0.503   1.223  0.00  0.00    +0.079 A 
ATOM      8  N   UNL     1       0.237  -0.791   2.399  0.00  0.00    -0.244 NA
ATOM      9  C   UNL     1       1.011  -1.224   3.385  0.00  0.00    +0.078 A 
ATOM     10  C   UNL     1       2.346  -1.351   3.103  0.00  0.00    +0.075 A 
ATOM     11  S   UNL     1       2.373  -0.830   1.395  0.00  0.00    -0.080 S 
BRANCH   7  13
ATOM     12  C   UNL     1      -0.019   1.526   0.010  0.00  0.00    +0.011 C 
ATOM     13  C   UNL     1       0.002  -0.004   0.002  0.00  0.00    +0.059 C 
ENDBRANCH   7  13
ENDBRANCH   1   9
BRANCH   4  14
ATOM     14  C   UNL     1      -1.118  -2.496   8.559  0.00  0.00    +0.202 A 
ATOM     15  N   UNL     1      -2.410  -2.410   8.915  0.00  0.00    -0.187 NA
ATOM     16  C   UNL     1      -2.554  -2.775  10.167  0.00  0.00    +0.259 A 
ATOM     17  O   UNL     1      -1.344  -3.107  10.651  0.00  0.00    -0.332 OA
ATOM     18  N   UNL     1      -0.423  -2.923   9.586  0.00  0.00    -0.056 NA
BRANCH  16  19
ATOM     19  C   UNL     1      -3.827  -2.813  10.917  0.00  0.00    +0.042 A 
ATOM     20  C   UNL     1      -5.020  -2.445  10.293  0.00  0.00    +0.013 A 
ATOM     21  C   UNL     1      -6.205  -2.482  10.997  0.00  0.00    +0.004 A 
ATOM     22  C   UNL     1      -6.215  -2.883  12.321  0.00  0.00    +0.038 A 
ATOM     23  C   UNL     1      -5.035  -3.250  12.948  0.00  0.00    +0.124 A 
ATOM     24  C   UNL     1      -3.842  -3.222  12.251  0.00  0.00    +0.051 A 
ATOM     25  F   UNL     1      -5.052  -3.641  14.241  0.00  0.00    -0.205 F 
ENDBRANCH  16  19
ENDBRANCH   4  14
TORSDOF 4
