REMARK  Name = ZINC62946416
REMARK  3 active torsions:
REMARK  status: ('A' for Active; 'I' for Inactive)
REMARK    1  A    between atoms: C_5  and  C_6
REMARK    2  A    between atoms: N_8  and  C_9
REMARK    3  A    between atoms: C_11  and  C_15
REMARK                            x       y       z     vdW  Elec       q    Type
REMARK                         _______ _______ _______ _____ _____    ______ ____
ROOT
ATOM      1  C   UNL     1       0.267  -2.612  -0.598  0.00  0.00    +0.255 C 
ATOM      2  O   UNL     1       0.378  -3.698  -1.136  0.00  0.00    -0.269 OA
ATOM      3  N   UNL     1      -0.892  -2.270  -0.001  0.00  0.00    -0.280 N 
ATOM      4  H   UNL     1      -0.959  -1.434   0.486  0.00  0.00    +0.155 HD
ENDROOT
BRANCH   1   9
ATOM      5  C   UNL     1       2.658  -1.830  -1.148  0.00  0.00    +0.022 A 
ATOM      6  C   UNL     1       3.513  -0.767  -0.987  0.00  0.00    +0.024 A 
ATOM      7  C   UNL     1       3.079   0.333  -0.319  0.00  0.00    +0.056 A 
ATOM      8  S   UNL     1       1.498  -0.043   0.109  0.00  0.00    -0.077 S 
ATOM      9  C   UNL     1       1.394  -1.676  -0.598  0.00  0.00    +0.075 A 
ATOM     10 BR   UNL     1       4.035   1.923   0.045  0.00  0.00    -0.043 Br
ENDBRANCH   1   9
BRANCH   3  11
ATOM     11  C   UNL     1      -1.999  -3.122  -0.085  0.00  0.00    +0.053 A 
ATOM     12  C   UNL     1      -1.828  -4.501  -0.083  0.00  0.00    +0.041 A 
ATOM     13  C   UNL     1      -2.968  -5.310  -0.169  0.00  0.00    +0.083 A 
ATOM     14  C   UNL     1      -4.223  -4.702  -0.253  0.00  0.00    +0.126 A 
ATOM     15  N   UNL     1      -4.336  -3.390  -0.251  0.00  0.00    -0.261 NA
ATOM     16  C   UNL     1      -3.284  -2.599  -0.166  0.00  0.00    +0.134 A 
BRANCH  13  17
ATOM     17  C   UNL     1      -2.845  -6.780  -0.172  0.00  0.00    +0.388 C 
ATOM     18  O   UNL     1      -1.742  -7.302  -0.099  0.00  0.00    -0.241 OA
ATOM     19  O   UNL     1      -3.847  -7.477  -0.247  0.00  0.00    -0.241 OA
ENDBRANCH  13  17
ENDBRANCH   3  11
TORSDOF 3
