REMARK  Name = ZINC17054333
REMARK  3 active torsions:
REMARK  status: ('A' for Active; 'I' for Inactive)
REMARK    1  A    between atoms: C_1  and  C_2
REMARK    2  A    between atoms: C_5  and  C_7
REMARK    3  A    between atoms: N_9  and  N_10
REMARK                            x       y       z     vdW  Elec       q    Type
REMARK                         _______ _______ _______ _____ _____    ______ ____
ROOT
ATOM      1  N   UNL     1       2.959  -5.398  -0.040  0.00  0.00    -0.199 N 
ATOM      2  C   UNL     1       3.499  -5.902   1.092  0.00  0.00    +0.280 A 
ATOM      3  O   UNL     1       3.519  -5.180   2.227  0.00  0.00    -0.265 OA
ATOM      4  C   UNL     1       4.040  -7.202   1.053  0.00  0.00    +0.066 A 
ATOM      5  C   UNL     1       4.617  -7.796   2.183  0.00  0.00    +0.015 A 
ATOM      6  C   UNL     1       5.127  -9.058   2.092  0.00  0.00    +0.001 A 
ATOM      7  C   UNL     1       5.081  -9.764   0.892  0.00  0.00    +0.002 A 
ATOM      8  C   UNL     1       4.526  -9.215  -0.226  0.00  0.00    +0.028 A 
ATOM      9  C   UNL     1       3.992  -7.920  -0.172  0.00  0.00    +0.079 A 
ATOM     10  N   UNL     1       3.437  -7.343  -1.247  0.00  0.00    -0.221 NA
ATOM     11  C   UNL     1       2.933  -6.120  -1.173  0.00  0.00    +0.201 A 
ATOM     12  S   UNL     1       2.230  -5.432  -2.574  0.00  0.00    -0.009 S 
ENDROOT
BRANCH   1  15
ATOM     13  C   UNL     1       1.076  -3.942  -0.024  0.00  0.00    +0.269 C 
ATOM     14  O   UNL     1       0.342  -4.913  -0.026  0.00  0.00    -0.268 OA
ATOM     15  N   UNL     1       2.413  -4.108  -0.031  0.00  0.00    -0.214 N 
ATOM     16  H   UNL     1       2.998  -3.334  -0.029  0.00  0.00    +0.176 HD
BRANCH  13  21
ATOM     17  C   UNL     1      -0.018   1.503   0.010  0.00  0.00    +0.051 C 
ATOM     18  C   UNL     1       0.002  -0.004   0.002  0.00  0.00    -0.013 A 
ATOM     19  C   UNL     1      -1.056  -0.852   0.002  0.00  0.00    +0.012 A 
ATOM     20  C   UNL     1      -0.827  -2.207  -0.006  0.00  0.00    +0.021 A 
ATOM     21  C   UNL     1       0.505  -2.592  -0.014  0.00  0.00    +0.076 A 
ATOM     22  S   UNL     1       1.341  -1.018  -0.017  0.00  0.00    -0.089 S 
ENDBRANCH  13  21
ENDBRANCH   1  15
TORSDOF 2
