REMARK  Name = ZINC14156362
REMARK  5 active torsions:
REMARK  status: ('A' for Active; 'I' for Inactive)
REMARK    1  A    between atoms: C_1  and  C_2
REMARK    2  A    between atoms: C_4  and  C_28
REMARK    3  A    between atoms: N_10  and  C_11
REMARK    4  A    between atoms: N_13  and  C_14
REMARK    5  A    between atoms: N_24  and  C_25
REMARK                            x       y       z     vdW  Elec       q    Type
REMARK                         _______ _______ _______ _____ _____    ______ ____
ROOT
ATOM      1  C   UNL     1      -7.999   5.652   4.390  0.00  0.00    +0.066 C 
ATOM      2  C   UNL     1      -8.674   4.937   3.248  0.00  0.00    +0.044 A 
ATOM      3  C   UNL     1      -9.800   5.479   2.649  0.00  0.00    +0.046 A 
ATOM      4  C   UNL     1     -10.389   4.789   1.601  0.00  0.00    +0.044 A 
ATOM      5  N   UNL     1      -9.863   3.641   1.208  0.00  0.00    -0.217 NA
ATOM      6  C   UNL     1      -8.786   3.151   1.802  0.00  0.00    +0.231 A 
ATOM      7  N   UNL     1      -8.202   3.782   2.809  0.00  0.00    -0.217 NA
ATOM      8  N   UNL     1      -8.260   1.943   1.363  0.00  0.00    -0.297 N 
ATOM      9  C   UNL     1      -7.255   1.338   2.067  0.00  0.00    +0.198 C 
ATOM     10  N   UNL     1      -6.684   0.242   1.596  0.00  0.00    -0.130 NA
ATOM     11  N   UNL     1      -6.841   1.866   3.255  0.00  0.00    -0.355 N 
ATOM     12  C   UNL     1     -11.615   5.340   0.918  0.00  0.00    +0.066 C 
ATOM     13  H   UNL     1      -8.606   1.528   0.558  0.00  0.00    +0.171 HD
ATOM     14  H   UNL     1      -7.437   1.863   4.021  0.00  0.00    +0.163 HD
ENDROOT
BRANCH  10  15
ATOM     15  C   UNL     1      -5.783  -0.416   2.339  0.00  0.00    +0.327 C 
ATOM     16  O   UNL     1      -5.505  -0.017   3.455  0.00  0.00    -0.251 OA
ATOM     17  N   UNL     1      -5.184  -1.520   1.849  0.00  0.00    -0.292 N 
ATOM     18  H   UNL     1      -5.406  -1.838   0.960  0.00  0.00    +0.151 HD
BRANCH  17  19
ATOM     19  C   UNL     1      -4.199  -2.240   2.660  0.00  0.00    +0.037 C 
ATOM     20  C   UNL     1      -3.676  -3.446   1.877  0.00  0.00    +0.029 C 
ATOM     21  C   UNL     1      -2.648  -4.197   2.724  0.00  0.00    -0.008 C 
ATOM     22  C   UNL     1      -3.306  -4.677   4.019  0.00  0.00    +0.007 C 
ATOM     23  C   UNL     1      -3.829  -3.471   4.803  0.00  0.00    -0.008 C 
ATOM     24  C   UNL     1      -4.857  -2.720   3.955  0.00  0.00    +0.029 C 
ATOM     25  C   UNL     1      -2.664  -2.537   5.138  0.00  0.00    +0.007 C 
ATOM     26  C   UNL     1      -2.006  -2.058   3.843  0.00  0.00    -0.008 C 
ATOM     27  C   UNL     1      -1.483  -3.263   3.060  0.00  0.00    +0.007 C 
ATOM     28  C   UNL     1      -3.035  -1.306   2.996  0.00  0.00    +0.029 C 
ENDBRANCH  17  19
ENDBRANCH  10  15
BRANCH  11  29
ATOM     29  C   UNL     1      -5.498   2.437   3.375  0.00  0.00    +0.082 C 
ATOM     30  C   UNL     1      -4.776   2.272   4.714  0.00  0.00    +0.026 C 
ATOM     31  C   UNL     1      -5.322   3.641   4.302  0.00  0.00    +0.026 C 
ENDBRANCH  11  29
TORSDOF 3
