REMARK  Name = ZINC58291054
REMARK  4 active torsions:
REMARK  status: ('A' for Active; 'I' for Inactive)
REMARK    1  A    between atoms: C_4  and  N_11
REMARK    2  A    between atoms: C_5  and  C_7
REMARK    3  A    between atoms: C_7  and  C_8
REMARK    4  A    between atoms: C_12  and  C_14
REMARK                            x       y       z     vdW  Elec       q    Type
REMARK                         _______ _______ _______ _____ _____    ______ ____
ROOT
ATOM      1  N   UNL     1       3.621  -0.650  -0.036  0.00  0.00    -0.280 N 
ATOM      2  C   UNL     1       4.775   0.038  -0.146  0.00  0.00    +0.266 C 
ATOM      3  O   UNL     1       4.761   1.254  -0.139  0.00  0.00    -0.268 OA
ATOM      4  H   UNL     1       3.637  -1.618   0.024  0.00  0.00    +0.155 HD
ENDROOT
BRANCH   2   5
ATOM      5  C   UNL     1       6.049  -0.681  -0.273  0.00  0.00    +0.122 A 
ATOM      6  C   UNL     1       7.274  -0.101  -0.384  0.00  0.00    +0.078 A 
ATOM      7  C   UNL     1       8.235  -1.139  -0.483  0.00  0.00    +0.019 A 
ATOM      8  C   UNL     1       9.629  -1.149  -0.616  0.00  0.00    +0.011 A 
ATOM      9  C   UNL     1      10.295  -2.337  -0.690  0.00  0.00    +0.001 A 
ATOM     10  C   UNL     1       9.604  -3.541  -0.635  0.00  0.00    +0.002 A 
ATOM     11  C   UNL     1       8.233  -3.557  -0.505  0.00  0.00    +0.026 A 
ATOM     12  C   UNL     1       7.531  -2.357  -0.427  0.00  0.00    +0.048 A 
ATOM     13  N   UNL     1       6.196  -2.057  -0.293  0.00  0.00    -0.349 N 
ATOM     14  H   UNL     1       5.475  -2.703  -0.226  0.00  0.00    +0.166 HD
ATOM     15 CL   UNL     1       7.603   1.603  -0.401  0.00  0.00    -0.081 Cl
ENDBRANCH   2   5
BRANCH   1  19
ATOM     16  C   UNL     1      -0.015   1.381   0.041  0.00  0.00    +0.000 A 
ATOM     17  C   UNL     1       1.104   1.946   0.627  0.00  0.00    +0.002 A 
ATOM     18  C   UNL     1       2.310   1.275   0.603  0.00  0.00    +0.023 A 
ATOM     19  C   UNL     1       2.400   0.032  -0.010  0.00  0.00    +0.037 A 
ATOM     20  C   UNL     1       1.275  -0.532  -0.598  0.00  0.00    -0.017 A 
ATOM     21  C   UNL     1       0.071   0.144  -0.570  0.00  0.00    +0.006 A 
BRANCH  20  22
ATOM     22  C   UNL     1       1.369  -1.881  -1.264  0.00  0.00    +0.132 C 
BRANCH  22  23
ATOM     23  C   UNL     1       1.195  -2.965  -0.232  0.00  0.00    +0.215 C 
ATOM     24  O   UNL     1       1.014  -2.672   0.930  0.00  0.00    -0.276 OA
ATOM     25  N   UNL     1       1.241  -4.260  -0.601  0.00  0.00    -0.329 N 
ATOM     26  H   UNL     1       1.386  -4.495  -1.531  0.00  0.00    +0.145 HD
ATOM     27  H   UNL     1       1.129  -4.958   0.063  0.00  0.00    +0.145 HD
ENDBRANCH  22  23
ENDBRANCH  20  22
ENDBRANCH   1  19
TORSDOF 4
