REMARK  Name = ZINC36333020
REMARK  9 active torsions:
REMARK  status: ('A' for Active; 'I' for Inactive)
REMARK    1  A    between atoms: C_1  and  C_2
REMARK    2  A    between atoms: C_2  and  C_3
REMARK    3  A    between atoms: C_3  and  C_4
REMARK    4  A    between atoms: C_4  and  S_5
REMARK    5  A    between atoms: S_5  and  C_6
REMARK    6  A    between atoms: C_6  and  C_8
REMARK    7  A    between atoms: C_6  and  C_9
REMARK    8  A    between atoms: N_11  and  C_12
REMARK    9  A    between atoms: C_15  and  N_19
REMARK                            x       y       z     vdW  Elec       q    Type
REMARK                         _______ _______ _______ _____ _____    ______ ____
ROOT
ATOM      1  C   UNL     1       0.817  -5.286  -4.230  0.00  0.00    +0.230 C 
ATOM      2  O   UNL     1       0.455  -4.792  -5.277  0.00  0.00    -0.274 OA
ATOM      3  N   UNL     1       1.724  -6.283  -4.232  0.00  0.00    -0.282 N 
ATOM      4  H   UNL     1       2.068  -6.628  -3.394  0.00  0.00    +0.155 HD
ENDROOT
BRANCH   3   5
ATOM      5  C   UNL     1       2.172  -6.820  -5.448  0.00  0.00    +0.071 A 
ATOM      6  C   UNL     1       3.297  -6.291  -6.069  0.00  0.00    +0.065 A 
ATOM      7  C   UNL     1       3.739  -6.821  -7.266  0.00  0.00    +0.044 A 
ATOM      8  C   UNL     1       3.057  -7.881  -7.850  0.00  0.00    +0.027 A 
ATOM      9  C   UNL     1       1.932  -8.409  -7.230  0.00  0.00    +0.044 A 
ATOM     10  C   UNL     1       1.494  -7.884  -6.029  0.00  0.00    +0.065 A 
ATOM     11 CL   UNL     1       0.093  -8.549  -5.251  0.00  0.00    -0.082 Cl
ATOM     12 CL   UNL     1       4.149  -4.966  -5.339  0.00  0.00    -0.082 Cl
BRANCH   8  13
ATOM     13  N   UNL     1       3.504  -8.416  -9.062  0.00  0.00    -0.358 N 
ATOM     14  H   UNL     1       4.290  -8.047  -9.495  0.00  0.00    +0.142 HD
ATOM     15  H   UNL     1       3.028  -9.157  -9.470  0.00  0.00    +0.142 HD
ENDBRANCH   8  13
ENDBRANCH   3   5
BRANCH   1  16
ATOM     16  C   UNL     1       0.251  -4.786  -2.925  0.00  0.00    +0.129 C 
ATOM     17  C   UNL     1       1.190  -3.735  -2.332  0.00  0.00    +0.029 C 
BRANCH  16  18
ATOM     18  S   UNL     1      -1.379  -4.045  -3.218  0.00  0.00    -0.148 S 
BRANCH  18  19
ATOM     19  C   UNL     1      -1.981  -3.639  -1.556  0.00  0.00    +0.070 C 
BRANCH  19  20
ATOM     20  C   UNL     1      -3.366  -2.998  -1.658  0.00  0.00    +0.010 C 
BRANCH  20  22
ATOM     21  C   UNL     1      -5.260  -2.014  -0.358  0.00  0.00    +0.004 C 
ATOM     22  C   UNL     1      -3.874  -2.655  -0.256  0.00  0.00    -0.003 C 
ENDBRANCH  20  22
ENDBRANCH  19  20
ENDBRANCH  18  19
ENDBRANCH  16  18
ENDBRANCH   1  16
TORSDOF 7
