REMARK  Name = ZINC16385803
REMARK  8 active torsions:
REMARK  status: ('A' for Active; 'I' for Inactive)
REMARK    1  A    between atoms: C_3  and  N_11
REMARK    2  A    between atoms: C_6  and  N_7
REMARK    3  A    between atoms: N_11  and  C_12
REMARK    4  A    between atoms: C_12  and  C_13
REMARK    5  A    between atoms: C_13  and  C_14
REMARK    6  A    between atoms: C_14  and  N_15
REMARK    7  A    between atoms: C_16  and  C_17
REMARK    8  A    between atoms: C_22  and  O_23
REMARK                            x       y       z     vdW  Elec       q    Type
REMARK                         _______ _______ _______ _____ _____    ______ ____
ROOT
ATOM      1  C   UNL     1       4.994   4.128  -0.008  0.00  0.00    +0.039 C 
ENDROOT
BRANCH   1   2
ATOM      2  C   UNL     1       3.558   3.600   0.002  0.00  0.00    +0.103 C 
BRANCH   2   3
ATOM      3  N   UNL     1       3.576   2.135   0.008  0.00  0.00    -0.343 N 
ATOM      4  H   UNL     1       4.422   1.660   0.004  0.00  0.00    +0.146 HD
BRANCH   3   7
ATOM      5  C   UNL     1      -0.024   1.391   0.031  0.00  0.00    +0.034 A 
ATOM      6  C   UNL     1       1.163   2.099   0.022  0.00  0.00    +0.026 A 
ATOM      7  C   UNL     1       2.374   1.422   0.017  0.00  0.00    +0.046 A 
ATOM      8  C   UNL     1       2.389   0.031   0.022  0.00  0.00    +0.064 A 
ATOM      9  C   UNL     1       1.199  -0.670   0.031  0.00  0.00    +0.054 A 
ATOM     10  C   UNL     1      -0.005   0.009   0.036  0.00  0.00    +0.128 A 
ATOM     11 CL   UNL     1       3.902  -0.822   0.015  0.00  0.00    -0.082 Cl
BRANCH  10  12
ATOM     12  N   UNL     1      -1.278  -0.746   0.046  0.00  0.00    +0.056 N 
ATOM     13  O   UNL     1      -2.333  -0.154   0.051  0.00  0.00    -0.126 OA
ATOM     14  O   UNL     1      -1.264  -1.955   0.050  0.00  0.00    -0.126 OA
ENDBRANCH  10  12
ENDBRANCH   3   7
ENDBRANCH   2   3
ENDBRANCH   1   2
BRANCH   1  15
ATOM     15  C   UNL     1       4.975   5.657  -0.014  0.00  0.00    +0.114 C 
BRANCH  15  16
ATOM     16  N   UNL     1       6.351   6.163  -0.024  0.00  0.00    -0.390 N 
ATOM     17  C   UNL     1       6.788   6.827  -1.045  0.00  0.00    +0.090 C 
ATOM     18  H   UNL     1       6.933   5.999   0.735  0.00  0.00    +0.159 HD
BRANCH  17  19
ATOM     19  C   UNL     1       8.133   7.430  -1.010  0.00  0.00    +0.034 A 
ATOM     20  C   UNL     1       8.565   8.243  -2.060  0.00  0.00    +0.028 A 
ATOM     21  C   UNL     1       9.824   8.805  -2.022  0.00  0.00    +0.020 A 
ATOM     22  C   UNL     1      10.664   8.565  -0.946  0.00  0.00    +0.034 A 
ATOM     23  C   UNL     1      10.248   7.762   0.099  0.00  0.00    +0.061 A 
ATOM     24  C   UNL     1       8.983   7.194   0.079  0.00  0.00    +0.139 A 
ATOM     25 BR   UNL     1      11.404   7.442   1.561  0.00  0.00    -0.046 Br
ATOM     26 BR   UNL     1      10.408   9.906  -3.444  0.00  0.00    -0.050 Br
BRANCH  24  27
ATOM     27  O   UNL     1       8.571   6.410   1.108  0.00  0.00    -0.505 OA
ATOM     28  H   UNL     1       8.781   5.473   0.996  0.00  0.00    +0.292 HD
ENDBRANCH  24  27
ENDBRANCH  17  19
ENDBRANCH  15  16
ENDBRANCH   1  15
TORSDOF 8
