REMARK  Name = ZINC04044955
REMARK  6 active torsions:
REMARK  status: ('A' for Active; 'I' for Inactive)
REMARK    1  A    between atoms: C_1  and  C_2
REMARK    2  A    between atoms: C_6  and  N_9
REMARK    3  A    between atoms: C_7  and  C_8
REMARK    4  A    between atoms: C_19  and  C_22
REMARK    5  A    between atoms: N_23  and  N_24
REMARK    6  A    between atoms: C_25  and  C_26
REMARK                            x       y       z     vdW  Elec       q    Type
REMARK                         _______ _______ _______ _____ _____    ______ ____
ROOT
ATOM      1  N   UNL     1      -7.188   4.991  -0.139  0.00  0.00    -0.283 N 
ATOM      2  C   UNL     1      -7.231   3.645  -0.449  0.00  0.00    +0.225 A 
ATOM      3  N   UNL     1      -6.107   2.989  -0.722  0.00  0.00    -0.179 NA
ATOM      4  C   UNL     1      -6.149   1.696  -1.025  0.00  0.00    +0.241 A 
ATOM      5  N   UNL     1      -7.314   1.055  -1.044  0.00  0.00    -0.180 NA
ATOM      6  C   UNL     1      -8.437   1.709  -0.766  0.00  0.00    +0.224 A 
ATOM      7  N   UNL     1      -8.395   3.004  -0.468  0.00  0.00    -0.181 NA
ATOM      8  N   UNL     1      -9.646   1.044  -0.786  0.00  0.00    -0.299 N 
ATOM      9  C   UNL     1     -10.592   1.700  -1.698  0.00  0.00    +0.108 C 
ATOM     10  C   UNL     1     -11.962   1.026  -1.585  0.00  0.00    +0.022 C 
ATOM     11  C   UNL     1     -11.826  -0.457  -1.940  0.00  0.00    -0.011 C 
ATOM     12  C   UNL     1     -10.800  -1.105  -1.007  0.00  0.00    +0.022 C 
ATOM     13  C   UNL     1      -9.464  -0.370  -1.137  0.00  0.00    +0.108 C 
ATOM     14  C   UNL     1     -13.180  -1.150  -1.771  0.00  0.00    +0.007 C 
ATOM     15  N   UNL     1      -4.982   1.016  -1.315  0.00  0.00    -0.205 N 
ATOM     16  H   UNL     1      -7.992   5.447   0.152  0.00  0.00    +0.155 HD
ATOM     17  H   UNL     1      -4.145   1.499  -1.390  0.00  0.00    +0.177 HD
ENDROOT
BRANCH   1  23
ATOM     18  C   UNL     1      -4.441   8.884   1.069  0.00  0.00    +0.044 C 
ATOM     19  C   UNL     1      -4.625   7.585   0.328  0.00  0.00    -0.046 A 
ATOM     20  C   UNL     1      -3.603   7.088  -0.459  0.00  0.00    +0.004 A 
ATOM     21  C   UNL     1      -3.768   5.896  -1.140  0.00  0.00    +0.002 A 
ATOM     22  C   UNL     1      -4.955   5.198  -1.036  0.00  0.00    +0.023 A 
ATOM     23  C   UNL     1      -5.984   5.694  -0.246  0.00  0.00    +0.037 A 
ATOM     24  C   UNL     1      -5.817   6.895   0.433  0.00  0.00    -0.026 A 
ATOM     25  C   UNL     1      -6.933   7.440   1.286  0.00  0.00    +0.046 C 
ENDBRANCH   1  23
BRANCH  15  26
ATOM     26  N   UNL     1      -5.008  -0.373  -1.499  0.00  0.00    -0.188 NA
ATOM     27  C   UNL     1      -3.900  -1.024  -1.679  0.00  0.00    +0.138 C 
BRANCH  27  28
ATOM     28  C   UNL     1      -3.934  -2.466  -1.988  0.00  0.00    -0.005 A 
ATOM     29  C   UNL     1      -2.743  -3.170  -2.184  0.00  0.00    +0.011 A 
ATOM     30  C   UNL     1      -2.782  -4.519  -2.467  0.00  0.00    +0.020 A 
ATOM     31  C   UNL     1      -3.998  -5.175  -2.564  0.00  0.00    +0.041 A 
ATOM     32  C   UNL     1      -5.182  -4.481  -2.377  0.00  0.00    +0.020 A 
ATOM     33  C   UNL     1      -5.157  -3.132  -2.093  0.00  0.00    +0.011 A 
ATOM     34 CL   UNL     1      -4.037  -6.873  -2.920  0.00  0.00    -0.084 Cl
ENDBRANCH  27  28
ENDBRANCH  15  26
TORSDOF 3
