REMARK  Name = ZINC04822465
REMARK  5 active torsions:
REMARK  status: ('A' for Active; 'I' for Inactive)
REMARK    1  A    between atoms: N_9  and  C1*_10
REMARK    2  A    between atoms: C2*_12  and  O2*_22
REMARK    3  A    between atoms: C3*_14  and  O3*_21
REMARK    4  A    between atoms: C4*_16  and  C5*_19
REMARK    5  A    between atoms: C5*_19  and  O5*_20
REMARK                            x       y       z     vdW  Elec       q    Type
REMARK                         _______ _______ _______ _____ _____    ______ ____
ROOT
ATOM      1  C   UNL     1       0.797   4.175  -3.945  0.00  0.00    +0.106 A 
ATOM      2  C   UNL     1       0.746   4.779  -5.144  0.00  0.00    +0.048 A 
ATOM      3  C   UNL     1       0.970   6.204  -4.910  0.00  0.00    +0.072 A 
ATOM      4  C   UNL     1       1.037   7.347  -5.722  0.00  0.00    +0.130 A 
ATOM      5  N   UNL     1       1.265   8.521  -5.141  0.00  0.00    -0.220 NA
ATOM      6  C   UNL     1       1.425   8.614  -3.833  0.00  0.00    +0.225 A 
ATOM      7  N   UNL     1       1.370   7.571  -3.034  0.00  0.00    -0.218 NA
ATOM      8  C   UNL     1       1.141   6.352  -3.521  0.00  0.00    +0.149 A 
ATOM      9  N   UNL     1       1.037   5.107  -2.966  0.00  0.00    -0.302 N 
ATOM     10  N   UNL     1       0.869   7.254  -7.091  0.00  0.00    -0.343 N 
ATOM     11 BR   UNL     1       0.443   3.945  -6.814  0.00  0.00    -0.048 Br
ATOM     12  H   UNL     1       0.703   6.391  -7.502  0.00  0.00    +0.144 HD
ATOM     13  H   UNL     1       0.918   8.051  -7.641  0.00  0.00    +0.144 HD
ENDROOT
BRANCH   9  14
ATOM     14  C1* UNL     1       1.157   4.811  -1.536  0.00  0.00    +0.252 C 
ATOM     15  C2* UNL     1       2.644   4.627  -1.140  0.00  0.00    +0.195 C 
ATOM     16  C3* UNL     1       2.535   3.740   0.124  0.00  0.00    +0.178 C 
ATOM     17  C4* UNL     1       1.145   3.085   0.008  0.00  0.00    +0.177 C 
ATOM     18  O4* UNL     1       0.566   3.530  -1.230  0.00  0.00    -0.346 OA
BRANCH  16  19
ATOM     19  O3* UNL     1       3.559   2.743   0.125  0.00  0.00    -0.386 OA
ATOM     20  H3* UNL     1       3.503   2.123   0.865  0.00  0.00    +0.210 HD
ENDBRANCH  16  19
BRANCH  15  21
ATOM     21  O2* UNL     1       3.248   5.884  -0.830  0.00  0.00    -0.385 OA
ATOM     22  H2* UNL     1       4.151   5.814  -0.491  0.00  0.00    +0.210 HD
ENDBRANCH  15  21
BRANCH  17  23
ATOM     23  C5* UNL     1       1.286   1.562  -0.002  0.00  0.00    +0.190 C 
BRANCH  23  24
ATOM     24  O5* UNL     1      -0.011   0.963   0.007  0.00  0.00    -0.392 OA
ATOM     25  H5* UNL     1       0.002  -0.004   0.002  0.00  0.00    +0.210 HD
ENDBRANCH  23  24
ENDBRANCH  17  23
ENDBRANCH   9  14
TORSDOF 5
