REMARK  Name = ZINC44873986
REMARK  11 active torsions:
REMARK  status: ('A' for Active; 'I' for Inactive)
REMARK    1  A    between atoms: C_1  and  C_2
REMARK    2  A    between atoms: C_2  and  C_3
REMARK    3  A    between atoms: C_6  and  N_9
REMARK    4  A    between atoms: N_9  and  C_10
REMARK    5  A    between atoms: N_9  and  S_28
REMARK    6  A    between atoms: C_10  and  C_11
REMARK    7  A    between atoms: N_13  and  C_14
REMARK    8  A    between atoms: C_14  and  C_15
REMARK    9  A    between atoms: C_18  and  C_21
REMARK   10  A    between atoms: C_21  and  N_22
REMARK   11  A    between atoms: S_28  and  C_31
REMARK                            x       y       z     vdW  Elec       q    Type
REMARK                         _______ _______ _______ _____ _____    ______ ____
ROOT
ATOM      1  C   UNL     1       2.148  -1.421  -5.974  0.00  0.00    +0.227 C 
ENDROOT
BRANCH   1   2
ATOM      2  C   UNL     1       2.477   0.031  -6.206  0.00  0.00    +0.232 C 
ATOM      3  O   UNL     1       3.077   0.660  -5.360  0.00  0.00    -0.274 OA
ATOM      4  N   UNL     1       2.104   0.631  -7.354  0.00  0.00    -0.310 N 
ATOM      5  H   UNL     1       1.625   0.128  -8.031  0.00  0.00    +0.149 HD
BRANCH   4   6
ATOM      6  C   UNL     1       2.424   2.043  -7.580  0.00  0.00    +0.139 C 
BRANCH   6   7
ATOM      7  C   UNL     1       1.901   2.467  -8.928  0.00  0.00    -0.030 A 
ATOM      8  C   UNL     1       2.699   2.341 -10.050  0.00  0.00    +0.005 A 
ATOM      9  C   UNL     1       2.220   2.730 -11.287  0.00  0.00    +0.002 A 
ATOM     10  C   UNL     1       0.942   3.245 -11.402  0.00  0.00    -0.064 A 
ATOM     11  C   UNL     1       0.144   3.370 -10.280  0.00  0.00    +0.002 A 
ATOM     12  C   UNL     1       0.622   2.977  -9.044  0.00  0.00    +0.005 A 
BRANCH  10  13
ATOM     13  C   UNL     1       0.420   3.670 -12.750  0.00  0.00    -0.043 C 
BRANCH  13  14
ATOM     14  N   UNL     1      -0.245   2.531 -13.399  0.00  0.00    +0.382 N 
ATOM     15  C   UNL     1       0.742   1.479 -13.669  0.00  0.00    -0.078 C 
ATOM     16  C   UNL     1       0.040   0.259 -14.271  0.00  0.00    -0.019 C 
ATOM     17  C   UNL     1      -0.647   0.665 -15.578  0.00  0.00    -0.004 C 
ATOM     18  C   UNL     1      -1.620   1.814 -15.296  0.00  0.00    -0.019 C 
ATOM     19  C   UNL     1      -0.857   2.976 -14.656  0.00  0.00    -0.078 C 
ATOM     20  H   UNL     1      -0.962   2.169 -12.787  0.00  0.00    -0.081 HD
ENDBRANCH  13  14
ENDBRANCH  10  13
ENDBRANCH   6   7
ENDBRANCH   4   6
ENDBRANCH   1   2
BRANCH   1  21
ATOM     21  N   UNL     1       2.656  -1.833  -4.663  0.00  0.00    -0.194 N 
BRANCH  21  25
ATOM     22  C   UNL     1       0.370  -1.183  -1.245  0.00  0.00    -0.048 A 
ATOM     23  C   UNL     1      -0.121  -1.982  -2.261  0.00  0.00    +0.005 A 
ATOM     24  C   UNL     1       0.635  -2.199  -3.397  0.00  0.00    +0.025 A 
ATOM     25  C   UNL     1       1.889  -1.615  -3.517  0.00  0.00    +0.052 A 
ATOM     26  C   UNL     1       2.379  -0.813  -2.494  0.00  0.00    +0.025 A 
ATOM     27  C   UNL     1       1.616  -0.594  -1.364  0.00  0.00    +0.005 A 
BRANCH  22  29
ATOM     28  C   UNL     1      -1.341   0.285  -0.212  0.00  0.00    +0.009 C 
ATOM     29  C   UNL     1      -0.457  -0.947  -0.007  0.00  0.00    +0.032 C 
ENDBRANCH  22  29
ENDBRANCH  21  25
BRANCH  21  30
ATOM     30  S   UNL     1       4.140  -2.558  -4.541  0.00  0.00    +0.075 S 
ATOM     31  O   UNL     1       4.876  -2.174  -5.694  0.00  0.00    -0.150 OA
ATOM     32  O   UNL     1       4.606  -2.310  -3.222  0.00  0.00    -0.150 OA
BRANCH  30  33
ATOM     33  C   UNL     1       3.882  -4.297  -4.665  0.00  0.00    +0.109 A 
ATOM     34  C   UNL     1       3.646  -5.043  -3.526  0.00  0.00    +0.029 A 
ATOM     35  C   UNL     1       3.443  -6.407  -3.622  0.00  0.00    +0.002 A 
ATOM     36  C   UNL     1       3.477  -7.025  -4.859  0.00  0.00    +0.000 A 
ATOM     37  C   UNL     1       3.712  -6.279  -5.998  0.00  0.00    +0.002 A 
ATOM     38  C   UNL     1       3.910  -4.914  -5.902  0.00  0.00    +0.029 A 
ENDBRANCH  30  33
ENDBRANCH  21  30
ENDBRANCH   1  21
TORSDOF 10
