REMARK  Name = ZINC40721232
REMARK  17 active torsions:
REMARK  status: ('A' for Active; 'I' for Inactive)
REMARK    1  A    between atoms: C_1  and  C_2
REMARK    2  A    between atoms: C_2  and  C_3
REMARK    3  A    between atoms: C_2  and  C_4
REMARK    4  A    between atoms: C_2  and  C_5
REMARK    5  A    between atoms: C_5  and  C_6
REMARK    6  A    between atoms: C_6  and  C_7
REMARK    7  A    between atoms: C_6  and  C_8
REMARK    8  A    between atoms: C_6  and  N_9
REMARK    9  A    between atoms: N_9  and  C_10
REMARK   10  A    between atoms: C_10  and  C_11
REMARK   11  A    between atoms: C_14  and  O_17
REMARK   12  A    between atoms: O_17  and  C_18
REMARK   13  A    between atoms: C_18  and  C_19
REMARK   14  A    between atoms: C_19  and  C_21
REMARK   15  A    between atoms: C_19  and  O_33
REMARK   16  A    between atoms: N_27  and  C_32
REMARK   17  A    between atoms: N_30  and  C_31
REMARK                            x       y       z     vdW  Elec       q    Type
REMARK                         _______ _______ _______ _____ _____    ______ ____
ROOT
ATOM      1  C   UNL     1       4.386  -0.221  -3.522  0.00  0.00    -0.064 A 
ATOM      2  C   UNL     1       5.131  -1.383  -3.441  0.00  0.00    +0.005 A 
ATOM      3  C   UNL     1       5.777  -1.870  -4.561  0.00  0.00    +0.046 A 
ATOM      4  C   UNL     1       5.678  -1.193  -5.768  0.00  0.00    +0.121 A 
ATOM      5  C   UNL     1       4.929  -0.028  -5.846  0.00  0.00    +0.046 A 
ATOM      6  C   UNL     1       4.280   0.452  -4.725  0.00  0.00    +0.005 A 
ENDROOT
BRANCH   1   7
ATOM      7  C   UNL     1       3.682   0.308  -2.299  0.00  0.00    -0.046 C 
BRANCH   7   8
ATOM      8  N   UNL     1       2.333  -0.268  -2.223  0.00  0.00    +0.385 N 
ATOM      9  H   UNL     1       2.400  -1.273  -2.164  0.00  0.00    -0.085 HD
ATOM     10  H   UNL     1       1.811  -0.013  -3.047  0.00  0.00    -0.085 HD
BRANCH   8  11
ATOM     11  C   UNL     1       1.648   0.248  -1.030  0.00  0.00    -0.073 C 
ATOM     12  C   UNL     1       1.346   1.736  -1.220  0.00  0.00    -0.010 C 
ATOM     13  C   UNL     1       2.545   0.061   0.195  0.00  0.00    -0.010 C 
BRANCH  11  14
ATOM     14  C   UNL     1       0.338  -0.516  -0.825  0.00  0.00    -0.007 C 
BRANCH  14  16
ATOM     15  C   UNL     1       0.519  -1.831  -2.941  0.00  0.00    +0.010 C 
ATOM     16  C   UNL     1      -0.310  -0.793  -2.183  0.00  0.00    -0.039 C 
ATOM     17  C   UNL     1      -0.368   0.504  -2.994  0.00  0.00    +0.010 C 
ATOM     18  C   UNL     1      -1.728  -1.327  -1.972  0.00  0.00    +0.010 C 
ENDBRANCH  14  16
ENDBRANCH  11  14
ENDBRANCH   8  11
ENDBRANCH   7   8
ENDBRANCH   1   7
BRANCH   4  19
ATOM     19  O   UNL     1       6.313  -1.670  -6.870  0.00  0.00    -0.489 OA
BRANCH  19  20
ATOM     20  C   UNL     1       6.165  -0.921  -8.078  0.00  0.00    +0.265 C 
BRANCH  20  21
ATOM     21  C   UNL     1       6.945  -1.607  -9.202  0.00  0.00    +0.182 C 
BRANCH  21  22
ATOM     22  C   UNL     1       6.691  -0.888 -10.502  0.00  0.00    -0.014 A 
ATOM     23  C   UNL     1       7.452   0.220 -10.836  0.00  0.00    +0.008 A 
ATOM     24  C   UNL     1       7.226   0.886 -12.025  0.00  0.00    +0.028 A 
ATOM     25  C   UNL     1       6.235   0.443 -12.887  0.00  0.00    +0.070 A 
ATOM     26  C   UNL     1       5.468  -0.674 -12.549  0.00  0.00    +0.070 A 
ATOM     27  C   UNL     1       5.705  -1.339 -11.356  0.00  0.00    +0.034 A 
ATOM     28  N   UNL     1       4.568  -0.875 -13.593  0.00  0.00    -0.295 N 
ATOM     29  C   UNL     1       4.778   0.076 -14.523  0.00  0.00    +0.330 A 
ATOM     30  O   UNL     1       4.158   0.187 -15.564  0.00  0.00    -0.246 OA
ATOM     31  N   UNL     1       5.777   0.886 -14.126  0.00  0.00    -0.295 N 
ATOM     32  C   UNL     1       6.294   2.038 -14.869  0.00  0.00    +0.154 C 
ATOM     33  C   UNL     1       3.565  -1.940 -13.667  0.00  0.00    +0.154 C 
ENDBRANCH  21  22
BRANCH  21  34
ATOM     34  O   UNL     1       8.342  -1.572  -8.903  0.00  0.00    -0.384 OA
ATOM     35  H   UNL     1       8.702  -0.679  -8.810  0.00  0.00    +0.210 HD
ENDBRANCH  21  34
ENDBRANCH  20  21
ENDBRANCH  19  20
ENDBRANCH   4  19
TORSDOF 10
