REMARK  Name = ZINC22431353
REMARK  15 active torsions:
REMARK  status: ('A' for Active; 'I' for Inactive)
REMARK    1  A    between atoms: C_1  and  C_2
REMARK    2  A    between atoms: C_5  and  S_8
REMARK    3  A    between atoms: S_8  and  N_11
REMARK    4  A    between atoms: N_11  and  C_12
REMARK    5  A    between atoms: N_11  and  C_27
REMARK    6  A    between atoms: C_12  and  C_13
REMARK    7  A    between atoms: N_15  and  C_16
REMARK    8  A    between atoms: C_16  and  C_18
REMARK    9  A    between atoms: C_16  and  C_19
REMARK   10  A    between atoms: C_22  and  O_25
REMARK   11  A    between atoms: O_25  and  C_26
REMARK   12  A    between atoms: C_29  and  O_35
REMARK   13  A    between atoms: C_32  and  O_33
REMARK   14  A    between atoms: O_33  and  C_34
REMARK   15  A    between atoms: O_35  and  C_36
REMARK                            x       y       z     vdW  Elec       q    Type
REMARK                         _______ _______ _______ _____ _____    ______ ____
ROOT
ATOM      1  N   UNL     1      -1.974   2.469   1.607  0.00  0.00    -0.191 N 
ENDROOT
BRANCH   1   2
ATOM      2  C   UNL     1      -1.560   3.624   2.280  0.00  0.00    +0.097 A 
ATOM      3  C   UNL     1      -0.404   3.605   3.046  0.00  0.00    +0.074 A 
ATOM      4  C   UNL     1       0.004   4.751   3.711  0.00  0.00    +0.122 A 
ATOM      5  C   UNL     1      -0.742   5.915   3.610  0.00  0.00    +0.049 A 
ATOM      6  C   UNL     1      -1.895   5.937   2.847  0.00  0.00    +0.051 A 
ATOM      7  C   UNL     1      -2.304   4.797   2.176  0.00  0.00    +0.143 A 
BRANCH   7   8
ATOM      8  O   UNL     1      -3.436   4.820   1.421  0.00  0.00    -0.493 OA
ATOM      9  C   UNL     1      -4.150   6.057   1.360  0.00  0.00    +0.277 C 
ENDBRANCH   7   8
BRANCH   4  10
ATOM     10  O   UNL     1       1.137   4.733   4.463  0.00  0.00    -0.495 OA
ATOM     11  C   UNL     1       1.498   5.949   5.120  0.00  0.00    +0.277 C 
ENDBRANCH   4  10
ENDBRANCH   1   2
BRANCH   1  12
ATOM     12  S   UNL     1      -1.554   2.238   0.022  0.00  0.00    +0.075 S 
ATOM     13  O   UNL     1      -1.304   3.526  -0.523  0.00  0.00    -0.150 OA
ATOM     14  O   UNL     1      -2.519   1.353  -0.529  0.00  0.00    -0.150 OA
BRANCH  12  19
ATOM     15  C   UNL     1       3.711  -0.707  -0.038  0.00  0.00    +0.044 C 
ATOM     16  C   UNL     1       2.396   0.029  -0.022  0.00  0.00    -0.050 A 
ATOM     17  C   UNL     1       1.208  -0.679  -0.013  0.00  0.00    +0.005 A 
ATOM     18  C   UNL     1       0.002  -0.004   0.002  0.00  0.00    +0.029 A 
ATOM     19  C   UNL     1      -0.017   1.378   0.010  0.00  0.00    +0.109 A 
ATOM     20  C   UNL     1       1.171   2.086   0.002  0.00  0.00    +0.029 A 
ATOM     21  C   UNL     1       2.377   1.411  -0.015  0.00  0.00    +0.005 A 
ENDBRANCH  12  19
ENDBRANCH   1  12
BRANCH   1  22
ATOM     22  C   UNL     1      -2.779   1.463   2.305  0.00  0.00    +0.227 C 
BRANCH  22  23
ATOM     23  C   UNL     1      -1.870   0.525   3.056  0.00  0.00    +0.233 C 
ATOM     24  O   UNL     1      -0.668   0.681   3.013  0.00  0.00    -0.274 OA
ATOM     25  N   UNL     1      -2.393  -0.487   3.777  0.00  0.00    -0.307 N 
ATOM     26  H   UNL     1      -3.483  -0.628   3.816  0.00  0.00    +0.149 HD
BRANCH  25  27
ATOM     27  C   UNL     1      -1.509  -1.399   4.507  0.00  0.00    +0.100 C 
ATOM     28  C   UNL     1      -1.171  -0.797   5.872  0.00  0.00    +0.033 C 
BRANCH  27  29
ATOM     29  C   UNL     1      -2.203  -2.723   4.700  0.00  0.00    -0.027 A 
ATOM     30  C   UNL     1      -3.548  -2.758   5.017  0.00  0.00    +0.009 A 
ATOM     31  C   UNL     1      -4.187  -3.971   5.189  0.00  0.00    +0.046 A 
ATOM     32  C   UNL     1      -3.475  -5.154   5.054  0.00  0.00    +0.120 A 
ATOM     33  C   UNL     1      -2.124  -5.116   4.742  0.00  0.00    +0.046 A 
ATOM     34  C   UNL     1      -1.491  -3.901   4.565  0.00  0.00    +0.009 A 
BRANCH  32  35
ATOM     35  O   UNL     1      -4.100  -6.348   5.229  0.00  0.00    -0.495 OA
ATOM     36  C   UNL     1      -5.492  -6.311   5.549  0.00  0.00    +0.277 C 
ENDBRANCH  32  35
ENDBRANCH  27  29
ENDBRANCH  25  27
ENDBRANCH  22  23
ENDBRANCH   1  22
TORSDOF 10
