REMARK  Name = ZINC13130028
REMARK  4 active torsions:
REMARK  status: ('A' for Active; 'I' for Inactive)
REMARK    1  A    between atoms: C_3  and  S_17
REMARK    2  A    between atoms: C_6  and  N_7
REMARK    3  A    between atoms: N_8  and  C_9
REMARK    4  A    between atoms: S_17  and  N_20
REMARK                            x       y       z     vdW  Elec       q    Type
REMARK                         _______ _______ _______ _____ _____    ______ ____
ROOT
ATOM      1  C   UNL     1       0.037   1.227   0.825  0.00  0.00    +0.031 A 
ATOM      2  C   UNL     1       1.190   1.979   0.750  0.00  0.00    +0.030 A 
ATOM      3  C   UNL     1       2.264   1.533  -0.001  0.00  0.00    +0.105 A 
ATOM      4  C   UNL     1       2.189   0.331  -0.682  0.00  0.00    +0.030 A 
ATOM      5  C   UNL     1       1.042  -0.432  -0.616  0.00  0.00    +0.031 A 
ATOM      6  C   UNL     1      -0.046   0.012   0.140  0.00  0.00    +0.086 A 
ENDROOT
BRANCH   3   7
ATOM      7  S   UNL     1       3.733   2.501  -0.091  0.00  0.00    +0.056 S 
ATOM      8  O   UNL     1       4.390   2.132  -1.295  0.00  0.00    -0.153 OA
ATOM      9  O   UNL     1       3.355   3.842   0.190  0.00  0.00    -0.153 OA
BRANCH   7  10
ATOM     10  N   UNL     1       4.715   2.017   1.152  0.00  0.00    -0.204 NA
ATOM     11  H   UNL     1       5.679   2.071   1.058  0.00  0.00    +0.144 HD
ATOM     12  H   UNL     1       4.327   1.679   1.974  0.00  0.00    +0.144 HD
ENDBRANCH   7  10
ENDBRANCH   3   7
BRANCH   6  13
ATOM     13  N   UNL     1      -1.186  -0.740   0.210  0.00  0.00    -0.149 NA
ATOM     14  N   UNL     1      -1.153  -1.993  -0.095  0.00  0.00    -0.148 NA
BRANCH  14  15
ATOM     15  C   UNL     1       0.037  -2.659  -0.110  0.00  0.00    +0.106 A 
ATOM     16  C   UNL     1       0.447  -3.362  -1.270  0.00  0.00    +0.087 A 
ATOM     17  C   UNL     1       1.640  -4.019  -1.259  0.00  0.00    +0.245 A 
ATOM     18  C   UNL     1       2.440  -3.986  -0.095  0.00  0.00    +0.296 A 
ATOM     19  N   UNL     1       2.030  -3.312   0.995  0.00  0.00    -0.324 N 
ATOM     20  C   UNL     1       0.855  -2.649   1.002  0.00  0.00    +0.115 A 
ATOM     21  O   UNL     1       3.509  -4.572  -0.078  0.00  0.00    -0.264 OA
ATOM     22  O   UNL     1       2.057  -4.703  -2.358  0.00  0.00    -0.282 OA
ATOM     23  H   UNL     1       2.590  -3.298   1.787  0.00  0.00    +0.169 HD
ENDBRANCH  14  15
ENDBRANCH   6  13
TORSDOF 4
