REMARK  Name = ZINC48287491
REMARK  9 active torsions:
REMARK  status: ('A' for Active; 'I' for Inactive)
REMARK    1  A    between atoms: C_1  and  C_2
REMARK    2  A    between atoms: N_5  and  C_8
REMARK    3  A    between atoms: C_8  and  C_10
REMARK    4  A    between atoms: C_8  and  C_27
REMARK    5  A    between atoms: C_10  and  N_11
REMARK    6  A    between atoms: C_12  and  C_14
REMARK    7  A    between atoms: C_14  and  C_15
REMARK    8  A    between atoms: C_15  and  C_16
REMARK    9  A    between atoms: C_18  and  C_21
REMARK                            x       y       z     vdW  Elec       q    Type
REMARK                         _______ _______ _______ _____ _____    ______ ____
ROOT
ATOM      1  N   UNL     1      -0.466  -3.810   3.844  0.00  0.00    -0.317 N 
ATOM      2  C   UNL     1       0.167  -3.986   5.020  0.00  0.00    +0.213 C 
ATOM      3  O   UNL     1       1.190  -4.635   5.067  0.00  0.00    -0.276 OA
ATOM      4  H   UNL     1      -1.285  -3.291   3.806  0.00  0.00    +0.149 HD
ENDROOT
BRANCH   1   5
ATOM      5  C   UNL     1       0.082  -4.402   2.621  0.00  0.00    +0.094 C 
BRANCH   5   6
ATOM      6  C   UNL     1      -0.753  -3.956   1.419  0.00  0.00    -0.013 C 
BRANCH   6  11
ATOM      7  C   UNL     1      -0.530   1.625   0.269  0.00  0.00    +0.007 C 
ATOM      8  C   UNL     1      -0.394   0.104   0.176  0.00  0.00    -0.018 C 
ATOM      9  C   UNL     1      -1.781  -0.540   0.254  0.00  0.00    -0.015 C 
ATOM     10  C   UNL     1      -1.632  -2.063   0.241  0.00  0.00    -0.078 C 
ATOM     11  N   UNL     1      -0.829  -2.489   1.393  0.00  0.00    +0.386 N 
ATOM     12  C   UNL     1       0.526  -1.934   1.288  0.00  0.00    -0.078 C 
ATOM     13  C   UNL     1       0.460  -0.406   1.341  0.00  0.00    -0.015 C 
ATOM     14  H   UNL     1      -1.261  -2.161   2.243  0.00  0.00    -0.081 HD
ENDBRANCH   6  11
BRANCH   6  15
ATOM     15  C   UNL     1      -2.143  -4.528   1.533  0.00  0.00    -0.022 A 
ATOM     16  C   UNL     1      -2.671  -5.616   0.921  0.00  0.00    +0.009 A 
ATOM     17  C   UNL     1      -3.985  -5.959   1.179  0.00  0.00    +0.008 A 
ATOM     18  C   UNL     1      -4.707  -5.197   2.037  0.00  0.00    +0.045 A 
ATOM     19  S   UNL     1      -3.519  -3.953   2.515  0.00  0.00    -0.103 S 
ENDBRANCH   6  15
ENDBRANCH   5   6
ENDBRANCH   1   5
BRANCH   2  20
ATOM     20  C   UNL     1      -0.397  -3.376   6.278  0.00  0.00    +0.105 C 
BRANCH  20  21
ATOM     21  C   UNL     1       0.506  -3.725   7.463  0.00  0.00    +0.108 C 
BRANCH  21  22
ATOM     22  C   UNL     1      -0.058  -3.115   8.720  0.00  0.00    +0.228 A 
ATOM     23  N   UNL     1      -0.902  -3.686   9.531  0.00  0.00    -0.190 NA
ATOM     24  C   UNL     1      -1.193  -2.859  10.551  0.00  0.00    +0.220 A 
ATOM     25  N   UNL     1      -0.525  -1.744  10.389  0.00  0.00    -0.054 NA
ATOM     26  O   UNL     1       0.230  -1.897   9.197  0.00  0.00    -0.338 OA
BRANCH  24  27
ATOM     27  C   UNL     1      -2.119  -3.160  11.672  0.00  0.00    +0.111 A 
ATOM     28  C   UNL     1      -2.334  -2.206  12.664  0.00  0.00    +0.031 A 
ATOM     29  C   UNL     1      -3.200  -2.500  13.703  0.00  0.00    +0.004 A 
ATOM     30  C   UNL     1      -3.822  -3.740  13.716  0.00  0.00    +0.020 A 
ATOM     31  C   UNL     1      -3.562  -4.640  12.698  0.00  0.00    +0.111 A 
ATOM     32  N   UNL     1      -2.737  -4.332  11.718  0.00  0.00    -0.252 NA
ENDBRANCH  24  27
ENDBRANCH  21  22
ENDBRANCH  20  21
ENDBRANCH   2  20
TORSDOF 8
