REMARK  Name = ZINC21463971
REMARK  10 active torsions:
REMARK  status: ('A' for Active; 'I' for Inactive)
REMARK    1  A    between atoms: C_3  and  N_15
REMARK    2  A    between atoms: C_5  and  S_7
REMARK    3  A    between atoms: S_7  and  N_10
REMARK    4  A    between atoms: C_16  and  C_18
REMARK    5  A    between atoms: C_18  and  O_19
REMARK    6  A    between atoms: O_19  and  C_20
REMARK    7  A    between atoms: C_20  and  C_22
REMARK    8  A    between atoms: C_23  and  C_24
REMARK    9  A    between atoms: C_27  and  O_30
REMARK   10  A    between atoms: O_30  and  C_31
REMARK                            x       y       z     vdW  Elec       q    Type
REMARK                         _______ _______ _______ _____ _____    ______ ____
ROOT
ATOM      1  N   UNL     1       2.088   4.338   0.005  0.00  0.00    -0.283 N 
ATOM      2  C   UNL     1       1.030   3.502   0.009  0.00  0.00    +0.255 C 
ATOM      3  O   UNL     1      -0.097   3.950   0.014  0.00  0.00    -0.272 OA
ATOM      4  H   UNL     1       3.108   3.934   0.078  0.00  0.00    +0.155 HD
ENDROOT
BRANCH   1   7
ATOM      5  C   UNL     1       2.592   7.870  -0.884  0.00  0.00    +0.004 A 
ATOM      6  C   UNL     1       2.795   6.507  -0.787  0.00  0.00    +0.023 A 
ATOM      7  C   UNL     1       1.888   5.719  -0.091  0.00  0.00    +0.035 A 
ATOM      8  C   UNL     1       0.784   6.306   0.514  0.00  0.00    +0.051 A 
ATOM      9  C   UNL     1       0.589   7.670   0.417  0.00  0.00    +0.107 A 
ATOM     10  C   UNL     1       1.492   8.451  -0.281  0.00  0.00    +0.028 A 
BRANCH   9  11
ATOM     11  S   UNL     1      -0.811   8.416   1.185  0.00  0.00    +0.061 S 
ATOM     12  O   UNL     1      -1.058   9.629   0.487  0.00  0.00    -0.153 OA
ATOM     13  O   UNL     1      -1.793   7.397   1.315  0.00  0.00    -0.153 OA
BRANCH  11  14
ATOM     14  N   UNL     1      -0.360   8.837   2.722  0.00  0.00    -0.177 NA
ATOM     15  C   UNL     1      -0.485   7.987   3.915  0.00  0.00    +0.109 C 
ATOM     16  C   UNL     1       0.037   8.803   5.116  0.00  0.00    +0.018 C 
ATOM     17  C   UNL     1      -0.108  10.269   4.627  0.00  0.00    +0.018 C 
ATOM     18  C   UNL     1       0.228  10.129   3.121  0.00  0.00    +0.109 C 
ENDBRANCH  11  14
ENDBRANCH   9  11
ENDBRANCH   1   7
BRANCH   2  19
ATOM     19  C   UNL     1       1.248   2.011   0.008  0.00  0.00    +0.328 C 
BRANCH  19  20
ATOM     20  O   UNL     1      -0.016   1.345   0.013  0.00  0.00    -0.452 OA
BRANCH  20  21
ATOM     21  C   UNL     1       0.003  -0.004   0.012  0.00  0.00    +0.332 C 
ATOM     22  O   UNL     1       1.064  -0.598   0.007  0.00  0.00    -0.246 OA
BRANCH  21  23
ATOM     23  C   UNL     1      -1.215  -0.730   0.016  0.00  0.00    +0.092 C 
ATOM     24  C   UNL     1      -1.197  -2.081   0.016  0.00  0.00    +0.015 C 
BRANCH  24  25
ATOM     25  C   UNL     1      -2.459  -2.833   0.021  0.00  0.00    -0.025 A 
ATOM     26  C   UNL     1      -3.683  -2.152   0.032  0.00  0.00    +0.011 A 
ATOM     27  C   UNL     1      -4.862  -2.861   0.031  0.00  0.00    +0.046 A 
ATOM     28  C   UNL     1      -4.840  -4.252   0.030  0.00  0.00    +0.130 A 
ATOM     29  C   UNL     1      -3.628  -4.933   0.025  0.00  0.00    +0.046 A 
ATOM     30  C   UNL     1      -2.443  -4.233   0.020  0.00  0.00    +0.011 A 
BRANCH  28  31
ATOM     31  O   UNL     1      -6.006  -4.946   0.036  0.00  0.00    -0.406 OA
BRANCH  31  32
ATOM     32  C   UNL     1      -7.215  -4.184   0.041  0.00  0.00    +0.575 C 
ATOM     33  F   UNL     1      -7.264  -3.378  -1.101  0.00  0.00    -0.133 F 
ATOM     34  F   UNL     1      -8.313  -5.052   0.046  0.00  0.00    -0.133 F 
ATOM     35  F   UNL     1      -7.253  -3.378   1.184  0.00  0.00    -0.133 F 
ENDBRANCH  31  32
ENDBRANCH  28  31
ENDBRANCH  24  25
ENDBRANCH  21  23
ENDBRANCH  20  21
ENDBRANCH  19  20
ENDBRANCH   2  19
TORSDOF 10
