REMARK  Name = ZINC44963153
REMARK  11 active torsions:
REMARK  status: ('A' for Active; 'I' for Inactive)
REMARK    1  A    between atoms: C_3  and  O_18
REMARK    2  A    between atoms: C_6  and  C_7
REMARK    3  A    between atoms: C_7  and  C_9
REMARK    4  A    between atoms: C_7  and  C_11
REMARK    5  A    between atoms: C_9  and  N_10
REMARK    6  A    between atoms: C_11  and  O_17
REMARK    7  A    between atoms: O_18  and  C_19
REMARK    8  A    between atoms: C_21  and  O_35
REMARK    9  A    between atoms: C_23  and  O_34
REMARK   10  A    between atoms: C_25  and  O_33
REMARK   11  A    between atoms: C_27  and  C_30
REMARK                            x       y       z     vdW  Elec       q    Type
REMARK                         _______ _______ _______ _____ _____    ______ ____
ROOT
ATOM      1  C   UNL     1      -0.621   1.623   0.107  0.00  0.00    +0.007 A 
ATOM      2  C   UNL     1       0.345   2.608   0.168  0.00  0.00    +0.046 A 
ATOM      3  C   UNL     1       1.688   2.261   0.196  0.00  0.00    +0.124 A 
ATOM      4  C   UNL     1       2.057   0.924   0.162  0.00  0.00    +0.046 A 
ATOM      5  C   UNL     1       1.087  -0.058   0.101  0.00  0.00    +0.007 A 
ATOM      6  C   UNL     1      -0.251   0.291   0.074  0.00  0.00    -0.043 A 
ENDROOT
BRANCH   6   7
ATOM      7  C   UNL     1      -1.307  -0.781   0.007  0.00  0.00    +0.033 C 
BRANCH   7   8
ATOM      8  C   UNL     1      -1.187  -1.692   1.231  0.00  0.00    +0.071 C 
ATOM      9  C   UNL     1      -2.342  -2.694   1.237  0.00  0.00    +0.035 C 
ATOM     10  C   UNL     1      -2.222  -3.605   2.460  0.00  0.00    +0.003 C 
ATOM     11  C   UNL     1      -2.275  -2.758   3.734  0.00  0.00    +0.000 C 
ATOM     12  C   UNL     1      -1.119  -1.756   3.728  0.00  0.00    +0.003 C 
ATOM     13  C   UNL     1      -1.240  -0.845   2.504  0.00  0.00    +0.035 C 
BRANCH   8  14
ATOM     14  O   UNL     1       0.055  -2.397   1.179  0.00  0.00    -0.388 OA
ATOM     15  H   UNL     1       0.200  -2.995   1.926  0.00  0.00    +0.210 HD
ENDBRANCH   8  14
ENDBRANCH   7   8
BRANCH   7  16
ATOM     16  C   UNL     1      -1.115  -1.609  -1.265  0.00  0.00    -0.076 C 
BRANCH  16  17
ATOM     17  N   UNL     1      -1.300  -0.749  -2.441  0.00  0.00    +0.379 N 
ATOM     18  H   UNL     1      -1.265  -1.311  -3.278  0.00  0.00    -0.090 HD
ATOM     19  H   UNL     1      -2.196  -0.288  -2.383  0.00  0.00    -0.090 HD
ATOM     20  H   UNL     1      -0.567  -0.056  -2.470  0.00  0.00    -0.090 HD
ENDBRANCH  16  17
ENDBRANCH   7  16
ENDBRANCH   6   7
BRANCH   3  21
ATOM     21  O   UNL     1       2.641   3.228   0.256  0.00  0.00    -0.461 OA
BRANCH  21  22
ATOM     22  C   UNL     1       4.003   2.797   0.281  0.00  0.00    +0.340 C 
ATOM     23  C   UNL     1       4.926   4.017   0.223  0.00  0.00    +0.214 C 
ATOM     24  C   UNL     1       4.690   4.886   1.462  0.00  0.00    +0.180 C 
ATOM     25  C   UNL     1       4.924   4.039   2.717  0.00  0.00    +0.186 C 
ATOM     26  C   UNL     1       4.001   2.818   2.679  0.00  0.00    +0.266 C 
ATOM     27  O   UNL     1       4.250   2.071   1.487  0.00  0.00    -0.322 OA
BRANCH  26  28
ATOM     28  C   UNL     1       4.267   1.950   3.882  0.00  0.00    +0.387 C 
ATOM     29  O   UNL     1       4.027   2.368   5.001  0.00  0.00    -0.243 OA
ATOM     30  O   UNL     1       4.721   0.828   3.735  0.00  0.00    -0.243 OA
ENDBRANCH  26  28
BRANCH  25  31
ATOM     31  O   UNL     1       6.286   3.608   2.756  0.00  0.00    -0.386 OA
ATOM     32  H   UNL     1       6.505   3.067   3.526  0.00  0.00    +0.210 HD
ENDBRANCH  25  31
BRANCH  24  33
ATOM     33  O   UNL     1       5.597   5.989   1.452  0.00  0.00    -0.386 OA
ATOM     34  H   UNL     1       5.504   6.582   2.210  0.00  0.00    +0.210 HD
ENDBRANCH  24  33
BRANCH  23  35
ATOM     35  O   UNL     1       6.287   3.585   0.193  0.00  0.00    -0.383 OA
ATOM     36  H   UNL     1       6.506   3.026  -0.565  0.00  0.00    +0.210 HD
ENDBRANCH  23  35
ENDBRANCH  21  22
ENDBRANCH   3  21
TORSDOF 11
