REMARK  Name = ZINC43221545
REMARK  9 active torsions:
REMARK  status: ('A' for Active; 'I' for Inactive)
REMARK    1  A    between atoms: C_1  and  C_2
REMARK    2  A    between atoms: C_5  and  C_35
REMARK    3  A    between atoms: C_6  and  C_8
REMARK    4  A    between atoms: N_16  and  C_19
REMARK    5  A    between atoms: C_22  and  C_25
REMARK    6  A    between atoms: C_25  and  C_27
REMARK    7  A    between atoms: C_28  and  C_30
REMARK    8  A    between atoms: C_28  and  C_32
REMARK    9  A    between atoms: C_30  and  O_31
REMARK                            x       y       z     vdW  Elec       q    Type
REMARK                         _______ _______ _______ _____ _____    ______ ____
ROOT
ATOM      1  C   UNL     1       0.130  -3.167   2.267  0.00  0.00    -0.026 C 
ATOM      2  C   UNL     1       1.572  -3.556   2.579  0.00  0.00    +0.077 C 
ATOM      3  C   UNL     1       1.324  -4.063   4.050  0.00  0.00    +0.088 C 
ATOM      4  C   UNL     1       2.515  -4.836   4.305  0.00  0.00    +0.229 C 
ATOM      5  O   UNL     1       3.096  -4.970   5.361  0.00  0.00    -0.275 OA
ATOM      6  N   UNL     1       2.848  -5.386   3.092  0.00  0.00    -0.210 N 
ATOM      7  C   UNL     1       2.166  -4.817   2.036  0.00  0.00    +0.229 C 
ATOM      8  O   UNL     1       2.060  -5.246   0.907  0.00  0.00    -0.275 OA
ATOM      9  C   UNL     1       0.530  -2.985   4.654  0.00  0.00    +0.071 C 
ATOM     10  N   UNL     1      -0.313  -2.462   3.514  0.00  0.00    +0.397 N 
ATOM     11  H   UNL     1      -0.164  -1.469   3.417  0.00  0.00    -0.083 HD
ATOM     12  H   UNL     1      -1.290  -2.648   3.684  0.00  0.00    -0.083 HD
ENDROOT
BRANCH   1  18
ATOM     13  C   UNL     1       2.456  -0.237  -1.057  0.00  0.00    +0.044 C 
ATOM     14  C   UNL     1       1.187  -0.836  -0.508  0.00  0.00    -0.050 A 
ATOM     15  C   UNL     1      -0.030  -0.533  -1.092  0.00  0.00    +0.003 A 
ATOM     16  C   UNL     1      -1.194  -1.083  -0.589  0.00  0.00    +0.004 A 
ATOM     17  C   UNL     1      -1.142  -1.935   0.498  0.00  0.00    -0.049 A 
ATOM     18  C   UNL     1       0.074  -2.238   1.082  0.00  0.00    -0.057 A 
ATOM     19  C   UNL     1       1.239  -1.692   0.575  0.00  0.00    +0.005 A 
ATOM     20  C   UNL     1      -2.411  -2.533   1.048  0.00  0.00    +0.044 C 
ENDBRANCH   1  18
BRANCH   6  21
ATOM     21  C   UNL     1       3.788  -6.407   2.938  0.00  0.00    +0.044 A 
ATOM     22  C   UNL     1       4.441  -6.924   4.053  0.00  0.00    +0.024 A 
ATOM     23  C   UNL     1       5.368  -7.929   3.906  0.00  0.00    +0.013 A 
ATOM     24  C   UNL     1       5.655  -8.433   2.631  0.00  0.00    +0.017 A 
ATOM     25  C   UNL     1       4.996  -7.910   1.512  0.00  0.00    +0.013 A 
ATOM     26  C   UNL     1       4.066  -6.908   1.670  0.00  0.00    +0.024 A 
BRANCH  24  27
ATOM     27  C   UNL     1       6.645  -9.506   2.468  0.00  0.00    +0.160 C 
ATOM     28  O   UNL     1       7.216  -9.957   3.439  0.00  0.00    -0.292 OA
ATOM     29  C   UNL     1       6.952 -10.046   1.095  0.00  0.00    +0.091 C 
ENDBRANCH  24  27
ENDBRANCH   6  21
BRANCH   9  30
ATOM     30  C   UNL     1       1.434  -1.914   5.207  0.00  0.00    +0.348 C 
ATOM     31  O   UNL     1       1.355  -0.772   4.786  0.00  0.00    -0.248 OA
ATOM     32  O   UNL     1       2.244  -2.188   6.076  0.00  0.00    -0.248 OA
ENDBRANCH   9  30
BRANCH   9  33
ATOM     33  C   UNL     1      -0.376  -3.542   5.755  0.00  0.00    +0.155 C 
BRANCH  33  34
ATOM     34  O   UNL     1      -1.221  -2.501   6.248  0.00  0.00    -0.396 OA
ATOM     35  H   UNL     1      -1.823  -2.783   6.950  0.00  0.00    +0.209 HD
ENDBRANCH  33  34
ENDBRANCH   9  33
TORSDOF 6
