REMARK  Name = ZINC20187148
REMARK  5 active torsions:
REMARK  status: ('A' for Active; 'I' for Inactive)
REMARK    1  A    between atoms: C_3  and  C_8
REMARK    2  A    between atoms: C_5  and  N_7
REMARK    3  A    between atoms: C_8  and  C_9
REMARK    4  A    between atoms: C_9  and  C_10
REMARK    5  A    between atoms: N_12  and  C_13
REMARK                            x       y       z     vdW  Elec       q    Type
REMARK                         _______ _______ _______ _____ _____    ______ ____
ROOT
ATOM      1  C   UNL     1      -0.075   5.869  -1.412  0.00  0.00    +0.101 C 
ENDROOT
BRANCH   1   2
ATOM      2  C   UNL     1      -0.098   7.375  -1.404  0.00  0.00    +0.218 C 
ATOM      3  O   UNL     1      -0.103   7.977  -0.351  0.00  0.00    -0.275 OA
ATOM      4  N   UNL     1      -0.113   8.055  -2.568  0.00  0.00    -0.285 N 
ATOM      5  H   UNL     1      -0.032   7.513  -3.522  0.00  0.00    +0.155 HD
BRANCH   4   6
ATOM      6  C   UNL     1      -0.233   9.449  -2.563  0.00  0.00    +0.033 A 
ATOM      7  C   UNL     1      -0.939  10.091  -3.571  0.00  0.00    +0.024 A 
ATOM      8  C   UNL     1      -1.060  11.467  -3.561  0.00  0.00    +0.017 A 
ATOM      9  C   UNL     1      -0.468  12.207  -2.553  0.00  0.00    +0.018 A 
ATOM     10  C   UNL     1       0.242  11.570  -1.550  0.00  0.00    +0.017 A 
ATOM     11  C   UNL     1       0.361  10.194  -1.552  0.00  0.00    +0.024 A 
ATOM     12 BR   UNL     1      -0.629  14.091  -2.545  0.00  0.00    -0.050 Br
ENDBRANCH   4   6
ENDBRANCH   1   2
BRANCH   1  13
ATOM     13  C   UNL     1      -0.061   5.352   0.028  0.00  0.00    +0.044 C 
BRANCH  13  16
ATOM     14  C   UNL     1       1.196   1.790   0.005  0.00  0.00    +0.002 A 
ATOM     15  C   UNL     1       1.171   3.173   0.012  0.00  0.00    +0.004 A 
ATOM     16  C   UNL     1      -0.038   3.845   0.021  0.00  0.00    -0.045 A 
ATOM     17  C   UNL     1      -1.224   3.137   0.023  0.00  0.00    +0.026 A 
ATOM     18  C   UNL     1      -1.201   1.748   0.011  0.00  0.00    +0.025 A 
ATOM     19  C   UNL     1       0.015   1.076   0.007  0.00  0.00    +0.023 A 
BRANCH  18  20
ATOM     20  N   UNL     1      -2.399   1.029   0.007  0.00  0.00    -0.358 N 
ATOM     21  H   UNL     1      -2.380  -0.071  -0.003  0.00  0.00    +0.142 HD
ATOM     22  H   UNL     1      -3.361   1.562   0.014  0.00  0.00    +0.142 HD
ENDBRANCH  18  20
ENDBRANCH  13  16
ENDBRANCH   1  13
TORSDOF 5
