REMARK  Name = ZINC39584832
REMARK  9 active torsions:
REMARK  status: ('A' for Active; 'I' for Inactive)
REMARK    1  A    between atoms: C_6  and  O_7
REMARK    2  A    between atoms: O_7  and  C_8
REMARK    3  A    between atoms: C_8  and  C_9
REMARK    4  A    between atoms: C_9  and  O_11
REMARK    5  A    between atoms: O_11  and  C_12
REMARK    6  A    between atoms: C_12  and  C_13
REMARK    7  A    between atoms: N_15  and  C_16
REMARK    8  A    between atoms: C_19  and  N_26
REMARK    9  A    between atoms: C_21  and  C_22
REMARK                            x       y       z     vdW  Elec       q    Type
REMARK                         _______ _______ _______ _____ _____    ______ ____
ROOT
ATOM      1  C   UNL     1      -3.930  -6.058   0.005  0.00  0.00    +0.255 C 
ATOM      2  O   UNL     1      -2.871  -6.649  -0.002  0.00  0.00    -0.272 OA
ATOM      3  N   UNL     1      -5.087  -6.748   0.016  0.00  0.00    -0.282 N 
ATOM      4  H   UNL     1      -5.931  -6.279   0.103  0.00  0.00    +0.155 HD
ENDROOT
BRANCH   3   5
ATOM      5  C   UNL     1      -5.070  -8.143  -0.097  0.00  0.00    +0.045 A 
ATOM      6  C   UNL     1      -4.002  -8.778  -0.717  0.00  0.00    +0.026 A 
ATOM      7  C   UNL     1      -3.989 -10.155  -0.827  0.00  0.00    +0.034 A 
ATOM      8  C   UNL     1      -5.038 -10.900  -0.321  0.00  0.00    +0.127 A 
ATOM      9  C   UNL     1      -6.103 -10.271   0.296  0.00  0.00    +0.047 A 
ATOM     10  C   UNL     1      -6.119  -8.895   0.415  0.00  0.00    +0.078 A 
BRANCH  10  11
ATOM     11  C   UNL     1      -7.277  -8.210   1.095  0.00  0.00    +0.419 C 
ATOM     12  F   UNL     1      -8.200  -9.170   1.524  0.00  0.00    -0.166 F 
ATOM     13  F   UNL     1      -6.809  -7.488   2.198  0.00  0.00    -0.166 F 
ATOM     14  F   UNL     1      -7.896  -7.337   0.194  0.00  0.00    -0.166 F 
ENDBRANCH  10  11
BRANCH   8  15
ATOM     15  N   UNL     1      -5.020 -12.376  -0.441  0.00  0.00    +0.056 N 
ATOM     16  O   UNL     1      -4.090 -12.927  -0.981  0.00  0.00    -0.126 OA
ATOM     17  O   UNL     1      -5.936 -13.029   0.001  0.00  0.00    -0.126 OA
ENDBRANCH   8  15
ENDBRANCH   3   5
BRANCH   1  18
ATOM     18  C   UNL     1      -3.952  -4.551   0.002  0.00  0.00    +0.328 C 
BRANCH  18  19
ATOM     19  O   UNL     1      -2.612  -4.055  -0.011  0.00  0.00    -0.453 OA
BRANCH  19  20
ATOM     20  C   UNL     1      -2.455  -2.722  -0.015  0.00  0.00    +0.346 C 
ATOM     21  O   UNL     1      -3.424  -2.000  -0.009  0.00  0.00    -0.247 OA
BRANCH  20  22
ATOM     22  C   UNL     1      -1.071  -2.125  -0.028  0.00  0.00    +0.349 C 
BRANCH  22  23
ATOM     23  O   UNL     1      -1.167  -0.700  -0.031  0.00  0.00    -0.481 OA
BRANCH  23  29
ATOM     24  C   UNL     1      -0.019   1.384  -0.045  0.00  0.00    +0.047 A 
ATOM     25  C   UNL     1       1.168   2.091  -0.057  0.00  0.00    +0.023 A 
ATOM     26  C   UNL     1       2.376   1.415  -0.065  0.00  0.00    +0.041 A 
ATOM     27  C   UNL     1       2.397   0.032  -0.061  0.00  0.00    +0.023 A 
ATOM     28  C   UNL     1       1.212  -0.678  -0.050  0.00  0.00    +0.047 A 
ATOM     29  C   UNL     1       0.000  -0.003  -0.042  0.00  0.00    +0.121 A 
ATOM     30 CL   UNL     1       3.866   2.305  -0.080  0.00  0.00    -0.084 Cl
ENDBRANCH  23  29
ENDBRANCH  22  23
ENDBRANCH  20  22
ENDBRANCH  19  20
ENDBRANCH  18  19
ENDBRANCH   1  18
TORSDOF 9
