REMARK  Name = ZINC32507827
REMARK  11 active torsions:
REMARK  status: ('A' for Active; 'I' for Inactive)
REMARK    1  A    between atoms: C_1  and  C_2
REMARK    2  A    between atoms: C_5  and  C_39
REMARK    3  A    between atoms: C_6  and  C_8
REMARK    4  A    between atoms: C_8  and  N_9
REMARK    5  A    between atoms: N_9  and  C_10
REMARK    6  A    between atoms: C_13  and  C_25
REMARK    7  A    between atoms: N_15  and  C_17
REMARK    8  A    between atoms: C_17  and  C_18
REMARK    9  A    between atoms: N_27  and  C_28
REMARK   10  A    between atoms: C_28  and  C_29
REMARK   11  A    between atoms: C_29  and  C_30
REMARK                            x       y       z     vdW  Elec       q    Type
REMARK                         _______ _______ _______ _____ _____    ______ ____
ROOT
ATOM      1  C   UNL     1       1.480  -4.028   4.047  0.00  0.00    +0.036 C 
ATOM      2  C   UNL     1       1.231  -5.540   3.802  0.00  0.00    +0.010 C 
ATOM      3  C   UNL     1       1.970  -6.177   5.005  0.00  0.00    +0.021 C 
ATOM      4  N   UNL     1       3.172  -5.338   5.198  0.00  0.00    +0.391 N 
ATOM      5  C   UNL     1       2.905  -3.997   4.637  0.00  0.00    -0.059 C 
ATOM      6  H   UNL     1       3.958  -5.756   4.723  0.00  0.00    -0.080 HD
ENDROOT
BRANCH   3   7
ATOM      7  C   UNL     1       2.363  -7.596   4.687  0.00  0.00    +0.200 C 
ATOM      8  O   UNL     1       3.534  -7.914   4.678  0.00  0.00    -0.278 OA
ATOM      9  N   UNL     1       1.415  -8.514   4.413  0.00  0.00    -0.316 N 
ATOM     10  H   UNL     1       0.478  -8.260   4.420  0.00  0.00    +0.149 HD
BRANCH   9  11
ATOM     11  C   UNL     1       1.797  -9.893   4.104  0.00  0.00    +0.109 C 
BRANCH  11  12
ATOM     12  C   UNL     1       0.540 -10.723   3.833  0.00  0.00    +0.054 C 
BRANCH  12  13
ATOM     13  C   UNL     1       0.934 -12.142   3.515  0.00  0.00    -0.042 A 
ATOM     14  C   UNL     1       1.186 -12.511   2.206  0.00  0.00    +0.007 A 
ATOM     15  C   UNL     1       1.547 -13.812   1.909  0.00  0.00    +0.050 A 
ATOM     16  C   UNL     1       1.658 -14.750   2.924  0.00  0.00    +0.166 A 
ATOM     17  C   UNL     1       1.404 -14.378   4.241  0.00  0.00    +0.166 A 
ATOM     18  C   UNL     1       1.048 -13.071   4.532  0.00  0.00    +0.053 A 
ATOM     19  O   UNL     1       1.579 -15.468   5.044  0.00  0.00    -0.453 OA
ATOM     20  C   UNL     1       1.543 -16.605   4.160  0.00  0.00    +0.466 C 
ATOM     21  O   UNL     1       1.992 -16.073   2.900  0.00  0.00    -0.453 OA
ENDBRANCH  12  13
ENDBRANCH  11  12
ENDBRANCH   9  11
ENDBRANCH   3   7
BRANCH   1  22
ATOM     22  N   UNL     1       1.425  -3.282   2.783  0.00  0.00    -0.311 NA
ATOM     23  H   UNL     1       1.801  -3.829   2.023  0.00  0.00    +0.122 HD
BRANCH  22  24
ATOM     24  C   UNL     1       0.054  -2.845   2.489  0.00  0.00    +0.116 C 
BRANCH  24  30
ATOM     25  C   UNL     1      -0.018   1.503   0.010  0.00  0.00    +0.044 C 
ATOM     26  C   UNL     1       0.002  -0.004   0.002  0.00  0.00    -0.050 A 
ATOM     27  C   UNL     1       0.006  -0.689  -1.199  0.00  0.00    +0.003 A 
ATOM     28  C   UNL     1       0.025  -2.071  -1.207  0.00  0.00    +0.004 A 
ATOM     29  C   UNL     1       0.040  -2.768  -0.013  0.00  0.00    -0.046 A 
ATOM     30  C   UNL     1       0.037  -2.084   1.188  0.00  0.00    -0.030 A 
ATOM     31  C   UNL     1       0.023  -0.702   1.195  0.00  0.00    +0.008 A 
ATOM     32  C   UNL     1       0.059  -4.275  -0.021  0.00  0.00    +0.044 C 
ENDBRANCH  24  30
ENDBRANCH  22  24
ENDBRANCH   1  22
BRANCH   4  33
ATOM     33  C   UNL     1       3.469  -5.221   6.632  0.00  0.00    -0.042 C 
BRANCH  33  34
ATOM     34  C   UNL     1       4.761  -4.469   6.817  0.00  0.00    -0.064 A 
ATOM     35  C   UNL     1       5.961  -5.155   6.856  0.00  0.00    +0.003 A 
ATOM     36  C   UNL     1       7.147  -4.467   7.026  0.00  0.00    +0.020 A 
ATOM     37  C   UNL     1       7.133  -3.089   7.158  0.00  0.00    +0.041 A 
ATOM     38  C   UNL     1       5.933  -2.403   7.119  0.00  0.00    +0.020 A 
ATOM     39  C   UNL     1       4.748  -3.092   6.943  0.00  0.00    +0.003 A 
ATOM     40 CL   UNL     1       8.623  -2.223   7.372  0.00  0.00    -0.084 Cl
ENDBRANCH  33  34
ENDBRANCH   4  33
TORSDOF 9
