REMARK  Name = ZINC04615588
REMARK  9 active torsions:
REMARK  status: ('A' for Active; 'I' for Inactive)
REMARK    1  A    between atoms: C_1  and  C_2
REMARK    2  A    between atoms: C_2  and  C_3
REMARK    3  A    between atoms: C_3  and  C_4
REMARK    4  A    between atoms: C_4  and  N_5
REMARK    5  A    between atoms: C_9  and  C_23
REMARK    6  A    between atoms: N_13  and  C_14
REMARK    7  A    between atoms: C_17  and  O_21
REMARK    8  A    between atoms: N_25  and  C_26
REMARK    9  A    between atoms: C_26  and  C_27
REMARK                            x       y       z     vdW  Elec       q    Type
REMARK                         _______ _______ _______ _____ _____    ______ ____
ROOT
ATOM      1  N   UNL     1      -1.441   4.021   2.483  0.00  0.00    -0.251 N 
ATOM      2  C   UNL     1      -2.752   4.216   2.416  0.00  0.00    +0.223 C 
ATOM      3  O   UNL     1      -3.291   3.906   1.375  0.00  0.00    -0.275 OA
ATOM      4  C   UNL     1      -3.638   4.770   3.482  0.00  0.00    +0.120 C 
ATOM      5  C   UNL     1      -3.055   4.564   4.880  0.00  0.00    +0.148 C 
ATOM      6  S   UNL     1      -1.368   5.237   4.905  0.00  0.00    -0.077 S 
ATOM      7  C   UNL     1      -0.682   4.241   3.615  0.00  0.00    +0.164 C 
ATOM      8  N   UNL     1       0.518   3.724   3.731  0.00  0.00    -0.226 NA
ENDROOT
BRANCH   8   9
ATOM      9  C   UNL     1       1.257   3.953   4.862  0.00  0.00    +0.069 A 
ATOM     10  C   UNL     1       1.338   5.240   5.396  0.00  0.00    +0.051 A 
ATOM     11  C   UNL     1       2.079   5.466   6.539  0.00  0.00    +0.086 A 
ATOM     12  C   UNL     1       2.752   4.417   7.151  0.00  0.00    +0.153 A 
ATOM     13  C   UNL     1       2.678   3.136   6.620  0.00  0.00    +0.086 A 
ATOM     14  C   UNL     1       1.935   2.901   5.480  0.00  0.00    +0.051 A 
ATOM     15 CL   UNL     1       3.522   1.829   7.390  0.00  0.00    -0.080 Cl
ATOM     16 CL   UNL     1       2.175   7.065   7.208  0.00  0.00    -0.080 Cl
BRANCH  12  17
ATOM     17  O   UNL     1       3.485   4.645   8.274  0.00  0.00    -0.504 OA
ATOM     18  H   UNL     1       4.408   4.876   8.101  0.00  0.00    +0.292 HD
ENDBRANCH  12  17
ENDBRANCH   8   9
BRANCH   5  19
ATOM     19  C   UNL     1      -3.904   5.287   5.894  0.00  0.00    +0.227 C 
ATOM     20  O   UNL     1      -4.516   6.283   5.572  0.00  0.00    -0.275 OA
ATOM     21  N   UNL     1      -3.983   4.826   7.158  0.00  0.00    -0.315 N 
ATOM     22  H   UNL     1      -3.493   4.029   7.415  0.00  0.00    +0.149 HD
BRANCH  21  23
ATOM     23  C   UNL     1      -4.808   5.529   8.144  0.00  0.00    +0.101 C 
ATOM     24  C   UNL     1      -4.724   4.805   9.489  0.00  0.00    +0.024 C 
ENDBRANCH  21  23
ENDBRANCH   5  19
BRANCH   1  25
ATOM     25  C   UNL     1      -0.756   3.549   1.278  0.00  0.00    +0.115 C 
BRANCH  25  26
ATOM     26  C   UNL     1      -0.735   2.019   1.269  0.00  0.00    +0.019 C 
BRANCH  26  28
ATOM     27  C   UNL     1       0.002  -0.004   0.002  0.00  0.00    +0.004 C 
ATOM     28  C   UNL     1      -0.019   1.526   0.010  0.00  0.00    -0.002 C 
ENDBRANCH  26  28
ENDBRANCH  25  26
ENDBRANCH   1  25
TORSDOF 7
