REMARK  Name = ZINC39487030
REMARK  11 active torsions:
REMARK  status: ('A' for Active; 'I' for Inactive)
REMARK    1  A    between atoms: C_1  and  C_2
REMARK    2  A    between atoms: C_2  and  C_3
REMARK    3  A    between atoms: C_2  and  S_4
REMARK    4  A    between atoms: S_4  and  N_7
REMARK    5  A    between atoms: C_9  and  C_35
REMARK    6  A    between atoms: C_9  and  C_36
REMARK    7  A    between atoms: N_10  and  C_13
REMARK    8  A    between atoms: C_13  and  C_14
REMARK    9  A    between atoms: C_14  and  C_29
REMARK   10  A    between atoms: N_17  and  S_20
REMARK   11  A    between atoms: S_20  and  C_23
REMARK                            x       y       z     vdW  Elec       q    Type
REMARK                         _______ _______ _______ _____ _____    ______ ____
ROOT
ATOM      1  C   UNL     1       0.405  -4.929   2.071  0.00  0.00    -0.008 C 
ATOM      2  C   UNL     1       0.563  -3.533   2.678  0.00  0.00    +0.026 C 
ATOM      3  C   UNL     1       0.173  -2.480   1.635  0.00  0.00    +0.110 C 
ATOM      4  N   UNL     1       0.966  -2.703   0.418  0.00  0.00    -0.177 NA
ATOM      5  C   UNL     1       0.957  -4.038  -0.196  0.00  0.00    +0.110 C 
ATOM      6  C   UNL     1       1.338  -5.073   0.867  0.00  0.00    +0.026 C 
ENDROOT
BRANCH   1   7
ATOM      7  C   UNL     1       0.761  -5.983   3.121  0.00  0.00    -0.003 C 
ATOM      8  C   UNL     1       0.001  -5.691   4.416  0.00  0.00    +0.004 C 
ATOM      9  C   UNL     1       0.356  -6.745   5.466  0.00  0.00    +0.000 C 
ATOM     10  C   UNL     1       1.861  -6.706   5.738  0.00  0.00    +0.000 C 
ATOM     11  C   UNL     1       2.622  -6.999   4.443  0.00  0.00    +0.000 C 
ATOM     12  C   UNL     1       2.266  -5.945   3.393  0.00  0.00    +0.004 C 
ENDBRANCH   1   7
BRANCH   4  13
ATOM     13  S   UNL     1       1.853  -1.474  -0.248  0.00  0.00    +0.061 S 
ATOM     14  O   UNL     1       1.925  -1.735  -1.643  0.00  0.00    -0.153 OA
ATOM     15  O   UNL     1       1.324  -0.263   0.274  0.00  0.00    -0.153 OA
BRANCH  13  16
ATOM     16  C   UNL     1       3.494  -1.617   0.377  0.00  0.00    +0.105 A 
ATOM     17  C   UNL     1       3.847  -0.970   1.547  0.00  0.00    +0.028 A 
ATOM     18  C   UNL     1       5.134  -1.082   2.037  0.00  0.00    +0.002 A 
ATOM     19  C   UNL     1       6.069  -1.842   1.359  0.00  0.00    +0.000 A 
ATOM     20  C   UNL     1       5.716  -2.490   0.190  0.00  0.00    +0.002 A 
ATOM     21  C   UNL     1       4.427  -2.381  -0.299  0.00  0.00    +0.028 A 
ENDBRANCH  13  16
ENDBRANCH   4  13
BRANCH   1  22
ATOM     22  C   UNL     1      -1.044  -5.128   1.620  0.00  0.00    +0.117 C 
BRANCH  22  26
ATOM     23  N   UNL     1      -0.977  -8.108  -0.482  0.00  0.00    -0.158 N 
ATOM     24  C   UNL     1      -1.750  -8.725   0.606  0.00  0.00    +0.161 C 
ATOM     25  C   UNL     1      -1.897  -7.592   1.641  0.00  0.00    +0.051 C 
ATOM     26  N   UNL     1      -1.192  -6.458   1.026  0.00  0.00    -0.277 N 
ATOM     27  C   UNL     1      -0.701  -6.837  -0.162  0.00  0.00    +0.324 C 
ATOM     28  O   UNL     1      -0.066  -6.094  -0.884  0.00  0.00    -0.251 OA
ATOM     29  C   UNL     1      -3.373  -7.252   1.858  0.00  0.00    +0.033 C 
ATOM     30  C   UNL     1      -1.235  -7.984   2.963  0.00  0.00    +0.033 C 
BRANCH  23  31
ATOM     31  S   UNL     1      -0.514  -8.867  -1.880  0.00  0.00    +0.051 S 
ATOM     32  O   UNL     1      -0.248  -7.812  -2.794  0.00  0.00    -0.155 OA
ATOM     33  O   UNL     1      -1.546  -9.808  -2.140  0.00  0.00    -0.155 OA
BRANCH  31  35
ATOM     34  C   UNL     1       1.591 -10.406  -2.704  0.00  0.00    +0.033 C 
ATOM     35  C   UNL     1       1.025  -9.729  -1.455  0.00  0.00    +0.145 C 
ATOM     36  C   UNL     1       2.042  -8.721  -0.916  0.00  0.00    +0.033 C 
ENDBRANCH  31  35
ENDBRANCH  23  31
ENDBRANCH  22  26
ENDBRANCH   1  22
TORSDOF 7
