REMARK  Name = ZINC39586055
REMARK  5 active torsions:
REMARK  status: ('A' for Active; 'I' for Inactive)
REMARK    1  A    between atoms: C_1  and  C_2
REMARK    2  A    between atoms: C_6  and  N_8
REMARK    3  A    between atoms: C_12  and  S_13
REMARK    4  A    between atoms: S_13  and  C_14
REMARK    5  A    between atoms: C_14  and  C_15
REMARK                            x       y       z     vdW  Elec       q    Type
REMARK                         _______ _______ _______ _____ _____    ______ ____
ROOT
ATOM      1  C   UNL     1      -3.903  -6.487   2.012  0.00  0.00    +0.228 C 
ATOM      2  O   UNL     1      -4.283  -6.042   0.950  0.00  0.00    -0.275 OA
ATOM      3  N   UNL     1      -4.565  -7.510   2.590  0.00  0.00    -0.284 N 
ATOM      4  C   UNL     1      -4.747  -8.635   1.927  0.00  0.00    +0.050 C 
ATOM      5  C   UNL     1      -4.110  -8.826   0.606  0.00  0.00    +0.054 C 
ATOM      6  C   UNL     1      -4.304  -9.988  -0.067  0.00  0.00    +0.097 C 
ATOM      7  N   UNL     1      -3.881 -10.482  -1.267  0.00  0.00    -0.190 NA
ATOM      8  C   UNL     1      -4.386 -11.686  -1.414  0.00  0.00    +0.369 C 
ATOM      9  O   UNL     1      -4.173 -12.474  -2.494  0.00  0.00    -0.243 OA
ATOM     10  N   UNL     1      -5.140 -12.036  -0.359  0.00  0.00    -0.190 NA
ATOM     11  C   UNL     1      -5.145 -11.051   0.519  0.00  0.00    +0.096 C 
ATOM     12  C   UNL     1      -5.773 -10.851   1.828  0.00  0.00    +0.047 C 
ATOM     13  C   UNL     1      -5.578  -9.701   2.503  0.00  0.00    +0.041 C 
ATOM     14 BR   UNL     1      -6.384  -9.455   4.196  0.00  0.00    -0.048 Br
ATOM     15  H   UNL     1      -4.907  -7.418   3.493  0.00  0.00    +0.155 HD
ENDROOT
BRANCH   1  16
ATOM     16  C   UNL     1      -2.692  -5.896   2.687  0.00  0.00    +0.173 C 
BRANCH  16  17
ATOM     17  S   UNL     1      -2.031  -4.547   1.670  0.00  0.00    -0.078 S 
BRANCH  17  22
ATOM     18  N   UNL     1       0.190  -2.950   2.213  0.00  0.00    -0.295 N 
ATOM     19  C   UNL     1       1.137  -2.824   3.207  0.00  0.00    +0.113 A 
ATOM     20  C   UNL     1       0.863  -3.759   4.131  0.00  0.00    +0.131 A 
ATOM     21  N   UNL     1      -0.219  -4.448   3.730  0.00  0.00    -0.230 NA
ATOM     22  C   UNL     1      -0.638  -3.969   2.582  0.00  0.00    +0.174 A 
BRANCH  18  28
ATOM     23  C   UNL     1       0.069   1.475   0.070  0.00  0.00    +0.044 C 
ATOM     24  C   UNL     1       0.032  -0.029  -0.018  0.00  0.00    -0.048 A 
ATOM     25  C   UNL     1      -0.099  -0.646  -1.249  0.00  0.00    +0.003 A 
ATOM     26  C   UNL     1      -0.135  -2.026  -1.333  0.00  0.00    +0.002 A 
ATOM     27  C   UNL     1      -0.039  -2.792  -0.188  0.00  0.00    +0.026 A 
ATOM     28  C   UNL     1       0.093  -2.175   1.049  0.00  0.00    +0.049 A 
ATOM     29  C   UNL     1       0.134  -0.790   1.130  0.00  0.00    +0.029 A 
ENDBRANCH  18  28
ENDBRANCH  17  22
ENDBRANCH  16  17
ENDBRANCH   1  16
TORSDOF 4
