REMARK  Name = ZINC43772244
REMARK  12 active torsions:
REMARK  status: ('A' for Active; 'I' for Inactive)
REMARK    1  A    between atoms: C_4  and  C_7
REMARK    2  A    between atoms: C_7  and  C_9
REMARK    3  A    between atoms: C_7  and  O_31
REMARK    4  A    between atoms: C_10  and  C_11
REMARK    5  A    between atoms: C_13  and  O_30
REMARK    6  A    between atoms: C_16  and  O_29
REMARK    7  A    between atoms: C_18  and  C_20
REMARK    8  A    between atoms: C_20  and  C_21
REMARK    9  A    between atoms: C_22  and  C_23
REMARK   10  A    between atoms: C_23  and  C_24
REMARK   11  A    between atoms: C_24  and  C_25
REMARK   12  A    between atoms: C_25  and  C_26
REMARK                            x       y       z     vdW  Elec       q    Type
REMARK                         _______ _______ _______ _____ _____    ______ ____
ROOT
ATOM      1  C   UNL     1       2.290  -4.478  -3.547  0.00  0.00    +0.046 C 
ATOM      2  C   UNL     1       0.956  -5.251  -3.586  0.00  0.00    +0.124 C 
ATOM      3  C   UNL     1       0.804  -5.673  -5.068  0.00  0.00    +0.063 C 
ATOM      4  C   UNL     1       2.258  -6.024  -5.474  0.00  0.00    +0.121 C 
ATOM      5  C   UNL     1       3.119  -4.969  -4.747  0.00  0.00    +0.031 C 
ENDROOT
BRANCH   1   7
ATOM      6  C   UNL     1       2.447  -2.182  -2.731  0.00  0.00    +0.000 C 
ATOM      7  C   UNL     1       2.033  -2.998  -3.668  0.00  0.00    -0.022 C 
BRANCH   6   8
ATOM      8  C   UNL     1       2.190  -0.702  -2.852  0.00  0.00    +0.140 C 
BRANCH   8  12
ATOM      9  C   UNL     1      -0.865   1.050  -0.337  0.00  0.00    +0.000 C 
ATOM     10  C   UNL     1       0.467   1.790  -0.475  0.00  0.00    +0.000 C 
ATOM     11  C   UNL     1       1.198   1.295  -1.725  0.00  0.00    +0.006 C 
ATOM     12  C   UNL     1       1.459  -0.207  -1.602  0.00  0.00    +0.022 C 
ATOM     13  C   UNL     1       0.127  -0.947  -1.464  0.00  0.00    +0.006 C 
ATOM     14  C   UNL     1      -0.604  -0.453  -0.214  0.00  0.00    +0.000 C 
ENDBRANCH   8  12
BRANCH   8  15
ATOM     15  O   UNL     1       1.384  -0.452  -4.005  0.00  0.00    -0.387 OA
ATOM     16  H   UNL     1       0.523  -0.890  -3.986  0.00  0.00    +0.210 HD
ENDBRANCH   8  15
ENDBRANCH   6   8
ENDBRANCH   1   7
BRANCH   4  17
ATOM     17  O   UNL     1       2.597  -7.340  -5.032  0.00  0.00    -0.391 OA
ATOM     18  H   UNL     1       2.047  -8.037  -5.416  0.00  0.00    +0.210 HD
ENDBRANCH   4  17
BRANCH   2  19
ATOM     19  O   UNL     1      -0.125  -4.404  -3.191  0.00  0.00    -0.391 OA
ATOM     20  H   UNL     1      -0.988  -4.839  -3.198  0.00  0.00    +0.210 HD
ENDBRANCH   2  19
BRANCH   5  21
ATOM     21  C   UNL     1       4.424  -5.602  -4.259  0.00  0.00    +0.033 C 
BRANCH  21  22
ATOM     22  C   UNL     1       5.279  -5.967  -5.445  0.00  0.00    -0.031 C 
ATOM     23  C   UNL     1       6.522  -5.558  -5.506  0.00  0.00    -0.031 C 
BRANCH  23  24
ATOM     24  C   UNL     1       7.149  -4.870  -4.320  0.00  0.00    +0.027 C 
BRANCH  24  25
ATOM     25  C   UNL     1       8.450  -5.582  -3.946  0.00  0.00    +0.015 C 
BRANCH  25  26
ATOM     26  C   UNL     1       9.086  -4.884  -2.742  0.00  0.00    +0.125 C 
BRANCH  26  27
ATOM     27  C   UNL     1      10.367  -5.586  -2.374  0.00  0.00    +0.356 C 
ATOM     28  O   UNL     1      10.738  -6.554  -3.015  0.00  0.00    -0.246 OA
ATOM     29  O   UNL     1      11.034  -5.185  -1.435  0.00  0.00    -0.246 OA
ENDBRANCH  26  27
ENDBRANCH  25  26
ENDBRANCH  24  25
ENDBRANCH  23  24
ENDBRANCH  21  22
ENDBRANCH   5  21
TORSDOF 12
