REMARK  Name = ZINC16695452
REMARK  10 active torsions:
REMARK  status: ('A' for Active; 'I' for Inactive)
REMARK    1  A    between atoms: C_5  and  O_7
REMARK    2  A    between atoms: O_7  and  C_8
REMARK    3  A    between atoms: C_8  and  C_9
REMARK    4  A    between atoms: C_9  and  N_45
REMARK    5  A    between atoms: C_10  and  C_11
REMARK    6  A    between atoms: C_10  and  N_45
REMARK    7  A    between atoms: N_13  and  C_14
REMARK    8  A    between atoms: C_14  and  C_15
REMARK    9  A    between atoms: C_18  and  S_21
REMARK   10  A    between atoms: S_21  and  N_24
REMARK                            x       y       z     vdW  Elec       q    Type
REMARK                         _______ _______ _______ _____ _____    ______ ____
ROOT
ATOM      1  C   UNL     1       1.147   1.655   0.000  0.00  0.00    +0.196 C 
ATOM      2  O   UNL     1       1.130   2.868   0.007  0.00  0.00    -0.278 OA
ATOM      3  N   UNL     1      -0.011   0.966   0.007  0.00  0.00    -0.313 N 
ATOM      4  H   UNL     1       0.002  -0.004   0.002  0.00  0.00    +0.149 HD
ENDROOT
BRANCH   1   5
ATOM      5  C   UNL     1       2.462   0.920  -0.017  0.00  0.00    +0.015 C 
BRANCH   5   6
ATOM      6  N   UNL     1       3.564   1.900  -0.022  0.00  0.00    +0.387 N 
ATOM      7  H   UNL     1       3.486   2.493  -0.856  0.00  0.00    -0.085 HD
ATOM      8  H   UNL     1       3.502   2.484   0.820  0.00  0.00    -0.085 HD
BRANCH   6   9
ATOM      9  C   UNL     1       4.866   1.207  -0.038  0.00  0.00    -0.040 C 
BRANCH   9  10
ATOM     10  C   UNL     1       5.988   2.247  -0.043  0.00  0.00    +0.210 C 
BRANCH  10  11
ATOM     11  O   UNL     1       5.962   2.982   1.182  0.00  0.00    -0.491 OA
BRANCH  11  16
ATOM     12  C   UNL     1       8.781   5.179   0.499  0.00  0.00    +0.004 A 
ATOM     13  C   UNL     1       8.813   5.928   1.661  0.00  0.00    +0.003 A 
ATOM     14  C   UNL     1       7.890   5.693   2.664  0.00  0.00    +0.042 A 
ATOM     15  C   UNL     1       6.933   4.706   2.507  0.00  0.00    +0.165 A 
ATOM     16  C   UNL     1       6.901   3.953   1.340  0.00  0.00    +0.155 A 
ATOM     17  C   UNL     1       7.831   4.189   0.339  0.00  0.00    +0.048 A 
ATOM     18  F   UNL     1       6.032   4.475   3.486  0.00  0.00    -0.202 F 
ENDBRANCH  11  16
ENDBRANCH  10  11
ENDBRANCH   9  10
ENDBRANCH   6   9
ENDBRANCH   5   6
ENDBRANCH   1   5
BRANCH   3  19
ATOM     19  C   UNL     1      -1.290   1.681   0.017  0.00  0.00    +0.139 C 
BRANCH  19  20
ATOM     20  C   UNL     1      -2.422   0.686   0.017  0.00  0.00    -0.030 A 
ATOM     21  C   UNL     1      -2.950   0.241  -1.180  0.00  0.00    +0.007 A 
ATOM     22  C   UNL     1      -3.986  -0.675  -1.180  0.00  0.00    +0.029 A 
ATOM     23  C   UNL     1      -4.499  -1.138   0.017  0.00  0.00    +0.105 A 
ATOM     24  C   UNL     1      -3.974  -0.689   1.214  0.00  0.00    +0.029 A 
ATOM     25  C   UNL     1      -2.935   0.224   1.214  0.00  0.00    +0.007 A 
BRANCH  23  26
ATOM     26  S   UNL     1      -5.822  -2.302   0.017  0.00  0.00    +0.056 S 
ATOM     27  O   UNL     1      -5.769  -2.977  -1.233  0.00  0.00    -0.153 OA
ATOM     28  O   UNL     1      -5.756  -2.992   1.258  0.00  0.00    -0.153 OA
BRANCH  26  29
ATOM     29  N   UNL     1      -7.234  -1.438   0.030  0.00  0.00    -0.204 NA
ATOM     30  H   UNL     1      -8.030  -1.803  -0.388  0.00  0.00    +0.144 HD
ATOM     31  H   UNL     1      -7.266  -0.567   0.455  0.00  0.00    +0.144 HD
ENDBRANCH  26  29
ENDBRANCH  23  26
ENDBRANCH  19  20
ENDBRANCH   3  19
TORSDOF 10
