REMARK  Name = ZINC42844168
REMARK  8 active torsions:
REMARK  status: ('A' for Active; 'I' for Inactive)
REMARK    1  A    between atoms: C_1  and  C_2
REMARK    2  A    between atoms: C_2  and  C_3
REMARK    3  A    between atoms: C_3  and  C_5
REMARK    4  A    between atoms: C_3  and  N_6
REMARK    5  A    between atoms: C_15  and  C_17
REMARK    6  A    between atoms: C_20  and  C_23
REMARK    7  A    between atoms: C_23  and  C_24
REMARK    8  A    between atoms: C_23  and  C_25
REMARK                            x       y       z     vdW  Elec       q    Type
REMARK                         _______ _______ _______ _____ _____    ______ ____
ROOT
ATOM      1  N   UNL     1       1.690  -0.717  -4.032  0.00  0.00    -0.297 N 
ATOM      2  C   UNL     1       0.362  -0.503  -3.962  0.00  0.00    +0.303 C 
ATOM      3  O   UNL     1      -0.260  -0.854  -2.978  0.00  0.00    -0.253 OA
ATOM      4  N   UNL     1      -0.278   0.100  -4.984  0.00  0.00    -0.283 N 
ATOM      5  C   UNL     1      -1.704   0.442  -4.876  0.00  0.00    +0.128 C 
ATOM      6  C   UNL     1      -1.871   1.940  -5.156  0.00  0.00    +0.127 C 
ATOM      7  N   UNL     1      -1.156   2.269  -6.397  0.00  0.00    -0.295 N 
ATOM      8  C   UNL     1       0.269   1.927  -6.505  0.00  0.00    +0.127 C 
ATOM      9  C   UNL     1       0.438   0.433  -6.223  0.00  0.00    +0.128 C 
ATOM     10  C   UNL     1      -1.796   2.872  -7.419  0.00  0.00    +0.247 C 
ATOM     11  O   UNL     1      -1.223   3.048  -8.476  0.00  0.00    -0.270 OA
ATOM     12  H   UNL     1       2.174  -0.501  -4.845  0.00  0.00    +0.151 HD
ENDROOT
BRANCH  10  13
ATOM     13  C   UNL     1      -3.196   3.318  -7.253  0.00  0.00    +0.037 A 
ATOM     14  C   UNL     1      -3.643   3.779  -6.014  0.00  0.00    +0.013 A 
ATOM     15  C   UNL     1      -4.950   4.195  -5.866  0.00  0.00    +0.004 A 
ATOM     16  C   UNL     1      -5.817   4.156  -6.944  0.00  0.00    -0.045 A 
ATOM     17  C   UNL     1      -5.380   3.700  -8.175  0.00  0.00    +0.004 A 
ATOM     18  C   UNL     1      -4.074   3.287  -8.338  0.00  0.00    +0.013 A 
BRANCH  16  19
ATOM     19  C   UNL     1      -7.244   4.611  -6.775  0.00  0.00    +0.013 C 
ATOM     20  C   UNL     1      -7.521   5.780  -7.723  0.00  0.00    +0.012 C 
ATOM     21  C   UNL     1      -8.190   3.454  -7.101  0.00  0.00    +0.012 C 
ENDBRANCH  16  19
ENDBRANCH  10  13
BRANCH   1  22
ATOM     22  C   UNL     1       2.404  -1.276  -2.881  0.00  0.00    +0.071 C 
ATOM     23  C   UNL     1       2.784  -0.148  -1.920  0.00  0.00    +0.028 C 
BRANCH  22  25
ATOM     24  C   UNL     1       3.286  -3.190  -4.223  0.00  0.00    +0.005 C 
ATOM     25  C   UNL     1       3.671  -1.986  -3.362  0.00  0.00    +0.019 C 
ENDBRANCH  22  25
ENDBRANCH   1  22
TORSDOF 4
