REMARK  Name = ZINC23858082
REMARK  8 active torsions:
REMARK  status: ('A' for Active; 'I' for Inactive)
REMARK    1  A    between atoms: C_1  and  N_2
REMARK    2  A    between atoms: C_9  and  C_11
REMARK    3  A    between atoms: C_11  and  C_13
REMARK    4  A    between atoms: C_11  and  N_30
REMARK    5  A    between atoms: C_13  and  N_14
REMARK    6  A    between atoms: C_15  and  C_17
REMARK    7  A    between atoms: N_19  and  C_20
REMARK    8  A    between atoms: C_25  and  C_26
REMARK                            x       y       z     vdW  Elec       q    Type
REMARK                         _______ _______ _______ _____ _____    ______ ____
ROOT
ATOM      1  C   UNL     1       1.892   2.022  -0.346  0.00  0.00    +0.094 C 
ENDROOT
BRANCH   1   2
ATOM      2  N   UNL     1       2.536   1.764   0.944  0.00  0.00    -0.309 N 
ATOM      3  C   UNL     1       3.472   2.614   1.413  0.00  0.00    +0.299 C 
ATOM      4  O   UNL     1       3.780   3.593   0.765  0.00  0.00    -0.265 OA
ATOM      5  H   UNL     1       2.256   0.877   1.531  0.00  0.00    +0.149 HD
BRANCH   3   6
ATOM      6  C   UNL     1       4.128   2.351   2.728  0.00  0.00    +0.303 C 
ATOM      7  O   UNL     1       3.820   1.372   3.375  0.00  0.00    -0.265 OA
ATOM      8  N   UNL     1       5.064   3.201   3.196  0.00  0.00    -0.277 N 
ATOM      9  H   UNL     1       5.276   4.136   2.657  0.00  0.00    +0.155 HD
BRANCH   8  10
ATOM     10  C   UNL     1       5.763   2.894   4.366  0.00  0.00    +0.045 A 
ATOM     11  C   UNL     1       5.817   1.582   4.821  0.00  0.00    +0.024 A 
ATOM     12  C   UNL     1       6.514   1.282   5.975  0.00  0.00    +0.002 A 
ATOM     13  C   UNL     1       7.149   2.287   6.683  0.00  0.00    +0.001 A 
ATOM     14  C   UNL     1       7.093   3.594   6.236  0.00  0.00    +0.014 A 
ATOM     15  C   UNL     1       6.402   3.901   5.079  0.00  0.00    +0.076 A 
BRANCH  15  16
ATOM     16  C   UNL     1       6.341   5.325   4.593  0.00  0.00    +0.419 C 
ATOM     17  F   UNL     1       7.053   6.149   5.471  0.00  0.00    -0.166 F 
ATOM     18  F   UNL     1       6.906   5.407   3.315  0.00  0.00    -0.166 F 
ATOM     19  F   UNL     1       5.007   5.743   4.540  0.00  0.00    -0.166 F 
ENDBRANCH  15  16
ENDBRANCH   8  10
ENDBRANCH   3   6
ENDBRANCH   1   2
BRANCH   1  20
ATOM     20  C   UNL     1       0.961   0.859  -0.693  0.00  0.00    -0.020 C 
BRANCH  20  29
ATOM     21  C   UNL     1      -1.042   2.794  -6.526  0.00  0.00    +0.129 C 
ATOM     22  N   UNL     1      -1.252   1.494  -5.875  0.00  0.00    -0.332 N 
ATOM     23  C   UNL     1      -0.563   0.413  -6.614  0.00  0.00    +0.109 C 
ATOM     24  C   UNL     1      -0.199  -0.585  -5.491  0.00  0.00    +0.056 C 
ATOM     25  C   UNL     1      -0.128   0.300  -4.263  0.00  0.00    -0.025 A 
ATOM     26  C   UNL     1      -0.756   1.503  -4.565  0.00  0.00    +0.033 A 
ATOM     27  C   UNL     1      -0.815   2.499  -3.593  0.00  0.00    +0.023 A 
ATOM     28  C   UNL     1      -0.264   2.286  -2.346  0.00  0.00    +0.004 A 
ATOM     29  C   UNL     1       0.359   1.086  -2.056  0.00  0.00    -0.059 A 
ATOM     30  C   UNL     1       0.425   0.093  -3.017  0.00  0.00    +0.007 A 
ENDBRANCH  20  29
BRANCH  20  31
ATOM     31  N   UNL     1      -0.111   0.774   0.308  0.00  0.00    +0.385 N 
ATOM     32  C   UNL     1      -1.263   0.030  -0.217  0.00  0.00    -0.078 C 
ATOM     33  C   UNL     1      -2.296  -0.164   0.895  0.00  0.00    -0.019 C 
ATOM     34  C   UNL     1      -2.743   1.206   1.415  0.00  0.00    -0.004 C 
ATOM     35  C   UNL     1      -1.518   1.979   1.911  0.00  0.00    -0.019 C 
ATOM     36  C   UNL     1      -0.507   2.111   0.769  0.00  0.00    -0.078 C 
ATOM     37  H   UNL     1       0.278   0.221   1.176  0.00  0.00    -0.081 HD
ENDBRANCH  20  31
ENDBRANCH   1  20
TORSDOF 7
