REMARK  Name = ZINC05648892
REMARK  2 active torsions:
REMARK  status: ('A' for Active; 'I' for Inactive)
REMARK    1  A    between atoms: C_1  and  C_2
REMARK    2  A    between atoms: C_14  and  O_17
REMARK                            x       y       z     vdW  Elec       q    Type
REMARK                         _______ _______ _______ _____ _____    ______ ____
ROOT
ATOM      1  C   UNL     1      -0.639   1.310  -0.032  0.00  0.00    +0.090 C 
ATOM      2  C   UNL     1      -0.374  -0.173  -0.008  0.00  0.00    +0.149 A 
ATOM      3  N   UNL     1      -0.290  -0.962  -1.048  0.00  0.00    -0.132 NA
ATOM      4  N   UNL     1      -0.052  -2.174  -0.670  0.00  0.00    -0.121 NA
ATOM      5  C   UNL     1       0.028  -2.213   0.622  0.00  0.00    +0.209 A 
ATOM      6  N   UNL     1      -0.173  -0.937   1.094  0.00  0.00    -0.222 N 
ATOM      7  N   UNL     1      -0.159  -0.608   2.446  0.00  0.00    -0.253 N 
ATOM      8  C   UNL     1       0.314  -1.412   3.395  0.00  0.00    +0.046 C 
ATOM      9  C   UNL     1       0.106  -1.030   4.721  0.00  0.00    +0.045 C 
ATOM     10  C   UNL     1      -0.845  -0.031   5.029  0.00  0.00    +0.017 C 
ATOM     11  C   UNL     1      -1.048   0.341   6.317  0.00  0.00    +0.055 C 
ATOM     12  C   UNL     1      -0.316  -0.263   7.357  0.00  0.00    +0.224 C 
ATOM     13  O   UNL     1      -0.506   0.080   8.518  0.00  0.00    -0.284 OA
ATOM     14  C   UNL     1       0.634  -1.259   7.068  0.00  0.00    +0.212 C 
ATOM     15  C   UNL     1       0.843  -1.648   5.764  0.00  0.00    +0.232 C 
ATOM     16  O   UNL     1       1.754  -2.612   5.477  0.00  0.00    -0.283 OA
ATOM     17  C   UNL     1       1.054  -2.697   3.157  0.00  0.00    +0.130 C 
ATOM     18  S   UNL     1       0.337  -3.561   1.718  0.00  0.00    -0.078 S 
ATOM     19  H   UNL     1      -0.514   0.255   2.711  0.00  0.00    +0.173 HD
ENDROOT
BRANCH  14  20
ATOM     20  O   UNL     1       1.340  -1.842   8.076  0.00  0.00    -0.501 OA
ATOM     21  H   UNL     1       1.120  -1.506   8.956  0.00  0.00    +0.292 HD
ENDBRANCH  14  20
TORSDOF 1
