REMARK  Name = ZINC08694284
REMARK  9 active torsions:
REMARK  status: ('A' for Active; 'I' for Inactive)
REMARK    1  A    between atoms: C_1  and  C_2
REMARK    2  A    between atoms: N_4  and  C_27
REMARK    3  A    between atoms: C_7  and  C_8
REMARK    4  A    between atoms: N_9  and  C_10
REMARK    5  A    between atoms: C_10  and  C_11
REMARK    6  A    between atoms: C_11  and  N_63
REMARK    7  A    between atoms: C_17  and  C_19
REMARK    8  A    between atoms: C_19  and  C_20
REMARK    9  A    between atoms: C_30  and  N_33
REMARK                            x       y       z     vdW  Elec       q    Type
REMARK                         _______ _______ _______ _____ _____    ______ ____
ROOT
ATOM      1  C   UNL     1      -0.729   1.579   1.267  0.00  0.00    +0.122 C 
ENDROOT
BRANCH   1   3
ATOM      2  C   UNL     1      -0.474   1.407   3.685  0.00  0.00    +0.096 C 
ATOM      3  N   UNL     1      -0.020   1.094   2.454  0.00  0.00    -0.297 NA
BRANCH   2  10
ATOM      4  C   UNL     1      -1.319   1.991   6.722  0.00  0.00    +0.063 C 
ATOM      5  C   UNL     1      -0.149   1.187   6.216  0.00  0.00    +0.052 C 
ATOM      6  N   UNL     1       0.736   0.579   6.944  0.00  0.00    -0.181 NA
ATOM      7  N   UNL     1       1.682  -0.073   6.154  0.00  0.00    -0.160 N 
ATOM      8  C   UNL     1       1.402   0.112   4.848  0.00  0.00    +0.253 C 
ATOM      9  O   UNL     1       2.025  -0.325   3.895  0.00  0.00    -0.272 OA
ATOM     10  C   UNL     1       0.196   0.948   4.806  0.00  0.00    +0.163 C 
BRANCH   7  11
ATOM     11  C   UNL     1       2.763  -0.816   6.645  0.00  0.00    +0.060 A 
ATOM     12  C   UNL     1       3.643  -1.430   5.764  0.00  0.00    +0.028 A 
ATOM     13  C   UNL     1       4.710  -2.159   6.251  0.00  0.00    +0.034 A 
ATOM     14  C   UNL     1       4.897  -2.286   7.615  0.00  0.00    +0.126 A 
ATOM     15  C   UNL     1       4.019  -1.680   8.496  0.00  0.00    +0.034 A 
ATOM     16  C   UNL     1       2.953  -0.946   8.015  0.00  0.00    +0.028 A 
BRANCH  14  17
ATOM     17  N   UNL     1       6.038  -3.072   8.135  0.00  0.00    +0.056 N 
ATOM     18  O   UNL     1       6.204  -3.185   9.336  0.00  0.00    -0.126 OA
ATOM     19  O   UNL     1       6.812  -3.606   7.361  0.00  0.00    -0.126 OA
ENDBRANCH  14  17
ENDBRANCH   7  11
ENDBRANCH   2  10
ENDBRANCH   1   3
BRANCH   1  20
ATOM     20  C   UNL     1      -0.013   1.086   0.008  0.00  0.00    -0.055 C 
BRANCH  20  28
ATOM     21  C   UNL     1      -2.062   0.976  -1.276  0.00  0.00    -0.059 C 
ATOM     22  C   UNL     1      -2.835   1.640  -2.421  0.00  0.00    +0.089 C 
ATOM     23  N   UNL     1      -2.025   1.549  -3.646  0.00  0.00    -0.305 N 
ATOM     24  C   UNL     1      -0.627   2.002  -3.591  0.00  0.00    +0.089 C 
ATOM     25  C   UNL     1       0.059   1.323  -2.401  0.00  0.00    -0.059 C 
ATOM     26  C   UNL     1      -2.551   1.064  -4.788  0.00  0.00    +0.220 C 
ATOM     27  O   UNL     1      -1.869   0.996  -5.789  0.00  0.00    -0.275 OA
ATOM     28  N   UNL     1      -0.726   1.602  -1.178  0.00  0.00    +0.383 N 
ATOM     29  H   UNL     1      -0.841   2.618  -1.082  0.00  0.00    -0.082 HD
BRANCH  26  30
ATOM     30  C   UNL     1      -3.986   0.605  -4.821  0.00  0.00    +0.131 C 
BRANCH  30  31
ATOM     31  C   UNL     1      -4.324   0.111  -6.204  0.00  0.00    -0.039 A 
ATOM     32  C   UNL     1      -4.829   0.988  -7.147  0.00  0.00    +0.005 A 
ATOM     33  C   UNL     1      -5.133   0.536  -8.417  0.00  0.00    +0.020 A 
ATOM     34  C   UNL     1      -4.943  -0.795  -8.742  0.00  0.00    +0.041 A 
ATOM     35  C   UNL     1      -4.442  -1.673  -7.797  0.00  0.00    +0.020 A 
ATOM     36  C   UNL     1      -4.133  -1.219  -6.529  0.00  0.00    +0.005 A 
ATOM     37 CL   UNL     1      -5.331  -1.364 -10.336  0.00  0.00    -0.084 Cl
ENDBRANCH  30  31
ENDBRANCH  26  30
ENDBRANCH  20  28
ENDBRANCH   1  20
TORSDOF 8
