REMARK  Name = ZINC06934626
REMARK  10 active torsions:
REMARK  status: ('A' for Active; 'I' for Inactive)
REMARK    1  A    between atoms: C_1  and  C_2
REMARK    2  A    between atoms: C_2  and  C_3
REMARK    3  A    between atoms: C_4  and  C_21
REMARK    4  A    between atoms: C_5  and  C_18
REMARK    5  A    between atoms: C_6  and  C_17
REMARK    6  A    between atoms: N_7  and  C_8
REMARK    7  A    between atoms: C_8  and  C_9
REMARK    8  A    between atoms: C_9  and  C_10
REMARK    9  A    between atoms: C_13  and  O_16
REMARK   10  A    between atoms: C_25  and  O_27
REMARK                            x       y       z     vdW  Elec       q    Type
REMARK                         _______ _______ _______ _____ _____    ______ ____
ROOT
ATOM      1  C   UNL     1      -0.556   6.145  -0.943  0.00  0.00    +0.027 A 
ATOM      2  C   UNL     1      -0.076   5.330   0.031  0.00  0.00    +0.015 A 
ATOM      3  C   UNL     1       0.411   6.219   1.102  0.00  0.00    +0.065 A 
ATOM      4  C   UNL     1       0.185   7.494   0.667  0.00  0.00    +0.029 A 
ATOM      5  N   UNL     1      -0.394   7.439  -0.549  0.00  0.00    -0.346 N 
ATOM      6  C   UNL     1       0.521   8.753   1.423  0.00  0.00    +0.064 C 
ENDROOT
BRANCH   2   7
ATOM      7  C   UNL     1      -0.051   3.848   0.023  0.00  0.00    -0.012 A 
ATOM      8  C   UNL     1      -1.246   3.128   0.030  0.00  0.00    +0.009 A 
ATOM      9  C   UNL     1      -1.220   1.749   0.017  0.00  0.00    +0.004 A 
ATOM     10  C   UNL     1      -0.013   1.076   0.008  0.00  0.00    +0.045 A 
ATOM     11  C   UNL     1       1.181   1.784   0.000  0.00  0.00    +0.117 A 
ATOM     12  C   UNL     1       1.165   3.169   0.008  0.00  0.00    +0.054 A 
BRANCH  11  13
ATOM     13  O   UNL     1       2.366   1.118  -0.014  0.00  0.00    -0.507 OA
ATOM     14  H   UNL     1       2.701   0.930  -0.902  0.00  0.00    +0.292 HD
ENDBRANCH  11  13
ENDBRANCH   2   7
BRANCH   3  15
ATOM     15  C   UNL     1       1.020   5.815   2.379  0.00  0.00    +0.244 C 
ATOM     16  O   UNL     1       2.224   5.666   2.459  0.00  0.00    -0.270 OA
ATOM     17  N   UNL     1       0.242   5.609   3.461  0.00  0.00    -0.325 N 
ATOM     18  H   UNL     1      -0.718   5.728   3.397  0.00  0.00    +0.145 HD
ATOM     19  H   UNL     1       0.643   5.343   4.303  0.00  0.00    +0.145 HD
ENDBRANCH   3  15
BRANCH   1  21
ATOM     20  C   UNL     1      -0.073   5.564  -3.304  0.00  0.00    +0.010 C 
ATOM     21  C   UNL     1      -1.168   5.693  -2.243  0.00  0.00    +0.050 C 
ENDBRANCH   1  21
BRANCH   5  22
ATOM     22  C   UNL     1      -0.792   8.607  -1.337  0.00  0.00    +0.126 C 
BRANCH  22  23
ATOM     23  C   UNL     1      -2.233   8.989  -0.991  0.00  0.00    +0.056 C 
BRANCH  23  24
ATOM     24  C   UNL     1      -2.643  10.191  -1.802  0.00  0.00    -0.045 A 
ATOM     25  C   UNL     1      -2.436  11.463  -1.303  0.00  0.00    +0.007 A 
ATOM     26  C   UNL     1      -2.806  12.567  -2.047  0.00  0.00    +0.045 A 
ATOM     27  C   UNL     1      -3.396  12.398  -3.291  0.00  0.00    +0.117 A 
ATOM     28  C   UNL     1      -3.607  11.120  -3.788  0.00  0.00    +0.045 A 
ATOM     29  C   UNL     1      -3.231  10.019  -3.042  0.00  0.00    +0.007 A 
BRANCH  27  30
ATOM     30  O   UNL     1      -3.765  13.482  -4.023  0.00  0.00    -0.507 OA
ATOM     31  H   UNL     1      -4.669  13.780  -3.855  0.00  0.00    +0.292 HD
ENDBRANCH  27  30
ENDBRANCH  23  24
ENDBRANCH  22  23
ENDBRANCH   5  22
TORSDOF 8
