REMARK  Name = ZINC08249228
REMARK  7 active torsions:
REMARK  status: ('A' for Active; 'I' for Inactive)
REMARK    1  A    between atoms: C_4  and  C_18
REMARK    2  A    between atoms: C_6  and  N_7
REMARK    3  A    between atoms: C_8  and  C_10
REMARK    4  A    between atoms: C_10  and  C_11
REMARK    5  A    between atoms: C_11  and  C_12
REMARK    6  A    between atoms: C_12  and  C_13
REMARK    7  A    between atoms: C_13  and  N_14
REMARK                            x       y       z     vdW  Elec       q    Type
REMARK                         _______ _______ _______ _____ _____    ______ ____
ROOT
ATOM      1  N   UNL     1      -1.200  -0.722   0.010  0.00  0.00    -0.285 N 
ATOM      2  C   UNL     1      -2.373  -0.069   0.127  0.00  0.00    +0.217 C 
ATOM      3  O   UNL     1      -2.395   1.143   0.134  0.00  0.00    -0.275 OA
ATOM      4  H   UNL     1      -1.188  -1.688  -0.072  0.00  0.00    +0.155 HD
ENDROOT
BRANCH   1  10
ATOM      5  C   UNL     1       0.122   1.155   0.762  0.00  0.00    +0.024 A 
ATOM      6  C   UNL     1       1.310   1.861   0.758  0.00  0.00    +0.017 A 
ATOM      7  C   UNL     1       2.379   1.413   0.004  0.00  0.00    +0.030 A 
ATOM      8  C   UNL     1       2.262   0.258  -0.750  0.00  0.00    +0.070 A 
ATOM      9  C   UNL     1       1.078  -0.452  -0.749  0.00  0.00    +0.036 A 
ATOM     10  C   UNL     1       0.002  -0.004   0.008  0.00  0.00    +0.034 A 
ATOM     11 BR   UNL     1       4.003   2.382   0.000  0.00  0.00    -0.050 Br
BRANCH   8  12
ATOM     12  C   UNL     1       3.429  -0.226  -1.571  0.00  0.00    +0.418 C 
ATOM     13  F   UNL     1       3.073  -1.403  -2.239  0.00  0.00    -0.166 F 
ATOM     14  F   UNL     1       3.779   0.753  -2.506  0.00  0.00    -0.166 F 
ATOM     15  F   UNL     1       4.519  -0.479  -0.731  0.00  0.00    -0.166 F 
ENDBRANCH   8  12
ENDBRANCH   1  10
BRANCH   2  16
ATOM     16  C   UNL     1      -3.658  -0.847   0.249  0.00  0.00    +0.096 C 
BRANCH  16  17
ATOM     17  C   UNL     1      -4.833   0.126   0.367  0.00  0.00    +0.011 C 
BRANCH  17  18
ATOM     18  C   UNL     1      -6.138  -0.663   0.491  0.00  0.00    +0.019 C 
BRANCH  18  19
ATOM     19  C   UNL     1      -7.313   0.310   0.610  0.00  0.00    +0.106 C 
BRANCH  19  20
ATOM     20  N   UNL     1      -8.563  -0.446   0.728  0.00  0.00    -0.300 N 
ATOM     21  C   UNL     1      -9.736   0.206   0.845  0.00  0.00    +0.297 C 
ATOM     22  O   UNL     1      -9.758   1.422   0.852  0.00  0.00    -0.253 OA
ATOM     23  N   UNL     1     -10.886  -0.489   0.955  0.00  0.00    -0.313 N 
ATOM     24  H   UNL     1      -8.546  -1.416   0.723  0.00  0.00    +0.150 HD
ATOM     25  H   UNL     1     -10.868  -1.459   0.949  0.00  0.00    +0.146 HD
ATOM     26  H   UNL     1     -11.730  -0.019   1.039  0.00  0.00    +0.146 HD
ENDBRANCH  19  20
ENDBRANCH  18  19
ENDBRANCH  17  18
ENDBRANCH  16  17
ENDBRANCH   2  16
TORSDOF 7
