REMARK  Name = ZINC08656140
REMARK  5 active torsions:
REMARK  status: ('A' for Active; 'I' for Inactive)
REMARK    1  A    between atoms: C_1  and  C_2
REMARK    2  A    between atoms: C_5  and  S_8
REMARK    3  A    between atoms: S_8  and  O_11
REMARK    4  A    between atoms: O_11  and  N_12
REMARK    5  A    between atoms: C_18  and  C_19
REMARK                            x       y       z     vdW  Elec       q    Type
REMARK                         _______ _______ _______ _____ _____    ______ ____
ROOT
ATOM      1  N   UNL     1      -4.062   1.730   2.188  0.00  0.00    -0.057 NA
ATOM      2  C   UNL     1      -4.038   1.692   3.485  0.00  0.00    +0.086 C 
ATOM      3  C   UNL     1      -4.455   2.804   4.427  0.00  0.00    +0.059 C 
ATOM      4  C   UNL     1      -3.585   2.599   5.681  0.00  0.00    +0.011 C 
ATOM      5  C   UNL     1      -3.287   1.089   5.701  0.00  0.00    +0.037 C 
ATOM      6  C   UNL     1      -3.595   0.567   4.316  0.00  0.00    -0.022 C 
ATOM      7  C   UNL     1      -3.482  -0.713   3.913  0.00  0.00    +0.013 C 
ENDROOT
BRANCH   7   8
ATOM      8  C   UNL     1      -4.243  -1.188   2.745  0.00  0.00    -0.025 A 
ATOM      9  C   UNL     1      -5.428  -0.546   2.371  0.00  0.00    +0.008 A 
ATOM     10  C   UNL     1      -6.133  -0.994   1.274  0.00  0.00    +0.001 A 
ATOM     11  C   UNL     1      -5.676  -2.080   0.549  0.00  0.00    +0.000 A 
ATOM     12  C   UNL     1      -4.507  -2.724   0.916  0.00  0.00    +0.001 A 
ATOM     13  C   UNL     1      -3.788  -2.285   2.008  0.00  0.00    +0.008 A 
ENDBRANCH   7   8
BRANCH   1  14
ATOM     14  O   UNL     1      -3.458   0.692   1.438  0.00  0.00    -0.225 OA
BRANCH  14  15
ATOM     15  S   UNL     1      -3.460   0.933  -0.065  0.00  0.00    +0.170 S 
ATOM     16  O   UNL     1      -4.726   1.492  -0.385  0.00  0.00    -0.130 OA
ATOM     17  O   UNL     1      -2.980  -0.261  -0.668  0.00  0.00    -0.130 OA
BRANCH  15  22
ATOM     18  C   UNL     1       0.645   5.205  -1.205  0.00  0.00    +0.044 C 
ATOM     19  C   UNL     1      -0.379   4.138  -0.918  0.00  0.00    -0.050 A 
ATOM     20  C   UNL     1      -0.011   2.806  -0.925  0.00  0.00    +0.005 A 
ATOM     21  C   UNL     1      -0.951   1.827  -0.660  0.00  0.00    +0.031 A 
ATOM     22  C   UNL     1      -2.260   2.181  -0.395  0.00  0.00    +0.130 A 
ATOM     23  C   UNL     1      -2.628   3.513  -0.384  0.00  0.00    +0.031 A 
ATOM     24  C   UNL     1      -1.688   4.492  -0.647  0.00  0.00    +0.005 A 
ENDBRANCH  15  22
ENDBRANCH  14  15
ENDBRANCH   1  14
TORSDOF 4
