REMARK  Name = ZINC40362268
REMARK  8 active torsions:
REMARK  status: ('A' for Active; 'I' for Inactive)
REMARK    1  A    between atoms: C_1  and  C_2
REMARK    2  A    between atoms: C_2  and  C_3
REMARK    3  A    between atoms: C_2  and  C_4
REMARK    4  A    between atoms: C_2  and  N_5
REMARK    5  A    between atoms: N_8  and  C_9
REMARK    6  A    between atoms: C_9  and  C_11
REMARK    7  A    between atoms: C_9  and  C_17
REMARK    8  A    between atoms: C_17  and  N_19
REMARK                            x       y       z     vdW  Elec       q    Type
REMARK                         _______ _______ _______ _____ _____    ______ ____
ROOT
ATOM      1  C   UNL     1       4.007  -0.183  -2.785  0.00  0.00    +0.129 C 
ENDROOT
BRANCH   1   5
ATOM      2  N   UNL     1       1.097  -0.203  -0.538  0.00  0.00    -0.295 N 
ATOM      3  C   UNL     1       2.321   0.050  -1.041  0.00  0.00    +0.301 C 
ATOM      4  O   UNL     1       3.106   0.735  -0.415  0.00  0.00    -0.253 OA
ATOM      5  N   UNL     1       2.676  -0.458  -2.239  0.00  0.00    -0.291 N 
ATOM      6  H   UNL     1       0.471  -0.750  -1.038  0.00  0.00    +0.151 HD
ATOM      7  H   UNL     1       2.050  -1.005  -2.738  0.00  0.00    +0.151 HD
BRANCH   2   9
ATOM      8  C   UNL     1       0.782   1.876   0.711  0.00  0.00    +0.031 C 
ATOM      9  C   UNL     1       0.712   0.348   0.763  0.00  0.00    +0.028 C 
ATOM     10  C   UNL     1       1.667  -0.170   1.839  0.00  0.00    +0.031 C 
ATOM     11  C   UNL     1      -0.717  -0.086   1.098  0.00  0.00    +0.031 C 
ENDBRANCH   2   9
ENDBRANCH   1   5
BRANCH   1  12
ATOM     12  C   UNL     1       4.398  -1.296  -3.760  0.00  0.00    +0.016 C 
ATOM     13  C   UNL     1       4.470  -2.628  -3.010  0.00  0.00    +0.006 C 
ATOM     14  C   UNL     1       4.861  -3.741  -3.984  0.00  0.00    +0.000 C 
ATOM     15  C   UNL     1       3.814  -3.837  -5.095  0.00  0.00    +0.000 C 
ATOM     16  C   UNL     1       3.742  -2.505  -5.845  0.00  0.00    +0.000 C 
ATOM     17  C   UNL     1       3.351  -1.392  -4.871  0.00  0.00    +0.006 C 
ENDBRANCH   1  12
BRANCH   1  18
ATOM     18  C   UNL     1       3.989   1.137  -3.512  0.00  0.00    +0.067 C 
ATOM     19  S   UNL     1       2.605   1.904  -3.743  0.00  0.00    -0.039 S 
BRANCH  18  20
ATOM     20  N   UNL     1       5.140   1.671  -3.967  0.00  0.00    -0.354 N 
ATOM     21  H   UNL     1       5.969   1.174  -3.892  0.00  0.00    +0.143 HD
ATOM     22  H   UNL     1       5.139   2.554  -4.370  0.00  0.00    +0.143 HD
ENDBRANCH  18  20
ENDBRANCH   1  18
TORSDOF 5
