REMARK  Name = ZINC39022207
REMARK  12 active torsions:
REMARK  status: ('A' for Active; 'I' for Inactive)
REMARK    1  A    between atoms: C_1  and  C_2
REMARK    2  A    between atoms: C_2  and  O_3
REMARK    3  A    between atoms: O_3  and  C_4
REMARK    4  A    between atoms: C_4  and  C_6
REMARK    5  A    between atoms: C_8  and  N_18
REMARK    6  A    between atoms: C_11  and  O_16
REMARK    7  A    between atoms: O_16  and  C_17
REMARK    8  A    between atoms: C_19  and  C_21
REMARK    9  A    between atoms: C_21  and  N_22
REMARK   10  A    between atoms: N_25  and  C_28
REMARK   11  A    between atoms: C_28  and  C_29
REMARK   12  A    between atoms: C_32  and  N_35
REMARK                            x       y       z     vdW  Elec       q    Type
REMARK                         _______ _______ _______ _____ _____    ______ ____
ROOT
ATOM      1  N   UNL     1      -3.294  -0.989   2.303  0.00  0.00    -0.285 N 
ATOM      2  C   UNL     1      -3.769  -1.234   3.540  0.00  0.00    +0.231 C 
ATOM      3  O   UNL     1      -3.628  -2.331   4.037  0.00  0.00    -0.274 OA
ATOM      4  H   UNL     1      -3.341  -0.093   1.934  0.00  0.00    +0.155 HD
ENDROOT
BRANCH   1   6
ATOM      5  C   UNL     1      -2.727  -3.473   1.917  0.00  0.00    +0.234 C 
ATOM      6  C   UNL     1      -2.747  -2.001   1.570  0.00  0.00    +0.053 C 
ATOM      7  C   UNL     1      -2.096  -1.893   0.354  0.00  0.00    +0.021 A 
ATOM      8  C   UNL     1      -1.801  -0.783  -0.476  0.00  0.00    +0.057 A 
ATOM      9  C   UNL     1      -1.135  -0.976  -1.645  0.00  0.00    +0.121 A 
ATOM     10  C   UNL     1      -0.728  -2.253  -2.055  0.00  0.00    +0.047 A 
ATOM     11  C   UNL     1      -0.978  -3.356  -1.310  0.00  0.00    +0.029 A 
ATOM     12  C   UNL     1      -1.669  -3.235  -0.076  0.00  0.00    +0.045 A 
ATOM     13  N   UNL     1      -2.027  -4.140   0.815  0.00  0.00    -0.367 N 
ATOM     14  H   UNL     1      -1.855  -5.093   0.752  0.00  0.00    +0.161 HD
BRANCH   5  15
ATOM     15  C   UNL     1      -4.134  -3.998   2.032  0.00  0.00    +0.336 C 
ATOM     16  O   UNL     1      -4.788  -4.197   1.036  0.00  0.00    -0.248 OA
BRANCH  15  17
ATOM     17  O   UNL     1      -4.662  -4.245   3.242  0.00  0.00    -0.463 OA
BRANCH  17  19
ATOM     18  C   UNL     1      -6.409  -5.012   4.725  0.00  0.00    +0.048 C 
ATOM     19  C   UNL     1      -5.946  -4.872   3.274  0.00  0.00    +0.229 C 
ENDBRANCH  17  19
ENDBRANCH  15  17
ENDBRANCH   5  15
BRANCH   9  20
ATOM     20  O   UNL     1      -0.856   0.096  -2.435  0.00  0.00    -0.495 OA
ATOM     21  C   UNL     1      -0.154  -0.161  -3.653  0.00  0.00    +0.277 C 
ENDBRANCH   9  20
ENDBRANCH   1   6
BRANCH   2  22
ATOM     22  C   UNL     1      -4.475  -0.145   4.306  0.00  0.00    +0.180 C 
BRANCH  22  23
ATOM     23  N   UNL     1      -4.748  -0.606   5.674  0.00  0.00    -0.298 NA
ATOM     24  C   UNL     1      -5.888  -1.534   5.699  0.00  0.00    +0.066 C 
ATOM     25  C   UNL     1      -6.102  -2.036   7.128  0.00  0.00    -0.063 C 
ATOM     26  N   UNL     1      -6.359  -0.894   8.015  0.00  0.00    +0.384 N 
ATOM     27  C   UNL     1      -5.202   0.011   7.998  0.00  0.00    -0.063 C 
ATOM     28  C   UNL     1      -4.981   0.530   6.576  0.00  0.00    +0.066 C 
ATOM     29  H   UNL     1      -7.178  -0.399   7.696  0.00  0.00    -0.081 HD
BRANCH  26  30
ATOM     30  C   UNL     1      -6.582  -1.378   9.384  0.00  0.00    -0.043 C 
BRANCH  30  31
ATOM     31  C   UNL     1      -6.967  -0.221  10.269  0.00  0.00    -0.064 A 
ATOM     32  C   UNL     1      -5.988   0.502  10.926  0.00  0.00    +0.004 A 
ATOM     33  C   UNL     1      -6.341   1.564  11.738  0.00  0.00    +0.033 A 
ATOM     34  C   UNL     1      -7.672   1.903  11.893  0.00  0.00    +0.126 A 
ATOM     35  C   UNL     1      -8.650   1.181  11.236  0.00  0.00    +0.033 A 
ATOM     36  C   UNL     1      -8.297   0.122  10.421  0.00  0.00    +0.004 A 
BRANCH  34  37
ATOM     37  N   UNL     1      -8.049   3.039  12.764  0.00  0.00    +0.056 N 
ATOM     38  O   UNL     1      -7.194   3.670  13.339  0.00  0.00    -0.126 OA
ATOM     39  O   UNL     1      -9.213   3.335  12.900  0.00  0.00    -0.126 OA
ENDBRANCH  34  37
ENDBRANCH  30  31
ENDBRANCH  26  30
ENDBRANCH  22  23
ENDBRANCH   2  22
TORSDOF 10
