REMARK  Name = ZINC32604000
REMARK  4 active torsions:
REMARK  status: ('A' for Active; 'I' for Inactive)
REMARK    1  A    between atoms: C_4  and  N_7
REMARK    2  A    between atoms: C_16  and  N_20
REMARK    3  A    between atoms: N_20  and  N_21
REMARK    4  A    between atoms: N_21  and  N_22
REMARK                            x       y       z     vdW  Elec       q    Type
REMARK                         _______ _______ _______ _____ _____    ______ ____
ROOT
ATOM      1  N   UNL     1      -0.018   1.461   0.010  0.00  0.00    -0.258 N 
ATOM      2  C   UNL     1       1.141   2.149   0.003  0.00  0.00    +0.260 A 
ATOM      3  O   UNL     1       2.205   1.557  -0.011  0.00  0.00    -0.267 OA
ATOM      4  C   UNL     1       1.112   3.566   0.010  0.00  0.00    +0.034 A 
ATOM      5  C   UNL     1      -0.079   4.198   0.025  0.00  0.00    +0.004 A 
ATOM      6  N   UNL     1      -1.235   3.460   0.032  0.00  0.00    -0.313 N 
ATOM      7  H   UNL     1      -2.211   3.966   0.048  0.00  0.00    +0.170 HD
ATOM      8  C   UNL     1      -1.193   2.116   0.019  0.00  0.00    +0.330 A 
ATOM      9  O   UNL     1      -2.232   1.484   0.021  0.00  0.00    -0.246 OA
ATOM     10  C   UNL     1       0.124   5.698   0.031  0.00  0.00    -0.130 C 
ATOM     11  C   UNL     1       1.587   5.906  -0.417  0.00  0.00    -0.016 C 
ATOM     12  C   UNL     1       2.242   4.572   0.004  0.00  0.00    +0.040 C 
ENDROOT
BRANCH   1  16
ATOM     13  C   UNL     1      -1.406  -2.573   0.002  0.00  0.00    +0.000 C 
ATOM     14  C   UNL     1      -0.679  -2.060   1.247  0.00  0.00    +0.002 C 
ATOM     15  C   UNL     1      -0.700  -0.530   1.255  0.00  0.00    +0.025 C 
ATOM     16  C   UNL     1       0.002  -0.004   0.002  0.00  0.00    +0.095 C 
ATOM     17  C   UNL     1      -0.724  -0.517  -1.243  0.00  0.00    +0.025 C 
ATOM     18  C   UNL     1      -0.703  -2.047  -1.252  0.00  0.00    +0.002 C 
ENDBRANCH   1  16
BRANCH  10  19
ATOM     19  N   UNL     1      -0.079   6.234   1.379  0.00  0.00    +0.274 NA
BRANCH  19  20
ATOM     20  N   UNL     1      -1.350   6.191   1.966  0.00  0.00    +0.299 N 
ATOM     21  H   UNL     1      -2.060   6.757   1.346  0.00  0.00    -0.184 HD
ATOM     22  H   UNL     1      -1.683   5.145   2.043  0.00  0.00    -0.184 HD
BRANCH  20  23
ATOM     23  N   UNL     1      -1.544   6.703   3.256  0.00  0.00    +0.256 NA
ATOM     24  H   UNL     1      -2.542   6.669   3.717  0.00  0.00    -0.219 HD
ENDBRANCH  20  23
ENDBRANCH  19  20
ENDBRANCH  10  19
TORSDOF 4
