REMARK  Name = ZINC42406194
REMARK  4 active torsions:
REMARK  status: ('A' for Active; 'I' for Inactive)
REMARK    1  A    between atoms: C_3  and  N_21
REMARK    2  A    between atoms: C_4  and  C_17
REMARK    3  A    between atoms: C_6  and  N_7
REMARK    4  A    between atoms: C_12  and  C_14
REMARK                            x       y       z     vdW  Elec       q    Type
REMARK                         _______ _______ _______ _____ _____    ______ ____
ROOT
ATOM      1  C   UNL     1       0.476  -0.218   1.987  0.00  0.00    +0.025 A 
ATOM      2  C   UNL     1       1.657   0.433   2.288  0.00  0.00    +0.025 A 
ATOM      3  C   UNL     1       2.304   1.181   1.314  0.00  0.00    +0.036 A 
ATOM      4  C   UNL     1       1.764   1.276   0.037  0.00  0.00    +0.077 A 
ATOM      5  C   UNL     1       0.584   0.626  -0.263  0.00  0.00    +0.037 A 
ATOM      6  C   UNL     1      -0.064  -0.123   0.712  0.00  0.00    +0.031 A 
ENDROOT
BRANCH   6   7
ATOM      7  N   UNL     1      -1.260  -0.784   0.407  0.00  0.00    -0.318 N 
ATOM      8  C   UNL     1      -1.314  -2.251   0.358  0.00  0.00    +0.106 C 
ATOM      9  C   UNL     1      -2.441  -2.734   1.276  0.00  0.00    +0.019 C 
ATOM     10  C   UNL     1      -3.748  -2.044   0.879  0.00  0.00    +0.004 C 
ATOM     11  C   UNL     1      -3.600  -0.530   1.051  0.00  0.00    +0.032 C 
ATOM     12  C   UNL     1      -2.487  -0.022   0.137  0.00  0.00    +0.159 C 
BRANCH  12  13
ATOM     13  C   UNL     1      -2.244   1.441   0.406  0.00  0.00    +0.231 C 
ATOM     14  O   UNL     1      -1.552   1.778   1.343  0.00  0.00    -0.274 OA
ATOM     15  N   UNL     1      -2.794   2.374  -0.396  0.00  0.00    -0.328 N 
ATOM     16  H   UNL     1      -3.348   2.104  -1.146  0.00  0.00    +0.145 HD
ATOM     17  H   UNL     1      -2.638   3.315  -0.223  0.00  0.00    +0.145 HD
ENDBRANCH  12  13
ENDBRANCH   6   7
BRANCH   4  18
ATOM     18  C   UNL     1       2.467   2.088  -1.020  0.00  0.00    +0.419 C 
ATOM     19  F   UNL     1       1.737   2.032  -2.212  0.00  0.00    -0.166 F 
ATOM     20  F   UNL     1       2.567   3.418  -0.596  0.00  0.00    -0.166 F 
ATOM     21  F   UNL     1       3.748   1.569  -1.232  0.00  0.00    -0.166 F 
ENDBRANCH   4  18
BRANCH   3  22
ATOM     22  N   UNL     1       3.501   1.842   1.618  0.00  0.00    -0.358 N 
ATOM     23  H   UNL     1       3.877   1.776   2.509  0.00  0.00    +0.142 HD
ATOM     24  H   UNL     1       3.953   2.365   0.938  0.00  0.00    +0.142 HD
ENDBRANCH   3  22
TORSDOF 4
