REMARK  Name = ZINC67357062
REMARK  6 active torsions:
REMARK  status: ('A' for Active; 'I' for Inactive)
REMARK    1  A    between atoms: C_6  and  C_7
REMARK    2  A    between atoms: C_9  and  N_15
REMARK    3  A    between atoms: N_10  and  C_12
REMARK    4  A    between atoms: C_12  and  C_13
REMARK    5  A    between atoms: C_13  and  O_14
REMARK    6  A    between atoms: N_18  and  C_19
REMARK                            x       y       z     vdW  Elec       q    Type
REMARK                         _______ _______ _______ _____ _____    ______ ____
ROOT
ATOM      1  C   UNL     1      -1.272  -0.766   0.011  0.00  0.00    +0.095 A 
ATOM      2  C   UNL     1      -1.395  -2.168   0.010  0.00  0.00    +0.073 A 
ATOM      3  C   UNL     1      -2.721  -2.468   0.020  0.00  0.00    +0.125 A 
ATOM      4  N   UNL     1      -3.409  -1.297   0.027  0.00  0.00    -0.248 N 
ATOM      5  N   UNL     1      -2.481  -0.248   0.026  0.00  0.00    -0.169 NA
ENDROOT
BRANCH   1  11
ATOM      6  C   UNL     1      -0.017   1.389   0.010  0.00  0.00    +0.011 A 
ATOM      7  C   UNL     1       1.170   2.093   0.002  0.00  0.00    +0.020 A 
ATOM      8  C   UNL     1       2.378   1.417  -0.013  0.00  0.00    +0.041 A 
ATOM      9  C   UNL     1       2.402   0.033  -0.021  0.00  0.00    +0.020 A 
ATOM     10  C   UNL     1       1.220  -0.680  -0.013  0.00  0.00    +0.011 A 
ATOM     11  C   UNL     1       0.002  -0.004   0.002  0.00  0.00    +0.002 A 
ATOM     12 CL   UNL     1       3.868   2.308  -0.024  0.00  0.00    -0.084 Cl
ENDBRANCH   1  11
BRANCH   3  13
ATOM     13  N   UNL     1      -3.275  -3.748   0.022  0.00  0.00    -0.254 N 
ATOM     14  C   UNL     1      -2.471  -4.830   0.015  0.00  0.00    +0.305 C 
ATOM     15  O   UNL     1      -1.263  -4.690   0.006  0.00  0.00    -0.252 OA
ATOM     16  N   UNL     1      -3.006  -6.067   0.017  0.00  0.00    -0.295 N 
ATOM     17  H   UNL     1      -4.238  -3.860   0.029  0.00  0.00    +0.158 HD
ATOM     18  H   UNL     1      -3.969  -6.179   0.024  0.00  0.00    +0.151 HD
BRANCH  16  19
ATOM     19  C   UNL     1      -2.132  -7.243   0.009  0.00  0.00    +0.097 C 
ATOM     20  C   UNL     1      -1.760  -7.603  -1.438  0.00  0.00    +0.046 C 
ATOM     21  C   UNL     1      -1.114  -9.009  -1.483  0.00  0.00    +0.168 C 
ATOM     22  S   UNL     1      -1.876  -9.850  -0.036  0.00  0.00    -0.029 S 
ATOM     23  O   UNL     1      -0.857 -10.177   0.899  0.00  0.00    -0.174 OA
ATOM     24  O   UNL     1      -2.751 -10.869  -0.501  0.00  0.00    -0.174 OA
ATOM     25  C   UNL     1      -2.879  -8.457   0.633  0.00  0.00    +0.188 C 
ENDBRANCH  16  19
ENDBRANCH   3  13
BRANCH   4  26
ATOM     26  C   UNL     1      -4.867  -1.156   0.037  0.00  0.00    +0.173 C 
BRANCH  26  27
ATOM     27  C   UNL     1      -5.365  -1.109   1.484  0.00  0.00    +0.179 C 
BRANCH  27  28
ATOM     28  O   UNL     1      -6.787  -0.971   1.494  0.00  0.00    -0.393 OA
ATOM     29  H   UNL     1      -7.172  -0.935   2.380  0.00  0.00    +0.209 HD
ENDBRANCH  27  28
ENDBRANCH  26  27
ENDBRANCH   4  26
TORSDOF 6
