REMARK  Name = ZINC45416817
REMARK  8 active torsions:
REMARK  status: ('A' for Active; 'I' for Inactive)
REMARK    1  A    between atoms: C_1  and  S_2
REMARK    2  A    between atoms: S_2  and  C_3
REMARK    3  A    between atoms: C_3  and  C_4
REMARK    4  A    between atoms: C_4  and  C_5
REMARK    5  A    between atoms: C_5  and  C_7
REMARK    6  A    between atoms: C_5  and  N_21
REMARK    7  A    between atoms: N_9  and  C_10
REMARK    8  A    between atoms: C_10  and  C_11
REMARK                            x       y       z     vdW  Elec       q    Type
REMARK                         _______ _______ _______ _____ _____    ______ ____
ROOT
ATOM      1  C   UNL     1       1.684  -3.791  -3.158  0.00  0.00    +0.234 C 
ATOM      2  O   UNL     1       2.659  -4.452  -2.867  0.00  0.00    -0.274 OA
ATOM      3  N   UNL     1       0.587  -4.394  -3.657  0.00  0.00    -0.310 N 
ATOM      4  H   UNL     1      -0.193  -3.866  -3.890  0.00  0.00    +0.149 HD
ENDROOT
BRANCH   1   5
ATOM      5  C   UNL     1       1.701  -2.297  -2.963  0.00  0.00    +0.161 C 
BRANCH   5   6
ATOM      6  N   UNL     1       3.087  -1.830  -2.881  0.00  0.00    -0.288 N 
ATOM      7  C   UNL     1       3.897  -2.295  -1.909  0.00  0.00    +0.298 C 
ATOM      8  O   UNL     1       3.478  -3.101  -1.101  0.00  0.00    -0.253 OA
ATOM      9  N   UNL     1       5.173  -1.865  -1.833  0.00  0.00    -0.313 N 
ATOM     10  H   UNL     1       3.421  -1.187  -3.525  0.00  0.00    +0.151 HD
ATOM     11  H   UNL     1       5.507  -1.222  -2.478  0.00  0.00    +0.146 HD
ATOM     12  H   UNL     1       5.756  -2.199  -1.134  0.00  0.00    +0.146 HD
ENDBRANCH   5   6
BRANCH   5  13
ATOM     13  C   UNL     1       0.966  -1.944  -1.668  0.00  0.00    +0.042 C 
BRANCH  13  14
ATOM     14  C   UNL     1       0.873  -0.423  -1.533  0.00  0.00    +0.071 C 
BRANCH  14  16
ATOM     15  C   UNL     1      -0.022   1.810   0.012  0.00  0.00    +0.084 C 
ATOM     16  S   UNL     1       0.002  -0.004   0.002  0.00  0.00    -0.164 S 
ENDBRANCH  14  16
ENDBRANCH  13  14
ENDBRANCH   5  13
ENDBRANCH   1   5
BRANCH   3  17
ATOM     17  C   UNL     1       0.571  -5.846  -3.847  0.00  0.00    +0.139 C 
BRANCH  17  18
ATOM     18  C   UNL     1      -0.762  -6.264  -4.412  0.00  0.00    -0.030 A 
ATOM     19  C   UNL     1      -1.803  -6.592  -3.546  0.00  0.00    +0.006 A 
ATOM     20  C   UNL     1      -3.019  -6.974  -4.023  0.00  0.00    +0.009 A 
ATOM     21  C   UNL     1      -3.231  -7.040  -5.411  0.00  0.00    -0.018 A 
ATOM     22  C   UNL     1      -4.473  -7.429  -5.942  0.00  0.00    +0.008 A 
ATOM     23  C   UNL     1      -4.642  -7.481  -7.291  0.00  0.00    +0.001 A 
ATOM     24  C   UNL     1      -3.600  -7.153  -8.158  0.00  0.00    +0.001 A 
ATOM     25  C   UNL     1      -2.385  -6.772  -7.680  0.00  0.00    +0.008 A 
ATOM     26  C   UNL     1      -2.172  -6.706  -6.292  0.00  0.00    -0.018 A 
ATOM     27  C   UNL     1      -0.932  -6.311  -5.762  0.00  0.00    +0.013 A 
ENDBRANCH  17  18
ENDBRANCH   3  17
TORSDOF 7
