REMARK  Name = ZINC17051533
REMARK  12 active torsions:
REMARK  status: ('A' for Active; 'I' for Inactive)
REMARK    1  A    between atoms: C_1  and  C_2
REMARK    2  A    between atoms: C_5  and  C_8
REMARK    3  A    between atoms: C_11  and  S_17
REMARK    4  A    between atoms: S_17  and  C_18
REMARK    5  A    between atoms: C_18  and  C_19
REMARK    6  A    between atoms: N_21  and  C_22
REMARK    7  A    between atoms: C_24  and  O_32
REMARK    8  A    between atoms: C_25  and  O_30
REMARK    9  A    between atoms: C_26  and  O_28
REMARK   10  A    between atoms: O_28  and  C_29
REMARK   11  A    between atoms: O_30  and  C_31
REMARK   12  A    between atoms: O_32  and  C_33
REMARK                            x       y       z     vdW  Elec       q    Type
REMARK                         _______ _______ _______ _____ _____    ______ ____
ROOT
ATOM      1  S   UNL     1       0.050   9.950  -0.954  0.00  0.00    -0.094 S 
ENDROOT
BRANCH   1   5
ATOM      2  C   UNL     1       0.286  14.406  -2.279  0.00  0.00    +0.094 A 
ATOM      3  C   UNL     1       0.082  13.178  -1.647  0.00  0.00    +0.060 A 
ATOM      4  C   UNL     1       0.609  12.195  -2.463  0.00  0.00    +0.099 A 
ATOM      5  C   UNL     1       0.701  10.785  -2.363  0.00  0.00    +0.123 A 
ATOM      6  N   UNL     1       1.283  10.102  -3.331  0.00  0.00    -0.245 NA
ATOM      7  C   UNL     1       1.779  10.718  -4.410  0.00  0.00    +0.132 A 
ATOM      8  C   UNL     1       1.714  12.056  -4.548  0.00  0.00    +0.132 A 
ATOM      9  N   UNL     1       1.125  12.819  -3.572  0.00  0.00    -0.235 N 
ATOM     10  N   UNL     1       0.909  14.192  -3.428  0.00  0.00    -0.166 NA
BRANCH   2  15
ATOM     11  C   UNL     1      -1.311  19.547  -0.231  0.00  0.00    +0.044 C 
ATOM     12  C   UNL     1      -0.893  18.202  -0.767  0.00  0.00    -0.050 A 
ATOM     13  C   UNL     1      -0.246  18.116  -1.987  0.00  0.00    +0.004 A 
ATOM     14  C   UNL     1       0.139  16.887  -2.482  0.00  0.00    +0.010 A 
ATOM     15  C   UNL     1      -0.125  15.731  -1.751  0.00  0.00    +0.002 A 
ATOM     16  C   UNL     1      -0.781  15.822  -0.526  0.00  0.00    +0.010 A 
ATOM     17  C   UNL     1      -1.157  17.057  -0.037  0.00  0.00    +0.004 A 
ENDBRANCH   2  15
ENDBRANCH   1   5
BRANCH   1  18
ATOM     18  C   UNL     1       0.452   8.240  -1.389  0.00  0.00    +0.172 C 
BRANCH  18  19
ATOM     19  C   UNL     1      -0.025   7.319  -0.296  0.00  0.00    +0.227 C 
ATOM     20  O   UNL     1      -0.581   7.774   0.681  0.00  0.00    -0.275 OA
ATOM     21  N   UNL     1       0.168   5.989  -0.404  0.00  0.00    -0.285 N 
ATOM     22  H   UNL     1       0.679   5.632  -1.146  0.00  0.00    +0.155 HD
BRANCH  21  23
ATOM     23  C   UNL     1      -0.372   5.123   0.556  0.00  0.00    +0.041 A 
ATOM     24  C   UNL     1       0.304   3.960   0.899  0.00  0.00    +0.073 A 
ATOM     25  C   UNL     1      -0.229   3.103   1.849  0.00  0.00    +0.167 A 
ATOM     26  C   UNL     1      -1.437   3.411   2.463  0.00  0.00    +0.204 A 
ATOM     27  C   UNL     1      -2.115   4.573   2.115  0.00  0.00    +0.167 A 
ATOM     28  C   UNL     1      -1.581   5.429   1.165  0.00  0.00    +0.073 A 
BRANCH  27  29
ATOM     29  O   UNL     1      -3.300   4.873   2.712  0.00  0.00    -0.491 OA
ATOM     30  C   UNL     1      -3.939   6.087   2.310  0.00  0.00    +0.277 C 
ENDBRANCH  27  29
BRANCH  26  31
ATOM     31  O   UNL     1      -1.958   2.573   3.401  0.00  0.00    -0.488 OA
ATOM     32  C   UNL     1      -2.827   1.538   2.935  0.00  0.00    +0.277 C 
ENDBRANCH  26  31
BRANCH  25  33
ATOM     33  O   UNL     1       0.433   1.963   2.184  0.00  0.00    -0.491 OA
ATOM     34  C   UNL     1       1.672   1.713   1.518  0.00  0.00    +0.277 C 
ENDBRANCH  25  33
ENDBRANCH  21  23
ENDBRANCH  18  19
ENDBRANCH   1  18
TORSDOF 8
