REMARK  Name = ZINC36052033
REMARK  14 active torsions:
REMARK  status: ('A' for Active; 'I' for Inactive)
REMARK    1  A    between atoms: C_1  and  C_2
REMARK    2  A    between atoms: C_6  and  N_8
REMARK    3  A    between atoms: C_10  and  C_29
REMARK    4  A    between atoms: C_14  and  C_16
REMARK    5  A    between atoms: C_16  and  N_17
REMARK    6  A    between atoms: N_17  and  C_18
REMARK    7  A    between atoms: C_18  and  C_19
REMARK    8  A    between atoms: C_19  and  N_20
REMARK    9  A    between atoms: N_20  and  C_21
REMARK   10  A    between atoms: N_20  and  C_22
REMARK   11  A    between atoms: C_23  and  C_25
REMARK   12  A    between atoms: C_25  and  C_26
REMARK   13  A    between atoms: C_26  and  C_27
REMARK   14  A    between atoms: C_26  and  C_28
REMARK                            x       y       z     vdW  Elec       q    Type
REMARK                         _______ _______ _______ _____ _____    ______ ____
ROOT
ATOM      1  N   UNL     1       0.051  -2.798   2.395  0.00  0.00    -0.287 N 
ATOM      2  C   UNL     1       0.896  -2.583   3.456  0.00  0.00    +0.122 A 
ATOM      3  C   UNL     1       0.565  -3.488   4.412  0.00  0.00    +0.091 A 
ATOM      4  N   UNL     1      -0.457  -4.236   3.943  0.00  0.00    -0.214 NA
ATOM      5  C   UNL     1      -0.775  -3.827   2.740  0.00  0.00    +0.207 A 
ATOM      6  N   UNL     1      -1.784  -4.356   1.946  0.00  0.00    -0.254 N 
ATOM      7  C   UNL     1      -2.535  -5.377   2.402  0.00  0.00    +0.237 C 
ATOM      8  O   UNL     1      -2.330  -5.835   3.506  0.00  0.00    -0.274 OA
ATOM      9  H   UNL     1      -1.948  -3.990   1.063  0.00  0.00    +0.158 HD
ENDROOT
BRANCH   1  15
ATOM     10  C   UNL     1      -0.018   1.503   0.010  0.00  0.00    +0.044 C 
ATOM     11  C   UNL     1       0.002  -0.004   0.002  0.00  0.00    -0.048 A 
ATOM     12  C   UNL     1       0.006  -0.688  -1.200  0.00  0.00    +0.003 A 
ATOM     13  C   UNL     1       0.024  -2.071  -1.212  0.00  0.00    +0.002 A 
ATOM     14  C   UNL     1       0.039  -2.773  -0.022  0.00  0.00    +0.026 A 
ATOM     15  C   UNL     1       0.036  -2.089   1.186  0.00  0.00    +0.049 A 
ATOM     16  C   UNL     1       0.023  -0.700   1.194  0.00  0.00    +0.029 A 
ENDBRANCH   1  15
BRANCH   3  17
ATOM     17  C   UNL     1       1.213  -3.632   5.738  0.00  0.00    +0.002 A 
ATOM     18  C   UNL     1       2.261  -2.786   6.100  0.00  0.00    +0.011 A 
ATOM     19  C   UNL     1       2.860  -2.924   7.335  0.00  0.00    +0.020 A 
ATOM     20  C   UNL     1       2.423  -3.900   8.215  0.00  0.00    +0.041 A 
ATOM     21  C   UNL     1       1.383  -4.742   7.860  0.00  0.00    +0.020 A 
ATOM     22  C   UNL     1       0.773  -4.608   6.630  0.00  0.00    +0.011 A 
ATOM     23 CL   UNL     1       3.182  -4.068   9.767  0.00  0.00    -0.084 Cl
ENDBRANCH   3  17
BRANCH   7  24
ATOM     24  C   UNL     1      -3.631  -5.951   1.541  0.00  0.00    +0.203 C 
BRANCH  24  25
ATOM     25  N   UNL     1      -4.295  -7.042   2.258  0.00  0.00    -0.294 N 
ATOM     26  C   UNL     1      -3.843  -8.305   2.131  0.00  0.00    +0.216 C 
ATOM     27  O   UNL     1      -4.393  -9.209   2.724  0.00  0.00    -0.276 OA
BRANCH  25  28
ATOM     28  C   UNL     1      -5.451  -6.760   3.112  0.00  0.00    +0.090 C 
BRANCH  28  29
ATOM     29  C   UNL     1      -6.734  -6.865   2.285  0.00  0.00    -0.060 C 
BRANCH  29  30
ATOM     30  N   UNL     1      -7.893  -6.582   3.143  0.00  0.00    +0.377 N 
ATOM     31  C   UNL     1      -9.114  -6.564   2.325  0.00  0.00    -0.097 C 
ATOM     32  C   UNL     1      -8.008  -7.625   4.171  0.00  0.00    -0.097 C 
ATOM     33  H   UNL     1      -7.772  -5.684   3.586  0.00  0.00    -0.083 HD
ENDBRANCH  29  30
ENDBRANCH  28  29
ENDBRANCH  25  28
BRANCH  26  34
ATOM     34  C   UNL     1      -2.654  -8.595   1.252  0.00  0.00    +0.099 C 
BRANCH  34  35
ATOM     35  C   UNL     1      -2.349 -10.095   1.284  0.00  0.00    -0.008 C 
ATOM     36  C   UNL     1      -1.223 -10.407   0.296  0.00  0.00    +0.008 C 
ATOM     37  C   UNL     1      -1.917 -10.497   2.695  0.00  0.00    +0.008 C 
ENDBRANCH  34  35
ENDBRANCH  26  34
ENDBRANCH  24  25
ENDBRANCH   7  24
TORSDOF 9
