REMARK  Name = ZINC01176086
REMARK  4 active torsions:
REMARK  status: ('A' for Active; 'I' for Inactive)
REMARK    1  A    between atoms: C_1  and  C_2
REMARK    2  A    between atoms: C_3  and  N_9
REMARK    3  A    between atoms: C_13  and  C_14
REMARK    4  A    between atoms: C_17  and  O_21
REMARK                            x       y       z     vdW  Elec       q    Type
REMARK                         _______ _______ _______ _____ _____    ______ ____
ROOT
ATOM      1  N   UNL     1       3.569   6.335   0.316  0.00  0.00    -0.189 N 
ATOM      2  C   UNL     1       2.374   5.717   0.220  0.00  0.00    +0.263 C 
ATOM      3  O   UNL     1       1.338   6.354   0.232  0.00  0.00    -0.269 OA
ATOM      4  C   UNL     1       2.358   4.245   0.106  0.00  0.00    +0.100 C 
ATOM      5  C   UNL     1       1.173   3.542   0.009  0.00  0.00    +0.026 C 
ATOM      6  C   UNL     1       3.666   3.559   0.094  0.00  0.00    +0.257 C 
ATOM      7  O   UNL     1       3.735   2.348  -0.002  0.00  0.00    -0.270 OA
ATOM      8  N   UNL     1       4.781   4.312   0.192  0.00  0.00    -0.235 N 
ATOM      9  C   UNL     1       4.719   5.646   0.298  0.00  0.00    +0.320 C 
ATOM     10  O   UNL     1       5.761   6.265   0.383  0.00  0.00    -0.251 OA
ATOM     11  H   UNL     1       5.648   3.877   0.185  0.00  0.00    +0.159 HD
ENDROOT
BRANCH   1  14
ATOM     12  C   UNL     1       3.525   7.474   2.924  0.00  0.00    +0.047 C 
ATOM     13  C   UNL     1       3.590   8.327   1.684  0.00  0.00    -0.010 A 
ATOM     14  C   UNL     1       3.610   7.731   0.430  0.00  0.00    +0.050 A 
ATOM     15  C   UNL     1       3.675   8.521  -0.710  0.00  0.00    +0.024 A 
ATOM     16  C   UNL     1       3.709   9.897  -0.595  0.00  0.00    +0.003 A 
ATOM     17  C   UNL     1       3.690  10.489   0.654  0.00  0.00    +0.020 A 
ATOM     18  C   UNL     1       3.630   9.705   1.793  0.00  0.00    +0.046 A 
ATOM     19 CL   UNL     1       3.606  10.451   3.360  0.00  0.00    -0.083 Cl
ENDBRANCH   1  14
BRANCH   5  20
ATOM     20  C   UNL     1       1.178   2.083   0.114  0.00  0.00    -0.023 A 
ATOM     21  C   UNL     1       1.910   1.452   1.132  0.00  0.00    +0.011 A 
ATOM     22  C   UNL     1       1.912   0.090   1.228  0.00  0.00    +0.047 A 
ATOM     23  C   UNL     1       1.190  -0.678   0.320  0.00  0.00    +0.131 A 
ATOM     24  C   UNL     1       0.460  -0.064  -0.694  0.00  0.00    +0.060 A 
ATOM     25  C   UNL     1       0.450   1.308  -0.801  0.00  0.00    +0.027 A 
ATOM     26 BR   UNL     1      -0.520  -1.116  -1.923  0.00  0.00    -0.047 Br
BRANCH  23  27
ATOM     27  O   UNL     1       1.198  -2.031   0.423  0.00  0.00    -0.506 OA
ATOM     28  H   UNL     1       0.495  -2.386   0.983  0.00  0.00    +0.292 HD
ENDBRANCH  23  27
ENDBRANCH   5  20
TORSDOF 3
