REMARK  Name = ZINC59048196
REMARK  8 active torsions:
REMARK  status: ('A' for Active; 'I' for Inactive)
REMARK    1  A    between atoms: C_4  and  C_7
REMARK    2  A    between atoms: C_7  and  S_8
REMARK    3  A    between atoms: S_8  and  C_9
REMARK    4  A    between atoms: C_15  and  C_17
REMARK    5  A    between atoms: C_17  and  S_18
REMARK    6  A    between atoms: S_18  and  C_19
REMARK    7  A    between atoms: C_22  and  C_30
REMARK    8  A    between atoms: N_23  and  C_24
REMARK                            x       y       z     vdW  Elec       q    Type
REMARK                         _______ _______ _______ _____ _____    ______ ____
ROOT
ATOM      1  C   UNL     1      11.391  -4.902   0.984  0.00  0.00    +0.173 C 
ENDROOT
BRANCH   1   8
ATOM      2  C   UNL     1       5.835  -1.750   1.352  0.00  0.00    +0.160 A 
ATOM      3  N   UNL     1       6.427  -2.230   0.269  0.00  0.00    -0.133 NA
ATOM      4  N   UNL     1       7.530  -2.838   0.326  0.00  0.00    -0.125 NA
ATOM      5  C   UNL     1       8.165  -3.034   1.470  0.00  0.00    +0.189 A 
ATOM      6  S   UNL     1       7.027  -2.234   2.598  0.00  0.00    -0.024 S 
ATOM      7  N   UNL     1       9.375  -3.675   1.725  0.00  0.00    -0.263 N 
ATOM      8  C   UNL     1      10.081  -4.209   0.709  0.00  0.00    +0.229 C 
ATOM      9  O   UNL     1       9.663  -4.132  -0.427  0.00  0.00    -0.275 OA
ATOM     10  H   UNL     1       9.709  -3.736   2.633  0.00  0.00    +0.157 HD
BRANCH   2  11
ATOM     11  S   UNL     1       4.313  -0.878   1.519  0.00  0.00    -0.092 S 
BRANCH  11  12
ATOM     12  C   UNL     1       3.680  -0.771  -0.178  0.00  0.00    +0.111 C 
BRANCH  12  16
ATOM     13  C   UNL     1      -0.051   1.308  -0.180  0.00  0.00    +0.000 A 
ATOM     14  C   UNL     1       1.131   2.010  -0.329  0.00  0.00    +0.000 A 
ATOM     15  C   UNL     1       2.338   1.337  -0.328  0.00  0.00    +0.004 A 
ATOM     16  C   UNL     1       2.364  -0.037  -0.178  0.00  0.00    -0.037 A 
ATOM     17  C   UNL     1       1.182  -0.738  -0.028  0.00  0.00    +0.004 A 
ATOM     18  C   UNL     1      -0.026  -0.066  -0.030  0.00  0.00    +0.000 A 
ENDBRANCH  12  16
ENDBRANCH  11  12
ENDBRANCH   2  11
ENDBRANCH   1   8
BRANCH   1  19
ATOM     19  S   UNL     1      12.093  -5.509  -0.574  0.00  0.00    -0.076 S 
BRANCH  19  20
ATOM     20  C   UNL     1      13.600  -6.284  -0.089  0.00  0.00    +0.197 A 
ATOM     21  N   UNL     1      14.067  -6.383   1.135  0.00  0.00    -0.122 NA
ATOM     22  N   UNL     1      15.190  -7.008   1.131  0.00  0.00    -0.128 NA
ATOM     23  C   UNL     1      15.511  -7.348  -0.096  0.00  0.00    +0.171 A 
ATOM     24  N   UNL     1      14.499  -6.899  -0.917  0.00  0.00    -0.270 N 
BRANCH  24  25
ATOM     25  C   UNL     1      14.410  -7.042  -2.308  0.00  0.00    +0.051 A 
ATOM     26  C   UNL     1      14.217  -8.298  -2.868  0.00  0.00    +0.026 A 
ATOM     27  C   UNL     1      14.130  -8.436  -4.239  0.00  0.00    +0.002 A 
ATOM     28  C   UNL     1      14.236  -7.324  -5.055  0.00  0.00    +0.000 A 
ATOM     29  C   UNL     1      14.428  -6.072  -4.501  0.00  0.00    +0.002 A 
ATOM     30  C   UNL     1      14.510  -5.927  -3.130  0.00  0.00    +0.026 A 
ENDBRANCH  24  25
BRANCH  23  31
ATOM     31  C   UNL     1      16.725  -8.078  -0.517  0.00  0.00    +0.038 A 
ATOM     32  C   UNL     1      17.139  -8.060  -1.854  0.00  0.00    +0.014 A 
ATOM     33  C   UNL     1      18.282  -8.760  -2.196  0.00  0.00    +0.020 A 
ATOM     34  C   UNL     1      18.974  -9.449  -1.215  0.00  0.00    +0.111 A 
ATOM     35  N   UNL     1      18.560  -9.448   0.038  0.00  0.00    -0.263 NA
ATOM     36  C   UNL     1      17.481  -8.792   0.414  0.00  0.00    +0.122 A 
ENDBRANCH  23  31
ENDBRANCH  19  20
ENDBRANCH   1  19
TORSDOF 8
