REMARK  Name = ZINC09529616
REMARK  6 active torsions:
REMARK  status: ('A' for Active; 'I' for Inactive)
REMARK    1  A    between atoms: C_8  and  C_13
REMARK    2  A    between atoms: C_13  and  C_14
REMARK    3  A    between atoms: C_14  and  C_19
REMARK    4  A    between atoms: C_19  and  C_20
REMARK    5  A    between atoms: N_22  and  C_23
REMARK    6  A    between atoms: C_23  and  C_24
REMARK                            x       y       z     vdW  Elec       q    Type
REMARK                         _______ _______ _______ _____ _____    ______ ____
ROOT
ATOM      1  C   UNL     1      -0.778   7.642   0.333  0.00  0.00    -0.014 C 
ATOM      2  C   UNL     1      -1.605   6.912  -0.746  0.00  0.00    +0.008 C 
ATOM      3  C   UNL     1      -2.915   7.733  -0.840  0.00  0.00    +0.001 C 
ATOM      4  C   UNL     1      -2.418   9.191  -0.675  0.00  0.00    +0.001 C 
ATOM      5  C   UNL     1      -1.296   9.091   0.378  0.00  0.00    +0.008 C 
ENDROOT
BRANCH   1   6
ATOM      6  C   UNL     1       0.705   7.627  -0.043  0.00  0.00    +0.080 C 
BRANCH   6  14
ATOM      7  C   UNL     1       1.075  11.072   4.910  0.00  0.00    +0.002 A 
ATOM      8  C   UNL     1       2.387  11.507   4.836  0.00  0.00    +0.002 A 
ATOM      9  C   UNL     1       3.184  11.125   3.768  0.00  0.00    +0.031 A 
ATOM     10  C   UNL     1       2.664  10.321   2.787  0.00  0.00    +0.134 A 
ATOM     11  C   UNL     1       1.341   9.870   2.846  0.00  0.00    +0.092 A 
ATOM     12  C   UNL     1       0.546  10.264   3.926  0.00  0.00    +0.030 A 
ATOM     13  N   UNL     1       0.836   9.057   1.877  0.00  0.00    -0.234 NA
ATOM     14  C   UNL     1       1.488   8.426   0.966  0.00  0.00    +0.116 C 
ATOM     15  N   UNL     1       2.857   8.440   0.861  0.00  0.00    -0.203 N 
ATOM     16  S   UNL     1       3.631   9.823   1.392  0.00  0.00    +0.075 S 
ATOM     17  O   UNL     1       3.460  10.812   0.387  0.00  0.00    -0.150 OA
ATOM     18  O   UNL     1       4.905   9.430   1.883  0.00  0.00    -0.150 OA
ATOM     19  H   UNL     1       3.349   7.687   0.497  0.00  0.00    +0.175 HD
ENDBRANCH   6  14
ENDBRANCH   1   6
BRANCH   1  20
ATOM     20  C   UNL     1      -0.981   6.971   1.693  0.00  0.00    +0.103 C 
BRANCH  20  21
ATOM     21  C   UNL     1      -0.498   5.545   1.626  0.00  0.00    +0.214 C 
ATOM     22  O   UNL     1      -0.136   5.076   0.568  0.00  0.00    -0.276 OA
ATOM     23  N   UNL     1      -0.468   4.791   2.742  0.00  0.00    -0.311 N 
ATOM     24  H   UNL     1      -0.825   5.141   3.574  0.00  0.00    +0.149 HD
BRANCH  23  25
ATOM     25  C   UNL     1       0.103   3.442   2.700  0.00  0.00    +0.139 C 
BRANCH  25  26
ATOM     26  C   UNL     1      -0.094   2.771   4.035  0.00  0.00    -0.030 A 
ATOM     27  C   UNL     1       0.870   2.893   5.018  0.00  0.00    +0.006 A 
ATOM     28  C   UNL     1       0.688   2.283   6.245  0.00  0.00    +0.020 A 
ATOM     29  C   UNL     1      -0.455   1.541   6.485  0.00  0.00    +0.041 A 
ATOM     30  C   UNL     1      -1.417   1.415   5.499  0.00  0.00    +0.020 A 
ATOM     31  C   UNL     1      -1.236   2.030   4.274  0.00  0.00    +0.006 A 
ATOM     32 CL   UNL     1      -0.682   0.768   8.023  0.00  0.00    -0.084 Cl
ENDBRANCH  25  26
ENDBRANCH  23  25
ENDBRANCH  20  21
ENDBRANCH   1  20
TORSDOF 6
