REMARK  Name = ZINC24143152
REMARK  11 active torsions:
REMARK  status: ('A' for Active; 'I' for Inactive)
REMARK    1  A    between atoms: C_1  and  C_2
REMARK    2  A    between atoms: C_2  and  C_3
REMARK    3  A    between atoms: C_3  and  C_4
REMARK    4  A    between atoms: C_4  and  C_5
REMARK    5  A    between atoms: C_5  and  C_30
REMARK    6  A    between atoms: N_8  and  C_12
REMARK    7  A    between atoms: C_12  and  C_13
REMARK    8  A    between atoms: N_15  and  C_16
REMARK    9  A    between atoms: N_15  and  C_17
REMARK   10  A    between atoms: C_17  and  C_18
REMARK   11  A    between atoms: C_21  and  C_23
REMARK                            x       y       z     vdW  Elec       q    Type
REMARK                         _______ _______ _______ _____ _____    ______ ____
ROOT
ATOM      1  C   UNL     1      -0.729   1.579   1.267  0.00  0.00    +0.138 C 
ATOM      2  C   UNL     1      -2.120   0.984   1.357  0.00  0.00    +0.251 C 
ATOM      3  O   UNL     1      -2.410  -0.191   1.441  0.00  0.00    -0.272 OA
ATOM      4  N   UNL     1      -2.967   2.031   1.325  0.00  0.00    -0.215 N 
ATOM      5  C   UNL     1      -2.312   3.193   1.228  0.00  0.00    +0.310 C 
ATOM      6  O   UNL     1      -2.861   4.277   1.183  0.00  0.00    -0.252 OA
ATOM      7  N   UNL     1      -0.977   3.029   1.187  0.00  0.00    -0.281 N 
ATOM      8  H   UNL     1      -0.132   3.729   1.111  0.00  0.00    +0.152 HD
ENDROOT
BRANCH   1   9
ATOM      9  C   UNL     1       0.073   1.242   2.498  0.00  0.00    -0.015 A 
ATOM     10  C   UNL     1       0.875   0.117   2.513  0.00  0.00    +0.006 A 
ATOM     11  C   UNL     1       1.614  -0.190   3.641  0.00  0.00    +0.000 A 
ATOM     12  C   UNL     1       1.544   0.624   4.755  0.00  0.00    +0.000 A 
ATOM     13  C   UNL     1       0.737   1.747   4.742  0.00  0.00    +0.000 A 
ATOM     14  C   UNL     1       0.002   2.056   3.613  0.00  0.00    +0.006 A 
ENDBRANCH   1   9
BRANCH   1  15
ATOM     15  C   UNL     1      -0.013   1.086   0.008  0.00  0.00    +0.040 C 
BRANCH  15  16
ATOM     16  C   UNL     1      -0.753   1.593  -1.232  0.00  0.00    +0.003 C 
BRANCH  16  18
ATOM     17  C   UNL     1      -0.777   1.606  -3.730  0.00  0.00    +0.004 C 
ATOM     18  C   UNL     1      -0.037   1.099  -2.490  0.00  0.00    -0.003 C 
ENDBRANCH  16  18
ENDBRANCH  15  16
ENDBRANCH   1  15
BRANCH   4  19
ATOM     19  C   UNL     1      -4.426   1.912   1.388  0.00  0.00    +0.213 C 
BRANCH  19  20
ATOM     20  C   UNL     1      -4.872   1.957   2.827  0.00  0.00    +0.234 C 
ATOM     21  O   UNL     1      -4.053   2.078   3.712  0.00  0.00    -0.274 OA
ATOM     22  N   UNL     1      -6.183   1.864   3.129  0.00  0.00    -0.296 N 
ATOM     23  C   UNL     1      -7.173   1.719   2.059  0.00  0.00    +0.132 C 
BRANCH  22  24
ATOM     24  C   UNL     1      -6.616   1.909   4.528  0.00  0.00    +0.181 C 
BRANCH  24  25
ATOM     25  C   UNL     1      -6.885   3.337   4.925  0.00  0.00    +0.123 A 
ATOM     26  C   UNL     1      -8.064   3.977   4.808  0.00  0.00    +0.047 A 
ATOM     27  C   UNL     1      -7.875   5.286   5.296  0.00  0.00    +0.050 A 
ATOM     28  C   UNL     1      -6.574   5.375   5.681  0.00  0.00    +0.135 A 
ATOM     29  O   UNL     1      -5.985   4.186   5.450  0.00  0.00    -0.458 OA
BRANCH  28  30
ATOM     30  C   UNL     1      -5.919   6.571   6.252  0.00  0.00    +0.017 A 
ATOM     31  C   UNL     1      -6.646   7.748   6.435  0.00  0.00    +0.013 A 
ATOM     32  C   UNL     1      -6.030   8.860   6.972  0.00  0.00    +0.021 A 
ATOM     33  C   UNL     1      -4.691   8.811   7.322  0.00  0.00    +0.041 A 
ATOM     34  C   UNL     1      -3.964   7.647   7.139  0.00  0.00    +0.021 A 
ATOM     35  C   UNL     1      -4.569   6.528   6.607  0.00  0.00    +0.013 A 
ATOM     36 CL   UNL     1      -3.922  10.216   7.992  0.00  0.00    -0.084 Cl
ENDBRANCH  28  30
ENDBRANCH  24  25
ENDBRANCH  22  24
ENDBRANCH  19  20
ENDBRANCH   4  19
TORSDOF 9
