REMARK  Name = ZINC39330541
REMARK  15 active torsions:
REMARK  status: ('A' for Active; 'I' for Inactive)
REMARK    1  A    between atoms: C_1  and  O_2
REMARK    2  A    between atoms: O_2  and  C_3
REMARK    3  A    between atoms: C_6  and  C_9
REMARK    4  A    between atoms: C_9  and  C_11
REMARK    5  A    between atoms: C_12  and  C_13
REMARK    6  A    between atoms: N_16  and  C_23
REMARK    7  A    between atoms: C_23  and  C_24
REMARK    8  A    between atoms: C_24  and  C_26
REMARK    9  A    between atoms: C_24  and  O_41
REMARK   10  A    between atoms: C_26  and  N_27
REMARK   11  A    between atoms: N_27  and  C_28
REMARK   12  A    between atoms: C_28  and  C_29
REMARK   13  A    between atoms: C_29  and  C_30
REMARK   14  A    between atoms: C_33  and  O_39
REMARK   15  A    between atoms: O_39  and  C_40
REMARK                            x       y       z     vdW  Elec       q    Type
REMARK                         _______ _______ _______ _____ _____    ______ ____
ROOT
ATOM      1  C   UNL     1       3.390  -7.885  -8.892  0.00  0.00    +0.134 C 
ENDROOT
BRANCH   1   4
ATOM      2  C   UNL     1       3.188  -6.053  -5.554  0.00  0.00    +0.061 C 
ATOM      3  C   UNL     1       2.513  -6.546  -6.845  0.00  0.00    +0.117 C 
ATOM      4  N   UNL     1       3.567  -7.242  -7.588  0.00  0.00    -0.326 N 
ATOM      5  C   UNL     1       4.764  -7.203  -6.871  0.00  0.00    +0.034 A 
ATOM      6  C   UNL     1       4.621  -6.524  -5.668  0.00  0.00    -0.018 A 
ATOM      7  C   UNL     1       5.694  -6.377  -4.811  0.00  0.00    +0.006 A 
ATOM      8  C   UNL     1       6.926  -6.907  -5.144  0.00  0.00    +0.000 A 
ATOM      9  C   UNL     1       7.083  -7.587  -6.338  0.00  0.00    +0.002 A 
ATOM     10  C   UNL     1       6.012  -7.736  -7.203  0.00  0.00    +0.023 A 
BRANCH   2  12
ATOM     11  C   UNL     1       2.543  -3.958  -4.438  0.00  0.00    +0.048 C 
ATOM     12  C   UNL     1       3.135  -4.549  -5.474  0.00  0.00    -0.013 C 
BRANCH  11  13
ATOM     13  C   UNL     1       2.491  -2.491  -4.360  0.00  0.00    +0.186 C 
ATOM     14  O   UNL     1       2.988  -1.816  -5.242  0.00  0.00    -0.287 OA
BRANCH  13  18
ATOM     15  C   UNL     1       0.605  -0.606  -1.054  0.00  0.00    +0.120 A 
ATOM     16  C   UNL     1       1.172   0.166  -2.061  0.00  0.00    +0.046 A 
ATOM     17  C   UNL     1       1.785  -0.441  -3.135  0.00  0.00    +0.015 A 
ATOM     18  C   UNL     1       1.836  -1.836  -3.211  0.00  0.00    +0.022 A 
ATOM     19  C   UNL     1       1.264  -2.609  -2.196  0.00  0.00    +0.015 A 
ATOM     20  C   UNL     1       0.658  -1.994  -1.123  0.00  0.00    +0.046 A 
BRANCH  15  22
ATOM     21  C   UNL     1      -0.017   1.425   0.010  0.00  0.00    +0.277 C 
ATOM     22  O   UNL     1       0.002  -0.004   0.002  0.00  0.00    -0.495 OA
ENDBRANCH  15  22
ENDBRANCH  13  18
ENDBRANCH  11  13
ENDBRANCH   2  12
ENDBRANCH   1   4
BRANCH   1  23
ATOM     23  C   UNL     1       3.681  -6.873 -10.003  0.00  0.00    +0.115 C 
BRANCH  23  24
ATOM     24  O   UNL     1       2.781  -5.769  -9.890  0.00  0.00    -0.392 OA
ATOM     25  H   UNL     1       1.848  -6.013  -9.963  0.00  0.00    +0.210 HD
ENDBRANCH  23  24
BRANCH  23  26
ATOM     26  C   UNL     1       3.496  -7.545 -11.365  0.00  0.00    -0.049 C 
BRANCH  26  27
ATOM     27  N   UNL     1       3.890  -6.611 -12.429  0.00  0.00    +0.381 N 
ATOM     28  H   UNL     1       3.314  -5.784 -12.380  0.00  0.00    -0.086 HD
ATOM     29  H   UNL     1       4.859  -6.355 -12.309  0.00  0.00    -0.086 HD
BRANCH  27  30
ATOM     30  C   UNL     1       3.712  -7.256 -13.737  0.00  0.00    -0.078 C 
BRANCH  30  31
ATOM     31  C   UNL     1       4.123  -6.284 -14.844  0.00  0.00    +0.018 C 
BRANCH  31  32
ATOM     32  C   UNL     1       3.941  -6.945 -16.186  0.00  0.00    -0.024 A 
ATOM     33  C   UNL     1       2.702  -7.006 -16.966  0.00  0.00    +0.006 A 
ATOM     34  C   UNL     1       1.406  -6.528 -16.765  0.00  0.00    +0.056 A 
ATOM     35  C   UNL     1       0.437  -6.759 -17.721  0.00  0.00    +0.121 A 
ATOM     36  C   UNL     1       0.750  -7.465 -18.880  0.00  0.00    +0.047 A 
ATOM     37  C   UNL     1       2.025  -7.941 -19.089  0.00  0.00    +0.030 A 
ATOM     38  C   UNL     1       3.015  -7.718 -18.138  0.00  0.00    +0.047 A 
ATOM     39  N   UNL     1       4.349  -8.059 -18.062  0.00  0.00    -0.360 N 
ATOM     40  C   UNL     1       4.884  -7.585 -16.896  0.00  0.00    +0.087 A 
ATOM     41  H   UNL     1       4.836  -8.557 -18.737  0.00  0.00    +0.165 HD
BRANCH  35  42
ATOM     42  O   UNL     1      -0.827  -6.297 -17.531  0.00  0.00    -0.495 OA
ATOM     43  C   UNL     1      -1.781  -6.571 -18.559  0.00  0.00    +0.277 C 
ENDBRANCH  35  42
ENDBRANCH  31  32
ENDBRANCH  30  31
ENDBRANCH  27  30
ENDBRANCH  26  27
ENDBRANCH  23  26
ENDBRANCH   1  23
TORSDOF 13
