REMARK  Name = ZINC12375287
REMARK  6 active torsions:
REMARK  status: ('A' for Active; 'I' for Inactive)
REMARK    1  A    between atoms: C_4  and  O_34
REMARK    2  A    between atoms: C_5  and  C_7
REMARK    3  A    between atoms: N_8  and  C_9
REMARK    4  A    between atoms: C_18  and  N_25
REMARK    5  A    between atoms: C_26  and  C_27
REMARK    6  A    between atoms: C_32  and  O_33
REMARK                            x       y       z     vdW  Elec       q    Type
REMARK                         _______ _______ _______ _____ _____    ______ ____
ROOT
ATOM      1  C   UNL     1      -2.486   7.654   1.211  0.00  0.00    +0.147 C 
ATOM      2  C   UNL     1      -3.195   6.768   2.202  0.00  0.00    +0.019 A 
ATOM      3  C   UNL     1      -2.826   6.829   3.536  0.00  0.00    +0.009 A 
ATOM      4  C   UNL     1      -3.453   6.027   4.470  0.00  0.00    +0.001 A 
ATOM      5  C   UNL     1      -4.453   5.157   4.074  0.00  0.00    +0.004 A 
ATOM      6  C   UNL     1      -4.825   5.093   2.747  0.00  0.00    +0.046 A 
ATOM      7  C   UNL     1      -4.198   5.902   1.804  0.00  0.00    +0.129 A 
ATOM      8  O   UNL     1      -4.605   5.813   0.501  0.00  0.00    -0.464 OA
ATOM      9  C   UNL     1      -3.738   6.356  -0.499  0.00  0.00    +0.207 C 
ATOM     10  C   UNL     1      -3.314   7.767  -0.073  0.00  0.00    +0.085 C 
ATOM     11  C   UNL     1      -2.450   8.401  -1.149  0.00  0.00    +0.012 C 
ATOM     12  C   UNL     1      -3.224   8.473  -2.466  0.00  0.00    +0.001 C 
ATOM     13  C   UNL     1      -3.614   7.057  -2.899  0.00  0.00    +0.006 C 
ATOM     14  C   UNL     1      -4.501   6.428  -1.824  0.00  0.00    +0.073 C 
ENDROOT
BRANCH   1  16
ATOM     15  C   UNL     1      -0.702   6.116   1.619  0.00  0.00    +0.117 C 
ATOM     16  N   UNL     1      -1.176   7.079   0.896  0.00  0.00    -0.282 NA
BRANCH  15  21
ATOM     17  C   UNL     1       2.417   4.041   1.845  0.00  0.00    +0.001 A 
ATOM     18  C   UNL     1       3.229   4.668   0.914  0.00  0.00    +0.004 A 
ATOM     19  C   UNL     1       2.768   5.764   0.210  0.00  0.00    +0.046 A 
ATOM     20  C   UNL     1       1.487   6.245   0.433  0.00  0.00    +0.125 A 
ATOM     21  C   UNL     1       0.662   5.614   1.374  0.00  0.00    +0.034 A 
ATOM     22  C   UNL     1       1.142   4.509   2.083  0.00  0.00    +0.013 A 
BRANCH  20  23
ATOM     23  O   UNL     1       1.034   7.321  -0.258  0.00  0.00    -0.506 OA
ATOM     24  H   UNL     1       1.281   8.171   0.132  0.00  0.00    +0.292 HD
ENDBRANCH  20  23
ENDBRANCH  15  21
ENDBRANCH   1  16
BRANCH   9  25
ATOM     25  N   UNL     1      -2.555   5.504  -0.650  0.00  0.00    -0.246 NA
ATOM     26  C   UNL     1      -2.488   4.373  -0.025  0.00  0.00    +0.120 C 
BRANCH  26  27
ATOM     27  C   UNL     1      -1.329   3.486  -0.229  0.00  0.00    +0.034 A 
ATOM     28  C   UNL     1      -1.197   2.317   0.525  0.00  0.00    +0.013 A 
ATOM     29  C   UNL     1      -0.107   1.496   0.335  0.00  0.00    +0.001 A 
ATOM     30  C   UNL     1       0.853   1.817  -0.610  0.00  0.00    +0.004 A 
ATOM     31  C   UNL     1       0.732   2.966  -1.367  0.00  0.00    +0.046 A 
ATOM     32  C   UNL     1      -0.354   3.808  -1.184  0.00  0.00    +0.125 A 
BRANCH  32  33
ATOM     33  O   UNL     1      -0.474   4.938  -1.925  0.00  0.00    -0.506 OA
ATOM     34  H   UNL     1      -0.889   4.800  -2.788  0.00  0.00    +0.292 HD
ENDBRANCH  32  33
ENDBRANCH  26  27
ENDBRANCH   9  25
TORSDOF 6
