REMARK  Name = ZINC41021922
REMARK  6 active torsions:
REMARK  status: ('A' for Active; 'I' for Inactive)
REMARK    1  A    between atoms: C_6  and  C_7
REMARK    2  A    between atoms: C_9  and  N_12
REMARK    3  A    between atoms: C_13  and  C_15
REMARK    4  A    between atoms: C_15  and  C_16
REMARK    5  A    between atoms: C_16  and  C_17
REMARK    6  A    between atoms: C_20  and  C_22
REMARK                            x       y       z     vdW  Elec       q    Type
REMARK                         _______ _______ _______ _____ _____    ______ ____
ROOT
ATOM      1  N   UNL     1      -3.266  -3.748   0.023  0.00  0.00    -0.254 N 
ATOM      2  C   UNL     1      -4.604  -3.909   0.033  0.00  0.00    +0.220 C 
ATOM      3  O   UNL     1      -5.331  -2.938   0.041  0.00  0.00    -0.275 OA
ATOM      4  H   UNL     1      -2.684  -4.525   0.017  0.00  0.00    +0.158 HD
ENDROOT
BRANCH   1   7
ATOM      5  C   UNL     1      -1.272  -0.766   0.011  0.00  0.00    +0.115 A 
ATOM      6  C   UNL     1      -1.399  -2.172   0.010  0.00  0.00    +0.097 A 
ATOM      7  C   UNL     1      -2.720  -2.473   0.020  0.00  0.00    +0.224 A 
ATOM      8  O   UNL     1      -3.410  -1.319   0.027  0.00  0.00    -0.339 OA
ATOM      9  N   UNL     1      -2.479  -0.252   0.026  0.00  0.00    -0.076 NA
BRANCH   5  15
ATOM     10  C   UNL     1      -0.017   1.389   0.010  0.00  0.00    +0.011 A 
ATOM     11  C   UNL     1       1.170   2.093   0.002  0.00  0.00    +0.020 A 
ATOM     12  C   UNL     1       2.378   1.417  -0.013  0.00  0.00    +0.041 A 
ATOM     13  C   UNL     1       2.402   0.033  -0.022  0.00  0.00    +0.020 A 
ATOM     14  C   UNL     1       1.220  -0.680  -0.014  0.00  0.00    +0.011 A 
ATOM     15  C   UNL     1       0.002  -0.004   0.002  0.00  0.00    +0.004 A 
ATOM     16 CL   UNL     1       3.868   2.308  -0.024  0.00  0.00    -0.084 Cl
ENDBRANCH   5  15
ENDBRANCH   1   7
BRANCH   2  17
ATOM     17  C   UNL     1      -5.197  -5.294   0.036  0.00  0.00    +0.105 C 
BRANCH  17  18
ATOM     18  C   UNL     1      -6.724  -5.196   0.049  0.00  0.00    +0.105 C 
BRANCH  18  19
ATOM     19  C   UNL     1      -7.316  -6.581   0.051  0.00  0.00    +0.197 A 
ATOM     20  N   UNL     1      -7.611  -7.276   1.114  0.00  0.00    -0.221 NA
ATOM     21  C   UNL     1      -8.118  -8.459   0.734  0.00  0.00    +0.161 A 
ATOM     22  C   UNL     1      -8.131  -8.480  -0.624  0.00  0.00    +0.155 A 
ATOM     23  O   UNL     1      -7.631  -7.295  -1.039  0.00  0.00    -0.440 OA
BRANCH  22  24
ATOM     24  C   UNL     1      -8.607  -9.585  -1.483  0.00  0.00    +0.019 A 
ATOM     25  C   UNL     1      -8.553  -9.464  -2.873  0.00  0.00    +0.013 A 
ATOM     26  C   UNL     1      -8.998 -10.499  -3.669  0.00  0.00    +0.021 A 
ATOM     27  C   UNL     1      -9.497 -11.655  -3.093  0.00  0.00    +0.041 A 
ATOM     28  C   UNL     1      -9.553 -11.780  -1.715  0.00  0.00    +0.021 A 
ATOM     29  C   UNL     1      -9.106 -10.755  -0.908  0.00  0.00    +0.013 A 
ATOM     30 CL   UNL     1     -10.055 -12.952  -4.102  0.00  0.00    -0.084 Cl
ENDBRANCH  22  24
ENDBRANCH  18  19
ENDBRANCH  17  18
ENDBRANCH   2  17
TORSDOF 6
