REMARK  Name = ZINC28091424
REMARK  4 active torsions:
REMARK  status: ('A' for Active; 'I' for Inactive)
REMARK    1  A    between atoms: C_1  and  C_2
REMARK    2  A    between atoms: C_2  and  N_3
REMARK    3  A    between atoms: C_9  and  C_12
REMARK    4  A    between atoms: C_15  and  N_18
REMARK                            x       y       z     vdW  Elec       q    Type
REMARK                         _______ _______ _______ _____ _____    ______ ____
ROOT
ATOM      1  N   UNL     1       0.197   7.425  -1.468  0.00  0.00    -0.241 N 
ATOM      2  C   UNL     1      -1.067   7.566  -1.049  0.00  0.00    +0.226 C 
ATOM      3  O   UNL     1      -1.833   8.433  -1.411  0.00  0.00    -0.275 OA
ATOM      4  C   UNL     1      -1.387   6.473  -0.053  0.00  0.00    +0.096 C 
ATOM      5  C   UNL     1      -0.575   6.411   1.271  0.00  0.00    +0.035 C 
ATOM      6  C   UNL     1      -0.075   5.666   0.032  0.00  0.00    +0.084 C 
ATOM      7  C   UNL     1       0.848   6.389  -0.925  0.00  0.00    +0.233 C 
ATOM      8  O   UNL     1       1.996   6.079  -1.162  0.00  0.00    -0.274 OA
ENDROOT
BRANCH   6   9
ATOM      9  C   UNL     1      -0.054   4.159   0.024  0.00  0.00    -0.032 A 
ATOM     10  C   UNL     1       1.153   3.486   0.009  0.00  0.00    +0.006 A 
ATOM     11  C   UNL     1       1.176   2.105   0.002  0.00  0.00    +0.023 A 
ATOM     12  C   UNL     1      -0.017   1.393   0.010  0.00  0.00    +0.025 A 
ATOM     13  C   UNL     1      -1.228   2.072   0.019  0.00  0.00    +0.023 A 
ATOM     14  C   UNL     1      -1.243   3.453   0.031  0.00  0.00    +0.006 A 
BRANCH  12  15
ATOM     15  N   UNL     1       0.002  -0.004   0.002  0.00  0.00    -0.358 N 
ATOM     16  H   UNL     1      -0.943  -0.567   0.008  0.00  0.00    +0.142 HD
ATOM     17  H   UNL     1       0.962  -0.541  -0.010  0.00  0.00    +0.142 HD
ENDBRANCH  12  15
ENDBRANCH   6   9
BRANCH   1  19
ATOM     18  C   UNL     1       0.580   7.796  -3.854  0.00  0.00    +0.025 C 
ATOM     19  C   UNL     1       0.816   8.329  -2.440  0.00  0.00    +0.113 C 
ENDBRANCH   1  19
TORSDOF 3
