REMARK  Name = ZINC12447160
REMARK  7 active torsions:
REMARK  status: ('A' for Active; 'I' for Inactive)
REMARK    1  A    between atoms: C_1  and  C_2
REMARK    2  A    between atoms: C_2  and  C_3
REMARK    3  A    between atoms: C_2  and  C_4
REMARK    4  A    between atoms: C_6  and  C_10
REMARK    5  A    between atoms: C_10  and  N_55
REMARK    6  A    between atoms: C_23  and  C_25
REMARK    7  A    between atoms: C_29  and  O_31
REMARK                            x       y       z     vdW  Elec       q    Type
REMARK                         _______ _______ _______ _____ _____    ______ ____
ROOT
ATOM      1  C   UNL     1      -0.573   3.452  -1.332  0.00  0.00    -0.072 C 
ATOM      2  C   UNL     1       0.871   3.796  -1.720  0.00  0.00    +0.019 C 
ATOM      3  C   UNL     1       1.794   3.060  -0.781  0.00  0.00    -0.022 A 
ATOM      4  C   UNL     1       3.200   3.276  -0.522  0.00  0.00    +0.003 A 
ATOM      5  C   UNL     1       4.131   4.188  -1.030  0.00  0.00    +0.010 A 
ATOM      6  C   UNL     1       5.412   4.103  -0.544  0.00  0.00    +0.001 A 
ATOM      7  C   UNL     1       5.779   3.161   0.404  0.00  0.00    +0.002 A 
ATOM      8  C   UNL     1       4.879   2.247   0.923  0.00  0.00    +0.026 A 
ATOM      9  C   UNL     1       3.570   2.309   0.448  0.00  0.00    +0.047 A 
ATOM     10  N   UNL     1       2.455   1.575   0.738  0.00  0.00    -0.359 N 
ATOM     11  H   UNL     1       2.420   0.842   1.373  0.00  0.00    +0.166 HD
ATOM     12  C   UNL     1       1.397   2.030  -0.000  0.00  0.00    +0.011 A 
ATOM     13  C   UNL     1      -0.018   1.503   0.010  0.00  0.00    +0.011 C 
ATOM     14  N   UNL     1      -0.696   1.981  -1.218  0.00  0.00    +0.392 N 
ATOM     15  H   UNL     1      -0.250   1.546  -2.035  0.00  0.00    -0.080 HD
ENDROOT
BRANCH  13  16
ATOM     16  C   UNL     1       0.002  -0.004   0.002  0.00  0.00    -0.052 A 
ATOM     17  C   UNL     1       0.208  -0.686  -1.183  0.00  0.00    +0.002 A 
ATOM     18  C   UNL     1       0.228  -2.068  -1.194  0.00  0.00    +0.004 A 
ATOM     19  C   UNL     1       0.043  -2.772  -0.020  0.00  0.00    +0.045 A 
ATOM     20  C   UNL     1      -0.165  -2.091   1.170  0.00  0.00    +0.117 A 
ATOM     21  C   UNL     1      -0.179  -0.703   1.179  0.00  0.00    +0.047 A 
BRANCH  20  22
ATOM     22  O   UNL     1      -0.347  -2.781   2.327  0.00  0.00    -0.507 OA
ATOM     23  H   UNL     1       0.471  -2.968   2.806  0.00  0.00    +0.292 HD
ENDBRANCH  20  22
ENDBRANCH  13  16
BRANCH  14  24
ATOM     24  C   UNL     1      -2.122   1.595  -1.189  0.00  0.00    -0.019 C 
BRANCH  24  27
ATOM     25  C   UNL     1      -3.771   2.755  -4.273  0.00  0.00    +0.039 A 
ATOM     26  C   UNL     1      -3.088   1.814  -3.581  0.00  0.00    +0.046 A 
ATOM     27  C   UNL     1      -2.850   2.314  -2.296  0.00  0.00    +0.047 A 
ATOM     28  N   UNL     1      -3.364   3.515  -2.223  0.00  0.00    -0.181 NA
ATOM     29  N   UNL     1      -3.951   3.816  -3.459  0.00  0.00    -0.281 N 
ATOM     30  H   UNL     1      -4.420   4.666  -3.696  0.00  0.00    +0.189 HD
BRANCH  25  32
ATOM     31  C   UNL     1      -5.579   3.365  -5.856  0.00  0.00    +0.014 C 
ATOM     32  C   UNL     1      -4.240   2.641  -5.701  0.00  0.00    +0.031 C 
ATOM     33  C   UNL     1      -3.205   3.277  -6.631  0.00  0.00    +0.014 C 
ENDBRANCH  25  32
ENDBRANCH  24  27
ENDBRANCH  14  24
TORSDOF 5
