REMARK  Name = ZINC34774692
REMARK  6 active torsions:
REMARK  status: ('A' for Active; 'I' for Inactive)
REMARK    1  A    between atoms: C_4  and  C_7
REMARK    2  A    between atoms: C_7  and  N_8
REMARK    3  A    between atoms: C_16  and  C_28
REMARK    4  A    between atoms: C_21  and  S_23
REMARK    5  A    between atoms: S_23  and  C_24
REMARK    6  A    between atoms: C_24  and  C_25
REMARK                            x       y       z     vdW  Elec       q    Type
REMARK                         _______ _______ _______ _____ _____    ______ ____
ROOT
ATOM      1  N   UNL     1       3.981   0.364   3.399  0.00  0.00    +0.384 N 
ATOM      2  C   UNL     1       4.908   0.348   4.538  0.00  0.00    -0.059 C 
ATOM      3  C   UNL     1       5.964  -0.741   4.321  0.00  0.00    +0.088 C 
ATOM      4  N   UNL     1       5.274  -2.018   4.082  0.00  0.00    -0.318 N 
ATOM      5  C   UNL     1       4.211  -2.052   3.066  0.00  0.00    +0.088 C 
ATOM      6  C   UNL     1       3.238  -0.901   3.342  0.00  0.00    -0.059 C 
ATOM      7  C   UNL     1       5.615  -3.154   4.793  0.00  0.00    +0.134 A 
ATOM      8  C   UNL     1       6.822  -3.846   4.504  0.00  0.00    +0.055 A 
ATOM      9  C   UNL     1       7.850  -3.547   3.510  0.00  0.00    +0.002 A 
ATOM     10  C   UNL     1       8.926  -4.363   3.421  0.00  0.00    +0.056 A 
ATOM     11  S   UNL     1       8.622  -5.592   4.676  0.00  0.00    -0.076 S 
ATOM     12  C   UNL     1       7.071  -4.990   5.288  0.00  0.00    +0.115 A 
ATOM     13  N   UNL     1       6.228  -5.380   6.226  0.00  0.00    -0.214 NA
ATOM     14  C   UNL     1       5.115  -4.694   6.452  0.00  0.00    +0.191 A 
ATOM     15  N   UNL     1       4.824  -3.605   5.752  0.00  0.00    -0.206 NA
ATOM     16  H   UNL     1       4.504   0.484   2.545  0.00  0.00    -0.081 HD
ENDROOT
BRANCH   9  17
ATOM     17  C   UNL     1       7.716  -2.373   2.616  0.00  0.00    -0.017 A 
ATOM     18  C   UNL     1       6.624  -2.269   1.755  0.00  0.00    +0.008 A 
ATOM     19  C   UNL     1       6.505  -1.173   0.926  0.00  0.00    +0.001 A 
ATOM     20  C   UNL     1       7.466  -0.178   0.946  0.00  0.00    +0.000 A 
ATOM     21  C   UNL     1       8.552  -0.276   1.798  0.00  0.00    +0.001 A 
ATOM     22  C   UNL     1       8.679  -1.364   2.637  0.00  0.00    +0.008 A 
ENDBRANCH   9  17
BRANCH   1  23
ATOM     23  C   UNL     1       3.037   1.479   3.554  0.00  0.00    -0.043 C 
BRANCH  23  27
ATOM     24  C   UNL     1       5.159   5.182   3.372  0.00  0.00    +0.000 A 
ATOM     25  C   UNL     1       4.659   4.614   2.215  0.00  0.00    +0.000 A 
ATOM     26  C   UNL     1       3.972   3.415   2.274  0.00  0.00    +0.002 A 
ATOM     27  C   UNL     1       3.786   2.785   3.490  0.00  0.00    -0.064 A 
ATOM     28  C   UNL     1       4.287   3.352   4.647  0.00  0.00    +0.002 A 
ATOM     29  C   UNL     1       4.972   4.551   4.588  0.00  0.00    +0.000 A 
ENDBRANCH  23  27
ENDBRANCH   1  23
BRANCH  14  30
ATOM     30  S   UNL     1       4.006  -5.237   7.709  0.00  0.00    -0.077 S 
BRANCH  30  31
ATOM     31  C   UNL     1       4.801  -6.721   8.385  0.00  0.00    +0.172 C 
BRANCH  31  32
ATOM     32  C   UNL     1       3.944  -7.293   9.485  0.00  0.00    +0.221 C 
ATOM     33  O   UNL     1       2.900  -6.753   9.784  0.00  0.00    -0.275 OA
ATOM     34  N   UNL     1       4.338  -8.405  10.137  0.00  0.00    -0.329 N 
ATOM     35  H   UNL     1       5.173  -8.837   9.898  0.00  0.00    +0.145 HD
ATOM     36  H   UNL     1       3.787  -8.773  10.845  0.00  0.00    +0.145 HD
ENDBRANCH  31  32
ENDBRANCH  30  31
ENDBRANCH  14  30
TORSDOF 6
