REMARK  Name = ZINC36637422
REMARK  12 active torsions:
REMARK  status: ('A' for Active; 'I' for Inactive)
REMARK    1  A    between atoms: C_1  and  C_2
REMARK    2  A    between atoms: C_2  and  N_3
REMARK    3  A    between atoms: N_3  and  C_4
REMARK    4  A    between atoms: N_3  and  S_10
REMARK    5  A    between atoms: S_10  and  C_13
REMARK    6  A    between atoms: C_16  and  C_19
REMARK    7  A    between atoms: N_21  and  C_22
REMARK    8  A    between atoms: C_22  and  C_23
REMARK    9  A    between atoms: C_23  and  N_24
REMARK   10  A    between atoms: N_24  and  C_25
REMARK   11  A    between atoms: N_24  and  C_26
REMARK   12  A    between atoms: C_30  and  C_36
REMARK                            x       y       z     vdW  Elec       q    Type
REMARK                         _______ _______ _______ _____ _____    ______ ____
ROOT
ATOM      1  C   UNL     1      -1.343   3.107  -6.198  0.00  0.00    +0.252 C 
ATOM      2  O   UNL     1      -2.362   3.753  -6.342  0.00  0.00    -0.270 OA
ATOM      3  N   UNL     1      -0.265   3.371  -6.963  0.00  0.00    -0.248 N 
ATOM      4  C   UNL     1      -0.267   4.468  -7.807  0.00  0.00    +0.168 A 
ATOM      5  N   UNL     1      -1.211   5.360  -7.996  0.00  0.00    -0.224 NA
ATOM      6  C   UNL     1      -1.075   6.389  -8.860  0.00  0.00    +0.083 A 
ATOM      7  C   UNL     1      -2.008   7.411  -9.155  0.00  0.00    -0.024 A 
ATOM      8  C   UNL     1      -1.710   8.389 -10.066  0.00  0.00    +0.005 A 
ATOM      9  C   UNL     1      -0.491   8.415 -10.730  0.00  0.00    +0.001 A 
ATOM     10  C   UNL     1       0.444   7.432 -10.466  0.00  0.00    +0.017 A 
ATOM     11  C   UNL     1       0.154   6.447  -9.555  0.00  0.00    +0.041 A 
ATOM     12  S   UNL     1       1.018   5.034  -8.913  0.00  0.00    -0.052 S 
ATOM     13  C   UNL     1      -3.345   7.423  -8.459  0.00  0.00    +0.046 C 
ENDROOT
BRANCH   1  17
ATOM     14  C   UNL     1      -1.176   0.022  -3.284  0.00  0.00    +0.109 A 
ATOM     15  C   UNL     1      -1.971   1.133  -3.065  0.00  0.00    +0.029 A 
ATOM     16  C   UNL     1      -2.029   2.139  -4.008  0.00  0.00    +0.015 A 
ATOM     17  C   UNL     1      -1.284   2.034  -5.184  0.00  0.00    +0.037 A 
ATOM     18  C   UNL     1      -0.485   0.910  -5.398  0.00  0.00    +0.015 A 
ATOM     19  C   UNL     1      -0.431  -0.086  -4.445  0.00  0.00    +0.029 A 
BRANCH  14  20
ATOM     20  S   UNL     1      -1.107  -1.258  -2.075  0.00  0.00    +0.075 S 
ATOM     21  O   UNL     1      -0.555  -2.397  -2.721  0.00  0.00    -0.150 OA
ATOM     22  O   UNL     1      -2.377  -1.284  -1.438  0.00  0.00    -0.150 OA
BRANCH  20  23
ATOM     23  N   UNL     1      -0.011  -0.788  -0.926  0.00  0.00    -0.203 N 
BRANCH  23  24
ATOM     24  C   UNL     1       1.345  -1.077  -1.095  0.00  0.00    +0.051 A 
ATOM     25  C   UNL     1       1.867  -1.245  -2.372  0.00  0.00    +0.025 A 
ATOM     26  C   UNL     1       3.209  -1.530  -2.535  0.00  0.00    +0.002 A 
ATOM     27  C   UNL     1       4.032  -1.648  -1.431  0.00  0.00    +0.000 A 
ATOM     28  C   UNL     1       3.515  -1.482  -0.159  0.00  0.00    +0.002 A 
ATOM     29  C   UNL     1       2.176  -1.191   0.012  0.00  0.00    +0.025 A 
ENDBRANCH  23  24
BRANCH  23  31
ATOM     30  C   UNL     1      -0.322   1.437   0.041  0.00  0.00    +0.026 C 
ATOM     31  C   UNL     1      -0.464  -0.070   0.268  0.00  0.00    +0.128 C 
ENDBRANCH  23  31
ENDBRANCH  20  23
ENDBRANCH  14  20
ENDBRANCH   1  17
BRANCH   3  32
ATOM     32  C   UNL     1       0.909   2.497  -6.901  0.00  0.00    +0.097 C 
BRANCH  32  33
ATOM     33  C   UNL     1       0.887   1.529  -8.085  0.00  0.00    -0.060 C 
BRANCH  33  34
ATOM     34  N   UNL     1       2.133   0.750  -8.104  0.00  0.00    +0.377 N 
ATOM     35  C   UNL     1       2.190  -0.111  -6.916  0.00  0.00    -0.097 C 
ATOM     36  C   UNL     1       2.172  -0.082  -9.315  0.00  0.00    -0.097 C 
ATOM     37  H   UNL     1       2.922   1.378  -8.103  0.00  0.00    -0.083 HD
ENDBRANCH  33  34
ENDBRANCH  32  33
ENDBRANCH   3  32
TORSDOF 8
