REMARK  Name = ZINC05433804
REMARK  5 active torsions:
REMARK  status: ('A' for Active; 'I' for Inactive)
REMARK    1  A    between atoms: C_6  and  C_7
REMARK    2  A    between atoms: N_13  and  C_14
REMARK    3  A    between atoms: C_24  and  N_26
REMARK    4  A    between atoms: N_26  and  C_27
REMARK    5  A    between atoms: C_27  and  C_28
REMARK                            x       y       z     vdW  Elec       q    Type
REMARK                         _______ _______ _______ _____ _____    ______ ____
ROOT
ATOM      1  C   UNL     1      -3.604  -4.923   0.231  0.00  0.00    +0.130 C 
ATOM      2  C   UNL     1      -4.031  -5.277  -1.203  0.00  0.00    +0.185 C 
ATOM      3  O   UNL     1      -3.700  -6.644  -1.442  0.00  0.00    -0.374 OA
ATOM      4  C   UNL     1      -3.088  -7.234  -0.291  0.00  0.00    +0.137 C 
ATOM      5  C   UNL     1      -3.387  -6.290   0.909  0.00  0.00    +0.168 C 
ATOM      6  O   UNL     1      -4.638  -6.764   1.445  0.00  0.00    -0.374 OA
ATOM      7  C   UNL     1      -4.537  -8.204   1.420  0.00  0.00    +0.147 C 
ATOM      8  C   UNL     1      -3.846  -8.537   0.057  0.00  0.00    -0.014 C 
ENDROOT
BRANCH   1  15
ATOM      9  C   UNL     1      -1.270  -0.764   0.010  0.00  0.00    +0.076 A 
ATOM     10  C   UNL     1      -2.496  -0.097  -0.085  0.00  0.00    +0.048 A 
ATOM     11  C   UNL     1      -3.657  -0.848  -0.073  0.00  0.00    +0.116 A 
ATOM     12  N   UNL     1      -3.575  -2.166   0.027  0.00  0.00    -0.223 NA
ATOM     13  C   UNL     1      -2.400  -2.772   0.116  0.00  0.00    +0.216 A 
ATOM     14  N   UNL     1      -1.264  -2.092   0.103  0.00  0.00    -0.214 NA
ATOM     15  N   UNL     1      -2.359  -4.152   0.220  0.00  0.00    -0.306 N 
ATOM     16  H   UNL     1      -1.505  -4.608   0.286  0.00  0.00    +0.149 HD
BRANCH   9  22
ATOM     17  C   UNL     1      -0.017   1.390   0.010  0.00  0.00    +0.014 A 
ATOM     18  C   UNL     1       1.168   2.096   0.002  0.00  0.00    +0.050 A 
ATOM     19  C   UNL     1       2.381   1.424  -0.013  0.00  0.00    +0.166 A 
ATOM     20  C   UNL     1       2.406   0.029  -0.021  0.00  0.00    +0.167 A 
ATOM     21  C   UNL     1       1.221  -0.682  -0.014  0.00  0.00    +0.059 A 
ATOM     22  C   UNL     1       0.002  -0.004   0.002  0.00  0.00    +0.004 A 
ATOM     23  O   UNL     1       3.707  -0.383  -0.036  0.00  0.00    -0.453 OA
ATOM     24  C   UNL     1       4.470   0.766  -0.450  0.00  0.00    +0.466 C 
ATOM     25  O   UNL     1       3.666   1.882  -0.023  0.00  0.00    -0.453 OA
ENDBRANCH   9  22
ENDBRANCH   1  15
BRANCH   8  26
ATOM     26  N   UNL     1      -2.904  -9.654   0.208  0.00  0.00    +0.384 N 
ATOM     27  H   UNL     1      -2.344  -9.736  -0.627  0.00  0.00    -0.085 HD
ATOM     28  H   UNL     1      -2.304  -9.484   1.001  0.00  0.00    -0.085 HD
BRANCH  26  29
ATOM     29  C   UNL     1      -3.653 -10.900   0.420  0.00  0.00    -0.079 C 
BRANCH  29  30
ATOM     30  C   UNL     1      -2.672 -12.064   0.577  0.00  0.00    -0.028 C 
ATOM     31  C   UNL     1      -1.909 -12.268  -0.734  0.00  0.00    +0.002 C 
ATOM     32  C   UNL     1      -0.929 -13.432  -0.577  0.00  0.00    +0.000 C 
ATOM     33  C   UNL     1      -1.701 -14.707  -0.233  0.00  0.00    +0.000 C 
ATOM     34  C   UNL     1      -2.464 -14.503   1.078  0.00  0.00    +0.000 C 
ATOM     35  C   UNL     1      -3.445 -13.339   0.921  0.00  0.00    +0.002 C 
ENDBRANCH  29  30
ENDBRANCH  26  29
ENDBRANCH   8  26
TORSDOF 5
