REMARK  Name = ZINC27669623
REMARK  13 active torsions:
REMARK  status: ('A' for Active; 'I' for Inactive)
REMARK    1  A    between atoms: C_1  and  C_2
REMARK    2  A    between atoms: C_2  and  C_4
REMARK    3  A    between atoms: C_2  and  N_24
REMARK    4  A    between atoms: N_6  and  C_7
REMARK    5  A    between atoms: C_7  and  C_8
REMARK    6  A    between atoms: C_8  and  C_10
REMARK    7  A    between atoms: C_8  and  N_18
REMARK    8  A    between atoms: C_13  and  O_16
REMARK    9  A    between atoms: O_16  and  C_17
REMARK   10  A    between atoms: C_25  and  C_27
REMARK   11  A    between atoms: C_28  and  C_29
REMARK   12  A    between atoms: C_32  and  O_35
REMARK   13  A    between atoms: O_35  and  C_36
REMARK                            x       y       z     vdW  Elec       q    Type
REMARK                         _______ _______ _______ _____ _____    ______ ____
ROOT
ATOM      1  C   UNL     1      -1.477  -0.336   0.127  0.00  0.00    +0.233 C 
ATOM      2  O   UNL     1      -1.906  -0.887   1.118  0.00  0.00    -0.274 OA
ATOM      3  N   UNL     1      -2.284  -0.133  -0.934  0.00  0.00    -0.315 N 
ATOM      4  H   UNL     1      -1.895   0.367  -1.833  0.00  0.00    +0.149 HD
ENDROOT
BRANCH   1   6
ATOM      5  C   UNL     1       0.003   1.637  -0.134  0.00  0.00    +0.038 C 
ATOM      6  C   UNL     1      -0.042   0.122   0.080  0.00  0.00    +0.156 C 
BRANCH   6   7
ATOM      7  N   UNL     1       0.618  -0.212   1.345  0.00  0.00    -0.301 N 
ATOM      8  C   UNL     1       1.956  -0.376   1.383  0.00  0.00    +0.237 C 
ATOM      9  O   UNL     1       2.614  -0.247   0.368  0.00  0.00    -0.271 OA
ATOM     10  H   UNL     1       0.023  -0.328   2.262  0.00  0.00    +0.150 HD
BRANCH   8  11
ATOM     11  C   UNL     1       2.615  -0.709   2.646  0.00  0.00    +0.068 C 
ATOM     12  C   UNL     1       3.954  -0.874   2.684  0.00  0.00    +0.013 C 
BRANCH  12  13
ATOM     13  C   UNL     1       4.617  -1.209   3.953  0.00  0.00    -0.025 A 
ATOM     14  C   UNL     1       3.862  -1.352   5.123  0.00  0.00    +0.011 A 
ATOM     15  C   UNL     1       4.487  -1.671   6.308  0.00  0.00    +0.046 A 
ATOM     16  C   UNL     1       5.867  -1.840   6.345  0.00  0.00    +0.120 A 
ATOM     17  C   UNL     1       6.621  -1.693   5.187  0.00  0.00    +0.046 A 
ATOM     18  C   UNL     1       6.005  -1.380   3.996  0.00  0.00    +0.011 A 
BRANCH  16  19
ATOM     19  O   UNL     1       6.479  -2.149   7.517  0.00  0.00    -0.495 OA
ATOM     20  C   UNL     1       5.644  -2.285   8.668  0.00  0.00    +0.277 C 
ENDBRANCH  16  19
ENDBRANCH  12  13
ENDBRANCH   8  11
ENDBRANCH   6   7
ENDBRANCH   1   6
BRANCH   3  21
ATOM     21  C   UNL     1      -3.679  -0.579  -0.888  0.00  0.00    +0.093 C 
BRANCH  21  22
ATOM     22  C   UNL     1      -4.406  -0.107  -2.149  0.00  0.00    -0.020 C 
BRANCH  22  23
ATOM     23  N   UNL     1      -5.784  -0.616  -2.139  0.00  0.00    +0.385 N 
ATOM     24  C   UNL     1      -5.804  -2.081  -2.046  0.00  0.00    -0.078 C 
ATOM     25  C   UNL     1      -7.247  -2.564  -1.891  0.00  0.00    -0.019 C 
ATOM     26  C   UNL     1      -8.068  -2.100  -3.097  0.00  0.00    -0.004 C 
ATOM     27  C   UNL     1      -7.992  -0.574  -3.199  0.00  0.00    -0.019 C 
ATOM     28  C   UNL     1      -6.527  -0.148  -3.316  0.00  0.00    -0.078 C 
ATOM     29  H   UNL     1      -6.287  -0.216  -1.245  0.00  0.00    -0.081 HD
ENDBRANCH  22  23
BRANCH  22  30
ATOM     30  C   UNL     1      -4.427   1.399  -2.183  0.00  0.00    -0.059 A 
ATOM     31  C   UNL     1      -5.358   2.094  -1.433  0.00  0.00    +0.005 A 
ATOM     32  C   UNL     1      -5.375   3.475  -1.458  0.00  0.00    +0.046 A 
ATOM     33  C   UNL     1      -4.465   4.165  -2.245  0.00  0.00    +0.120 A 
ATOM     34  C   UNL     1      -3.535   3.466  -3.001  0.00  0.00    +0.046 A 
ATOM     35  C   UNL     1      -3.518   2.085  -2.968  0.00  0.00    +0.005 A 
BRANCH  33  36
ATOM     36  O   UNL     1      -4.484   5.523  -2.276  0.00  0.00    -0.495 OA
ATOM     37  C   UNL     1      -5.469   6.177  -1.473  0.00  0.00    +0.277 C 
ENDBRANCH  33  36
ENDBRANCH  22  30
ENDBRANCH  21  22
ENDBRANCH   3  21
TORSDOF 10
