REMARK  Name = ZINC61079878
REMARK  5 active torsions:
REMARK  status: ('A' for Active; 'I' for Inactive)
REMARK    1  A    between atoms: C_1  and  C_2
REMARK    2  A    between atoms: C_2  and  C_4
REMARK    3  A    between atoms: C_2  and  N_11
REMARK    4  A    between atoms: C_12  and  C_14
REMARK    5  A    between atoms: C_16  and  N_22
REMARK                            x       y       z     vdW  Elec       q    Type
REMARK                         _______ _______ _______ _____ _____    ______ ____
ROOT
ATOM      1  N   UNL     1       0.711  -0.489   1.189  0.00  0.00    -0.305 N 
ATOM      2  C   UNL     1       2.054  -0.600   1.174  0.00  0.00    +0.246 C 
ATOM      3  O   UNL     1       2.677  -0.297   0.175  0.00  0.00    -0.270 OA
ATOM      4  H   UNL     1       0.213  -0.731   1.986  0.00  0.00    +0.150 HD
ENDROOT
BRANCH   2   5
ATOM      5  C   UNL     1       2.768  -1.089   2.370  0.00  0.00    +0.053 A 
ATOM      6  C   UNL     1       2.053  -1.443   3.517  0.00  0.00    +0.039 A 
ATOM      7  C   UNL     1       2.729  -1.901   4.634  0.00  0.00    +0.061 A 
ATOM      8  C   UNL     1       4.117  -2.008   4.614  0.00  0.00    +0.145 A 
ATOM      9  C   UNL     1       4.826  -1.657   3.478  0.00  0.00    +0.056 A 
ATOM     10  C   UNL     1       4.160  -1.204   2.357  0.00  0.00    +0.033 A 
ATOM     11 BR   UNL     1       5.133  -0.734   0.805  0.00  0.00    -0.049 Br
ATOM     12  F   UNL     1       4.775  -2.456   5.706  0.00  0.00    -0.204 F 
BRANCH   7  13
ATOM     13  N   UNL     1       2.017  -2.257   5.785  0.00  0.00    -0.356 N 
ATOM     14  H   UNL     1       1.050  -2.182   5.799  0.00  0.00    +0.142 HD
ATOM     15  H   UNL     1       2.490  -2.578   6.568  0.00  0.00    +0.142 HD
ENDBRANCH   7  13
ENDBRANCH   2   5
BRANCH   1  17
ATOM     16  C   UNL     1      -0.019   1.526   0.010  0.00  0.00    +0.033 C 
ATOM     17  C   UNL     1       0.002  -0.004   0.002  0.00  0.00    +0.100 C 
BRANCH  17  18
ATOM     18  C   UNL     1      -1.412  -0.526   0.013  0.00  0.00    -0.027 A 
ATOM     19  C   UNL     1      -2.123  -0.571   1.198  0.00  0.00    +0.007 A 
ATOM     20  C   UNL     1      -3.419  -1.049   1.208  0.00  0.00    +0.020 A 
ATOM     21  C   UNL     1      -4.006  -1.483   0.032  0.00  0.00    +0.041 A 
ATOM     22  C   UNL     1      -3.294  -1.437  -1.153  0.00  0.00    +0.020 A 
ATOM     23  C   UNL     1      -1.999  -0.954  -1.163  0.00  0.00    +0.007 A 
ATOM     24 CL   UNL     1      -5.634  -2.084   0.045  0.00  0.00    -0.084 Cl
ENDBRANCH  17  18
ENDBRANCH   1  17
TORSDOF 4
