REMARK  Name = ZINC06578642
REMARK  5 active torsions:
REMARK  status: ('A' for Active; 'I' for Inactive)
REMARK    1  A    between atoms: C_1  and  S_2
REMARK    2  A    between atoms: S_2  and  N_5
REMARK    3  A    between atoms: C_14  and  C_16
REMARK    4  A    between atoms: N_18  and  C_19
REMARK    5  A    between atoms: C_20  and  C_27
REMARK                            x       y       z     vdW  Elec       q    Type
REMARK                         _______ _______ _______ _____ _____    ______ ____
ROOT
ATOM      1  C   UNL     1      -2.260   3.035  -2.270  0.00  0.00    +0.237 C 
ATOM      2  O   UNL     1      -3.197   2.296  -2.487  0.00  0.00    -0.274 OA
ATOM      3  N   UNL     1      -1.990   4.047  -3.118  0.00  0.00    -0.278 N 
ATOM      4  H   UNL     1      -1.241   4.638  -2.945  0.00  0.00    +0.155 HD
ENDROOT
BRANCH   1  14
ATOM      5  N   UNL     1      -0.854   1.454  -1.060  0.00  0.00    -0.165 NA
ATOM      6  C   UNL     1       0.084   1.097   0.010  0.00  0.00    +0.145 C 
ATOM      7  C   UNL     1      -0.439   1.602   1.331  0.00  0.00    -0.028 A 
ATOM      8  C   UNL     1       0.193   1.162   2.487  0.00  0.00    +0.005 A 
ATOM      9  C   UNL     1      -0.233   1.597   3.726  0.00  0.00    +0.000 A 
ATOM     10  C   UNL     1      -1.295   2.478   3.816  0.00  0.00    +0.000 A 
ATOM     11  C   UNL     1      -1.924   2.912   2.668  0.00  0.00    +0.004 A 
ATOM     12  C   UNL     1      -1.500   2.474   1.419  0.00  0.00    -0.041 A 
ATOM     13  C   UNL     1      -2.242   2.983   0.212  0.00  0.00    +0.065 C 
ATOM     14  C   UNL     1      -1.399   2.822  -1.052  0.00  0.00    +0.170 C 
BRANCH   5  16
ATOM     15  C   UNL     1      -2.889  -0.288  -1.694  0.00  0.00    +0.215 C 
ATOM     16  S   UNL     1      -1.282   0.363  -2.230  0.00  0.00    +0.030 S 
ATOM     17  O   UNL     1      -1.438   1.139  -3.410  0.00  0.00    -0.158 OA
ATOM     18  O   UNL     1      -0.293  -0.654  -2.157  0.00  0.00    -0.158 OA
ENDBRANCH   5  16
ENDBRANCH   1  14
BRANCH   3  19
ATOM     19  C   UNL     1      -2.783   4.243  -4.239  0.00  0.00    +0.084 A 
ATOM     20  C   UNL     1      -2.668   5.220  -5.213  0.00  0.00    +0.068 A 
ATOM     21  C   UNL     1      -3.640   5.203  -6.306  0.00  0.00    -0.023 A 
ATOM     22  C   UNL     1      -4.563   4.227  -6.235  0.00  0.00    -0.004 A 
ATOM     23  S   UNL     1      -4.159   3.330  -4.756  0.00  0.00    -0.077 S 
ATOM     24  C   UNL     1      -5.531   4.281  -7.385  0.00  0.00    +0.043 C 
ATOM     25  C   UNL     1      -5.356   5.698  -7.975  0.00  0.00    +0.010 C 
ATOM     26  C   UNL     1      -3.909   6.033  -7.562  0.00  0.00    +0.037 C 
BRANCH  20  27
ATOM     27  C   UNL     1      -1.609   6.232  -5.154  0.00  0.00    +0.244 C 
ATOM     28  O   UNL     1      -0.536   6.022  -5.687  0.00  0.00    -0.270 OA
ATOM     29  N   UNL     1      -1.825   7.395  -4.508  0.00  0.00    -0.325 N 
ATOM     30  H   UNL     1      -2.680   7.563  -4.083  0.00  0.00    +0.145 HD
ATOM     31  H   UNL     1      -1.124   8.065  -4.469  0.00  0.00    +0.145 HD
ENDBRANCH  20  27
ENDBRANCH   3  19
TORSDOF 4
