REMARK  Name = ZINC59490046
REMARK  11 active torsions:
REMARK  status: ('A' for Active; 'I' for Inactive)
REMARK    1  A    between atoms: C_1  and  C_2
REMARK    2  A    between atoms: C_2  and  N_3
REMARK    3  A    between atoms: N_3  and  C_4
REMARK    4  A    between atoms: N_3  and  C_6
REMARK    5  A    between atoms: C_4  and  C_5
REMARK    6  A    between atoms: C_9  and  N_35
REMARK    7  A    between atoms: C_11  and  C_12
REMARK    8  A    between atoms: N_13  and  C_14
REMARK    9  A    between atoms: C_17  and  N_29
REMARK   10  A    between atoms: C_18  and  S_20
REMARK   11  A    between atoms: S_20  and  N_23
REMARK                            x       y       z     vdW  Elec       q    Type
REMARK                         _______ _______ _______ _____ _____    ______ ____
ROOT
ATOM      1  C   UNL     1       0.453  -3.866  -1.152  0.00  0.00    +0.066 A 
ATOM      2  C   UNL     1       1.223  -4.843  -0.516  0.00  0.00    +0.029 A 
ATOM      3  C   UNL     1       1.494  -6.031  -1.159  0.00  0.00    +0.027 A 
ATOM      4  C   UNL     1       1.003  -6.258  -2.440  0.00  0.00    +0.056 A 
ATOM      5  C   UNL     1       0.237  -5.287  -3.076  0.00  0.00    +0.128 A 
ATOM      6  C   UNL     1      -0.043  -4.099  -2.437  0.00  0.00    +0.058 A 
ENDROOT
BRANCH   4   7
ATOM      7  N   UNL     1       1.280  -7.462  -3.090  0.00  0.00    -0.328 N 
ATOM      8  C   UNL     1       2.542  -7.646  -3.819  0.00  0.00    +0.105 C 
ATOM      9  C   UNL     1       3.229  -8.915  -3.304  0.00  0.00    +0.019 C 
ATOM     10  C   UNL     1       2.260 -10.095  -3.415  0.00  0.00    +0.003 C 
ATOM     11  C   UNL     1       1.027  -9.828  -2.550  0.00  0.00    +0.019 C 
ATOM     12  C   UNL     1       0.318  -8.572  -3.051  0.00  0.00    +0.105 C 
ENDBRANCH   4   7
BRANCH   5  13
ATOM     13  S   UNL     1      -0.383  -5.580  -4.700  0.00  0.00    +0.063 S 
ATOM     14  O   UNL     1       0.730  -5.963  -5.496  0.00  0.00    -0.153 OA
ATOM     15  O   UNL     1      -1.534  -6.400  -4.554  0.00  0.00    -0.153 OA
BRANCH  13  16
ATOM     16  N   UNL     1      -0.909  -4.126  -5.292  0.00  0.00    -0.172 NA
ATOM     17  C   UNL     1      -2.321  -3.727  -5.176  0.00  0.00    +0.137 C 
ATOM     18  C   UNL     1      -2.378  -2.318  -4.577  0.00  0.00    +0.177 C 
ATOM     19  O   UNL     1      -1.533  -1.449  -5.335  0.00  0.00    -0.377 OA
ATOM     20  C   UNL     1      -0.150  -1.810  -5.312  0.00  0.00    +0.177 C 
ATOM     21  C   UNL     1       0.022  -3.191  -5.944  0.00  0.00    +0.137 C 
ENDBRANCH  13  16
ENDBRANCH   5  13
BRANCH   1  23
ATOM     22  C   UNL     1      -0.321  -2.694   0.688  0.00  0.00    +0.121 C 
ATOM     23  N   UNL     1       0.181  -2.685  -0.516  0.00  0.00    -0.255 NA
BRANCH  22  29
ATOM     24  C   UNL     1      -1.341  -1.441   2.586  0.00  0.00    +0.038 A 
ATOM     25  C   UNL     1      -1.699  -0.241   3.185  0.00  0.00    +0.026 A 
ATOM     26  C   UNL     1      -1.440   0.955   2.546  0.00  0.00    +0.034 A 
ATOM     27  C   UNL     1      -0.824   0.970   1.305  0.00  0.00    +0.127 A 
ATOM     28  C   UNL     1      -0.461  -0.211   0.694  0.00  0.00    +0.044 A 
ATOM     29  C   UNL     1      -0.710  -1.431   1.330  0.00  0.00    +0.016 A 
BRANCH  27  30
ATOM     30  N   UNL     1      -0.553   2.260   0.632  0.00  0.00    +0.056 N 
ATOM     31  O   UNL     1      -0.870   3.298   1.165  0.00  0.00    -0.126 OA
ATOM     32  O   UNL     1      -0.015   2.276  -0.451  0.00  0.00    -0.126 OA
ENDBRANCH  27  30
BRANCH  24  33
ATOM     33  N   UNL     1      -1.601  -2.647   3.228  0.00  0.00    -0.330 N 
BRANCH  33  35
ATOM     34  C   UNL     1      -3.954  -2.966   3.815  0.00  0.00    +0.024 C 
ATOM     35  C   UNL     1      -2.811  -3.406   2.899  0.00  0.00    +0.102 C 
ENDBRANCH  33  35
BRANCH  33  36
ATOM     36  C   UNL     1      -0.666  -3.159   4.232  0.00  0.00    +0.102 C 
ATOM     37  C   UNL     1       0.303  -4.142   3.573  0.00  0.00    +0.024 C 
ENDBRANCH  33  36
ENDBRANCH  24  33
ENDBRANCH  22  29
ENDBRANCH   1  23
TORSDOF 9
