REMARK  Name = ZINC63556729
REMARK  4 active torsions:
REMARK  status: ('A' for Active; 'I' for Inactive)
REMARK    1  A    between atoms: C_7  and  C_10
REMARK    2  A    between atoms: C_11  and  C_12
REMARK    3  A    between atoms: C_12  and  C_14
REMARK    4  A    between atoms: C_18  and  N_20
REMARK                            x       y       z     vdW  Elec       q    Type
REMARK                         _______ _______ _______ _____ _____    ______ ____
ROOT
ATOM      1  C   UNL     1      -0.366  -5.348  -0.023  0.00  0.00    +0.186 C 
ATOM      2  O   UNL     1      -1.521  -4.960  -0.009  0.00  0.00    -0.287 OA
ENDROOT
BRANCH   1   3
ATOM      3  C   UNL     1      -0.072  -6.798  -0.034  0.00  0.00    +0.023 A 
ATOM      4  C   UNL     1       1.251  -7.245  -0.044  0.00  0.00    +0.012 A 
ATOM      5  C   UNL     1       1.522  -8.598  -0.054  0.00  0.00    +0.003 A 
ATOM      6  C   UNL     1       0.487  -9.515  -0.054  0.00  0.00    +0.023 A 
ATOM      7  C   UNL     1      -0.833  -9.080  -0.044  0.00  0.00    +0.040 A 
ATOM      8  C   UNL     1      -1.116  -7.723  -0.029  0.00  0.00    +0.035 A 
BRANCH   7   9
ATOM      9  N   UNL     1      -1.877 -10.012  -0.045  0.00  0.00    -0.234 N 
ATOM     10  C   UNL     1      -1.732 -11.482  -0.050  0.00  0.00    +0.158 C 
ATOM     11  C   UNL     1      -3.155 -11.952   0.334  0.00  0.00    +0.253 C 
ATOM     12  O   UNL     1      -3.963 -10.832  -0.077  0.00  0.00    -0.448 OA
ATOM     13  C   UNL     1      -3.193  -9.730  -0.036  0.00  0.00    +0.407 C 
ATOM     14  O   UNL     1      -3.638  -8.600   0.001  0.00  0.00    -0.226 OA
ENDBRANCH   7   9
ENDBRANCH   1   3
BRANCH   1  16
ATOM     15  C   UNL     1       0.423  -3.082  -0.018  0.00  0.00    +0.013 C 
ATOM     16  C   UNL     1       0.692  -4.414  -0.029  0.00  0.00    +0.052 C 
BRANCH  15  23
ATOM     17  C   UNL     1      -0.017   1.368   0.010  0.00  0.00    +0.001 A 
ATOM     18  C   UNL     1       1.161   2.103   0.002  0.00  0.00    +0.001 A 
ATOM     19  C   UNL     1       2.376   1.446  -0.013  0.00  0.00    +0.015 A 
ATOM     20  C   UNL     1       2.405   0.067  -0.020  0.00  0.00    +0.020 A 
ATOM     21  C   UNL     1       1.226  -0.700  -0.013  0.00  0.00    -0.004 A 
ATOM     22  C   UNL     1       0.002  -0.004   0.002  0.00  0.00    +0.009 A 
ATOM     23  C   UNL     1       1.486  -2.143  -0.024  0.00  0.00    -0.010 A 
ATOM     24  C   UNL     1       2.796  -2.552  -0.039  0.00  0.00    +0.054 A 
ATOM     25  S   UNL     1       3.701  -1.140  -0.040  0.00  0.00    -0.096 S 
ENDBRANCH  15  23
ENDBRANCH   1  16
TORSDOF 4
