REMARK  Name = ZINC13499086
REMARK  13 active torsions:
REMARK  status: ('A' for Active; 'I' for Inactive)
REMARK    1  A    between atoms: C_1  and  C_2
REMARK    2  A    between atoms: C_4  and  C_39
REMARK    3  A    between atoms: C_7  and  C_14
REMARK    4  A    between atoms: C_14  and  N_15
REMARK    5  A    between atoms: N_15  and  C_16
REMARK    6  A    between atoms: N_15  and  C_23
REMARK    7  A    between atoms: C_16  and  C_17
REMARK    8  A    between atoms: C_23  and  C_25
REMARK    9  A    between atoms: C_23  and  C_36
REMARK   10  A    between atoms: N_29  and  C_30
REMARK   11  A    between atoms: C_30  and  C_31
REMARK   12  A    between atoms: C_36  and  C_37
REMARK   13  A    between atoms: C_36  and  C_38
REMARK                            x       y       z     vdW  Elec       q    Type
REMARK                         _______ _______ _______ _____ _____    ______ ____
ROOT
ATOM      1  N   UNL     1       1.323  -5.112   0.920  0.00  0.00    -0.284 NA
ENDROOT
BRANCH   1   2
ATOM      2  C   UNL     1       0.010  -4.587   0.522  0.00  0.00    +0.126 C 
BRANCH   2   9
ATOM      3  C   UNL     1       0.843   2.669  -2.684  0.00  0.00    +0.044 C 
ATOM      4  C   UNL     1       0.703   1.219  -2.297  0.00  0.00    -0.048 A 
ATOM      5  C   UNL     1       0.738   0.240  -3.281  0.00  0.00    +0.007 A 
ATOM      6  C   UNL     1       0.613  -1.080  -2.952  0.00  0.00    -0.041 A 
ATOM      7  C   UNL     1       0.448  -1.448  -1.613  0.00  0.00    +0.002 A 
ATOM      8  C   UNL     1       0.311  -2.853  -1.225  0.00  0.00    +0.020 A 
ATOM      9  C   UNL     1       0.154  -3.151   0.089  0.00  0.00    +0.032 A 
ATOM     10  C   UNL     1       0.125  -2.119   1.052  0.00  0.00    +0.254 A 
ATOM     11  O   UNL     1      -0.017  -2.409   2.228  0.00  0.00    -0.268 OA
ATOM     12  N   UNL     1       0.250  -0.826   0.706  0.00  0.00    -0.322 N 
ATOM     13  H   UNL     1       0.226  -0.143   1.393  0.00  0.00    +0.169 HD
ATOM     14  C   UNL     1       0.412  -0.458  -0.613  0.00  0.00    +0.050 A 
ATOM     15  C   UNL     1       0.547   0.879  -0.971  0.00  0.00    +0.029 A 
ATOM     16  C   UNL     1       0.651  -2.135  -4.027  0.00  0.00    +0.044 C 
ENDBRANCH   2   9
ENDBRANCH   1   2
BRANCH   1  17
ATOM     17  C   UNL     1       2.169  -5.359  -0.256  0.00  0.00    +0.120 C 
BRANCH  17  18
ATOM     18  C   UNL     1       3.606  -5.496   0.180  0.00  0.00    -0.033 A 
ATOM     19  C   UNL     1       4.224  -4.462   0.858  0.00  0.00    +0.005 A 
ATOM     20  C   UNL     1       5.541  -4.588   1.257  0.00  0.00    +0.000 A 
ATOM     21  C   UNL     1       6.240  -5.747   0.979  0.00  0.00    +0.000 A 
ATOM     22  C   UNL     1       5.622  -6.782   0.301  0.00  0.00    +0.000 A 
ATOM     23  C   UNL     1       4.303  -6.657  -0.094  0.00  0.00    +0.005 A 
ENDBRANCH  17  18
ENDBRANCH   1  17
BRANCH   1  24
ATOM     24  C   UNL     1       1.179  -6.330   1.730  0.00  0.00    +0.130 C 
BRANCH  24  25
ATOM     25  C   UNL     1       0.842  -7.493   0.833  0.00  0.00    +0.169 A 
ATOM     26  N   UNL     1       1.609  -8.016  -0.092  0.00  0.00    -0.112 NA
ATOM     27  N   UNL     1       0.966  -8.990  -0.638  0.00  0.00    -0.023 NA
ATOM     28  N   UNL     1      -0.191  -9.102  -0.085  0.00  0.00    -0.043 NA
ATOM     29  N   UNL     1      -0.303  -8.200   0.831  0.00  0.00    -0.220 N 
BRANCH  29  30
ATOM     30  C   UNL     1      -1.461  -7.983   1.702  0.00  0.00    +0.221 C 
BRANCH  30  31
ATOM     31  C   UNL     1      -2.485  -7.146   0.979  0.00  0.00    +0.126 A 
ATOM     32  C   UNL     1      -3.486  -7.615   0.213  0.00  0.00    +0.046 A 
ATOM     33  C   UNL     1      -4.197  -6.491  -0.265  0.00  0.00    +0.041 A 
ATOM     34  C   UNL     1      -3.588  -5.402   0.236  0.00  0.00    +0.195 A 
ATOM     35  O   UNL     1      -2.554  -5.805   0.993  0.00  0.00    -0.466 OA
ENDBRANCH  30  31
ENDBRANCH  29  30
ENDBRANCH  24  25
BRANCH  24  36
ATOM     36  C   UNL     1       2.493  -6.614   2.461  0.00  0.00    +0.008 C 
ATOM     37  C   UNL     1       2.846  -5.424   3.356  0.00  0.00    +0.009 C 
ATOM     38  C   UNL     1       2.337  -7.870   3.320  0.00  0.00    +0.009 C 
ENDBRANCH  24  36
ENDBRANCH   1  24
TORSDOF 9
