REMARK  Name = ZINC45991792
REMARK  10 active torsions:
REMARK  status: ('A' for Active; 'I' for Inactive)
REMARK    1  A    between atoms: C_1  and  C_2
REMARK    2  A    between atoms: C_4  and  C_32
REMARK    3  A    between atoms: C_6  and  N_8
REMARK    4  A    between atoms: C_9  and  C_11
REMARK    5  A    between atoms: C_11  and  C_13
REMARK    6  A    between atoms: C_11  and  O_14
REMARK    7  A    between atoms: O_14  and  C_15
REMARK    8  A    between atoms: C_17  and  C_31
REMARK    9  A    between atoms: C_19  and  C_30
REMARK   10  A    between atoms: N_21  and  C_24
REMARK                            x       y       z     vdW  Elec       q    Type
REMARK                         _______ _______ _______ _____ _____    ______ ____
ROOT
ATOM      1  C   UNL     1       1.138  -2.384   6.942  0.00  0.00    +0.218 A 
ATOM      2  C   UNL     1       1.341  -1.516   8.015  0.00  0.00    +0.071 A 
ATOM      3  C   UNL     1       2.065  -1.936   9.096  0.00  0.00    -0.033 A 
ATOM      4  C   UNL     1       2.581  -3.240   9.082  0.00  0.00    +0.045 A 
ATOM      5  C   UNL     1       3.378  -4.027  10.017  0.00  0.00    +0.070 A 
ATOM      6  N   UNL     1       3.573  -5.198   9.482  0.00  0.00    -0.169 NA
ATOM      7  N   UNL     1       2.955  -5.263   8.230  0.00  0.00    -0.214 N 
ATOM      8  C   UNL     1       2.341  -4.066   7.968  0.00  0.00    +0.167 A 
ATOM      9  N   UNL     1       1.626  -3.609   6.946  0.00  0.00    -0.193 NA
ATOM     10  C   UNL     1       3.884  -3.567  11.360  0.00  0.00    +0.068 C 
ATOM     11  C   UNL     1       2.303  -1.023  10.271  0.00  0.00    +0.045 C 
ENDROOT
BRANCH   7  12
ATOM     12  C   UNL     1       2.963  -6.374   7.377  0.00  0.00    +0.068 A 
ATOM     13  C   UNL     1       1.854  -6.655   6.590  0.00  0.00    +0.028 A 
ATOM     14  C   UNL     1       1.865  -7.752   5.750  0.00  0.00    +0.002 A 
ATOM     15  C   UNL     1       2.979  -8.570   5.694  0.00  0.00    +0.000 A 
ATOM     16  C   UNL     1       4.085  -8.293   6.477  0.00  0.00    +0.002 A 
ATOM     17  C   UNL     1       4.082  -7.194   7.314  0.00  0.00    +0.028 A 
ENDBRANCH   7  12
BRANCH   1  18
ATOM     18  O   UNL     1       0.418  -1.960   5.873  0.00  0.00    -0.464 OA
BRANCH  18  19
ATOM     19  C   UNL     1       0.235  -2.891   4.804  0.00  0.00    +0.257 C 
ATOM     20  C   UNL     1      -1.039  -3.702   5.047  0.00  0.00    +0.062 C 
BRANCH  19  22
ATOM     21  N   UNL     1       0.035  -2.821   2.340  0.00  0.00    -0.282 N 
ATOM     22  C   UNL     1       0.113  -2.142   3.502  0.00  0.00    +0.258 C 
ATOM     23  O   UNL     1       0.086  -0.930   3.499  0.00  0.00    -0.271 OA
ATOM     24  H   UNL     1      -0.019  -3.789   2.346  0.00  0.00    +0.155 HD
BRANCH  21  30
ATOM     25  C   UNL     1      -1.480  -2.464  -2.324  0.00  0.00    +0.044 C 
ATOM     26  C   UNL     1      -0.694  -1.932  -1.153  0.00  0.00    -0.048 A 
ATOM     27  C   UNL     1       0.025  -0.757  -1.280  0.00  0.00    +0.006 A 
ATOM     28  C   UNL     1       0.747  -0.266  -0.208  0.00  0.00    -0.048 A 
ATOM     29  C   UNL     1       0.752  -0.948   0.994  0.00  0.00    +0.026 A 
ATOM     30  C   UNL     1       0.031  -2.127   1.124  0.00  0.00    +0.034 A 
ATOM     31  C   UNL     1      -0.697  -2.615   0.047  0.00  0.00    +0.026 A 
ATOM     32  C   UNL     1       1.529   1.014  -0.350  0.00  0.00    +0.044 C 
ENDBRANCH  21  30
ENDBRANCH  19  22
ENDBRANCH  18  19
ENDBRANCH   1  18
TORSDOF 5
