REMARK  Name = ZINC59286866
REMARK  11 active torsions:
REMARK  status: ('A' for Active; 'I' for Inactive)
REMARK    1  A    between atoms: C_1  and  C_2
REMARK    2  A    between atoms: C_5  and  C_37
REMARK    3  A    between atoms: N_8  and  C_10
REMARK    4  A    between atoms: C_10  and  C_11
REMARK    5  A    between atoms: C_16  and  C_17
REMARK    6  A    between atoms: C_17  and  N_18
REMARK    7  A    between atoms: C_19  and  C_21
REMARK    8  A    between atoms: C_21  and  C_22
REMARK    9  A    between atoms: C_22  and  C_23
REMARK   10  A    between atoms: C_23  and  N_24
REMARK   11  A    between atoms: C_28  and  N_34
REMARK                            x       y       z     vdW  Elec       q    Type
REMARK                         _______ _______ _______ _____ _____    ______ ____
ROOT
ATOM      1  N   UNL     1       1.148  -2.905   4.014  0.00  0.00    -0.311 N 
ATOM      2  C   UNL     1       0.815  -4.160   3.653  0.00  0.00    +0.213 C 
ATOM      3  O   UNL     1      -0.072  -4.344   2.847  0.00  0.00    -0.276 OA
ATOM      4  H   UNL     1       1.858  -2.758   4.659  0.00  0.00    +0.149 HD
ENDROOT
BRANCH   1   5
ATOM      5  C   UNL     1       0.437  -1.763   3.434  0.00  0.00    +0.139 C 
BRANCH   5  11
ATOM      6  C   UNL     1       2.218  -0.014   3.254  0.00  0.00    -0.059 A 
ATOM      7  C   UNL     1       2.810   1.164   3.671  0.00  0.00    +0.002 A 
ATOM      8  C   UNL     1       2.272   1.870   4.730  0.00  0.00    +0.000 A 
ATOM      9  C   UNL     1       1.142   1.399   5.372  0.00  0.00    +0.000 A 
ATOM     10  C   UNL     1       0.550   0.222   4.955  0.00  0.00    +0.005 A 
ATOM     11  C   UNL     1       1.086  -0.483   3.892  0.00  0.00    -0.029 A 
BRANCH   6  12
ATOM     12  C   UNL     1       2.805  -0.784   2.099  0.00  0.00    -0.043 C 
BRANCH  12  18
ATOM     13  C   UNL     1       4.806  -3.211   4.912  0.00  0.00    +0.005 C 
ATOM     14  C   UNL     1       5.654  -2.416   3.918  0.00  0.00    -0.031 C 
ATOM     15  C   UNL     1       6.139  -3.344   2.801  0.00  0.00    +0.003 C 
ATOM     16  C   UNL     1       4.926  -3.880   2.034  0.00  0.00    -0.031 C 
ATOM     17  C   UNL     1       4.109  -2.703   1.496  0.00  0.00    -0.075 C 
ATOM     18  N   UNL     1       3.653  -1.868   2.614  0.00  0.00    +0.383 N 
ATOM     19  C   UNL     1       4.811  -1.292   3.311  0.00  0.00    -0.075 C 
ATOM     20  C   UNL     1       5.402  -4.748   0.867  0.00  0.00    +0.005 C 
ATOM     21  H   UNL     1       3.120  -2.432   3.258  0.00  0.00    -0.081 HD
ENDBRANCH  12  18
ENDBRANCH   6  12
ENDBRANCH   5  11
ENDBRANCH   1   5
BRANCH   2  22
ATOM     22  C   UNL     1       1.546  -5.335   4.250  0.00  0.00    +0.097 C 
BRANCH  22  23
ATOM     23  C   UNL     1       0.979  -6.635   3.675  0.00  0.00    +0.031 C 
BRANCH  23  24
ATOM     24  C   UNL     1       1.721  -7.827   4.281  0.00  0.00    +0.129 C 
BRANCH  24  25
ATOM     25  N   UNL     1       1.178  -9.072   3.731  0.00  0.00    -0.274 N 
ATOM     26  C   UNL     1       0.117  -9.811   4.254  0.00  0.00    +0.090 A 
ATOM     27  C   UNL     1      -0.705  -9.647   5.358  0.00  0.00    +0.032 A 
ATOM     28  C   UNL     1      -1.694 -10.573   5.622  0.00  0.00    +0.035 A 
ATOM     29  C   UNL     1      -1.866 -11.665   4.788  0.00  0.00    +0.130 A 
ATOM     30  C   UNL     1      -1.051 -11.835   3.686  0.00  0.00    +0.081 A 
ATOM     31  C   UNL     1      -0.055 -10.911   3.413  0.00  0.00    +0.159 A 
ATOM     32  O   UNL     1       0.874 -10.816   2.431  0.00  0.00    -0.407 OA
ATOM     33  C   UNL     1       1.607  -9.708   2.623  0.00  0.00    +0.421 A 
ATOM     34  O   UNL     1       2.519  -9.337   1.909  0.00  0.00    -0.223 OA
BRANCH  29  35
ATOM     35  N   UNL     1      -2.928 -12.654   5.079  0.00  0.00    +0.057 N 
ATOM     36  O   UNL     1      -3.643 -12.507   6.043  0.00  0.00    -0.126 OA
ATOM     37  O   UNL     1      -3.081 -13.608   4.352  0.00  0.00    -0.126 OA
ENDBRANCH  29  35
ENDBRANCH  24  25
ENDBRANCH  23  24
ENDBRANCH  22  23
ENDBRANCH   2  22
TORSDOF 9
