REMARK  Name = ZINC39505922
REMARK  4 active torsions:
REMARK  status: ('A' for Active; 'I' for Inactive)
REMARK    1  A    between atoms: C_4  and  O_26
REMARK    2  A    between atoms: C_5  and  C_7
REMARK    3  A    between atoms: C_14  and  C_19
REMARK    4  A    between atoms: C_24  and  O_25
REMARK                            x       y       z     vdW  Elec       q    Type
REMARK                         _______ _______ _______ _____ _____    ______ ____
ROOT
ATOM      1  C   UNL     1       1.227  -2.187  -0.022  0.00  0.00    +0.024 C 
ATOM      2  C   UNL     1       0.414  -2.739  -1.219  0.00  0.00    +0.010 C 
ATOM      3  C   UNL     1       0.004  -4.160  -0.776  0.00  0.00    +0.024 C 
ATOM      4  C   UNL     1       0.034  -4.160   0.758  0.00  0.00    +0.038 C 
ATOM      5  C   UNL     1       0.468  -2.753   1.206  0.00  0.00    +0.032 C 
ATOM      6  C   UNL     1      -1.359  -4.490   1.319  0.00  0.00    +0.033 C 
ATOM      7  C   UNL     1      -1.245  -6.000   1.662  0.00  0.00    +0.040 C 
ATOM      8  C   UNL     1       0.227  -6.104   2.135  0.00  0.00    +0.111 C 
ATOM      9  N   UNL     1       0.973  -5.171   1.261  0.00  0.00    -0.213 NA
ATOM     10 CL   UNL     1       2.266  -4.439   2.107  0.00  0.00    -0.021 Cl
ENDROOT
BRANCH   1  15
ATOM     11  C   UNL     1      -0.017   1.378   0.010  0.00  0.00    +0.001 A 
ATOM     12  C   UNL     1       1.170   2.088   0.002  0.00  0.00    +0.004 A 
ATOM     13  C   UNL     1       2.377   1.417  -0.013  0.00  0.00    +0.046 A 
ATOM     14  C   UNL     1       2.399   0.030  -0.021  0.00  0.00    +0.120 A 
ATOM     15  C   UNL     1       1.207  -0.680  -0.013  0.00  0.00    -0.003 A 
ATOM     16  C   UNL     1       0.002  -0.004   0.002  0.00  0.00    +0.007 A 
BRANCH  14  17
ATOM     17  O   UNL     1       3.586  -0.632  -0.037  0.00  0.00    -0.506 OA
ATOM     18  H   UNL     1       3.938  -0.829   0.842  0.00  0.00    +0.292 HD
ENDBRANCH  14  17
ENDBRANCH   1  15
BRANCH   7  19
ATOM     19  C   UNL     1      -2.196  -6.375   2.769  0.00  0.00    -0.002 A 
ATOM     20  C   UNL     1      -2.097  -5.762   4.003  0.00  0.00    +0.007 A 
ATOM     21  C   UNL     1      -2.969  -6.106   5.019  0.00  0.00    +0.001 A 
ATOM     22  C   UNL     1      -3.943  -7.064   4.803  0.00  0.00    +0.004 A 
ATOM     23  C   UNL     1      -4.046  -7.680   3.571  0.00  0.00    +0.046 A 
ATOM     24  C   UNL     1      -3.175  -7.332   2.548  0.00  0.00    +0.120 A 
BRANCH  24  25
ATOM     25  O   UNL     1      -3.279  -7.932   1.333  0.00  0.00    -0.506 OA
ATOM     26  H   UNL     1      -2.751  -8.738   1.246  0.00  0.00    +0.292 HD
ENDBRANCH  24  25
ENDBRANCH   7  19
TORSDOF 4
