REMARK  Name = ZINC31052310
REMARK  9 active torsions:
REMARK  status: ('A' for Active; 'I' for Inactive)
REMARK    1  A    between atoms: C_3  and  C_8
REMARK    2  A    between atoms: C_10  and  C_13
REMARK    3  A    between atoms: C_13  and  N_14
REMARK    4  A    between atoms: C_18  and  C_21
REMARK    5  A    between atoms: N_23  and  C_24
REMARK    6  A    between atoms: C_24  and  C_25
REMARK    7  A    between atoms: C_25  and  S_26
REMARK    8  A    between atoms: S_26  and  C_27
REMARK    9  A    between atoms: C_27  and  C_28
REMARK                            x       y       z     vdW  Elec       q    Type
REMARK                         _______ _______ _______ _____ _____    ______ ____
ROOT
ATOM      1  N   UNL     1      -1.602  -1.204  -1.374  0.00  0.00    +0.386 N 
ATOM      2  C   UNL     1      -2.082   0.009  -2.046  0.00  0.00    -0.078 C 
ATOM      3  C   UNL     1      -2.355  -0.296  -3.520  0.00  0.00    -0.018 C 
ATOM      4  C   UNL     1      -3.405  -1.407  -3.620  0.00  0.00    +0.009 C 
ATOM      5  C   UNL     1      -2.900  -2.644  -2.871  0.00  0.00    +0.058 C 
ATOM      6  C   UNL     1      -2.611  -2.270  -1.415  0.00  0.00    -0.065 C 
ATOM      7  H   UNL     1      -0.715  -1.561  -1.919  0.00  0.00    -0.081 HD
ENDROOT
BRANCH   5   8
ATOM      8  C   UNL     1      -3.952  -3.722  -2.914  0.00  0.00    +0.214 C 
ATOM      9  O   UNL     1      -4.425  -4.149  -1.882  0.00  0.00    -0.276 OA
ATOM     10  N   UNL     1      -4.368  -4.211  -4.099  0.00  0.00    -0.314 N 
ATOM     11  H   UNL     1      -3.939  -3.823  -5.035  0.00  0.00    +0.149 HD
BRANCH  10  12
ATOM     12  C   UNL     1      -5.391  -5.259  -4.141  0.00  0.00    +0.115 C 
BRANCH  12  13
ATOM     13  C   UNL     1      -5.679  -5.632  -5.597  0.00  0.00    +0.088 C 
BRANCH  13  14
ATOM     14  S   UNL     1      -6.945  -6.930  -5.649  0.00  0.00    -0.154 S 
BRANCH  14  15
ATOM     15  C   UNL     1      -7.169  -7.255  -7.420  0.00  0.00    +0.108 C 
BRANCH  15  16
ATOM     16  C   UNL     1      -8.209  -8.329  -7.606  0.00  0.00    +0.016 A 
ATOM     17  C   UNL     1      -9.544  -7.985  -7.737  0.00  0.00    +0.129 A 
ATOM     18  C   UNL     1     -10.499  -8.973  -7.908  0.00  0.00    +0.039 A 
ATOM     19  C   UNL     1     -10.119 -10.301  -7.948  0.00  0.00    +0.004 A 
ATOM     20  C   UNL     1      -8.787 -10.644  -7.818  0.00  0.00    +0.020 A 
ATOM     21  C   UNL     1      -7.831  -9.658  -7.652  0.00  0.00    +0.048 A 
ATOM     22 CL   UNL     1      -6.157 -10.090  -7.495  0.00  0.00    -0.083 Cl
ATOM     23  F   UNL     1      -9.914  -6.686  -7.697  0.00  0.00    -0.205 F 
ENDBRANCH  15  16
ENDBRANCH  14  15
ENDBRANCH  13  14
ENDBRANCH  12  13
ENDBRANCH  10  12
ENDBRANCH   5   8
BRANCH   1  24
ATOM     24  C   UNL     1      -1.198  -0.916   0.009  0.00  0.00    +0.022 C 
BRANCH  24  27
ATOM     25  C   UNL     1       1.282   1.686  -0.001  0.00  0.00    +0.202 A 
ATOM     26  N   UNL     1      -0.016   1.306   0.009  0.00  0.00    -0.193 NA
ATOM     27  C   UNL     1       0.002  -0.004   0.002  0.00  0.00    +0.211 A 
ATOM     28  O   UNL     1       1.285  -0.380  -0.012  0.00  0.00    -0.340 OA
ATOM     29  N   UNL     1       2.004   0.597  -0.014  0.00  0.00    -0.056 NA
BRANCH  25  32
ATOM     30  C   UNL     1       1.377   5.446   0.016  0.00  0.00    +0.002 A 
ATOM     31  C   UNL     1       0.898   4.150   0.009  0.00  0.00    +0.012 A 
ATOM     32  C   UNL     1       1.791   3.081   0.001  0.00  0.00    +0.024 A 
ATOM     33  C   UNL     1       3.163   3.324  -0.011  0.00  0.00    +0.031 A 
ATOM     34  C   UNL     1       3.631   4.623  -0.009  0.00  0.00    +0.042 A 
ATOM     35  C   UNL     1       2.739   5.683   0.005  0.00  0.00    +0.020 A 
ATOM     36 CL   UNL     1       5.339   4.929  -0.023  0.00  0.00    -0.084 Cl
ENDBRANCH  25  32
ENDBRANCH  24  27
ENDBRANCH   1  24
TORSDOF 9
