REMARK  Name = ZINC34834687
REMARK  13 active torsions:
REMARK  status: ('A' for Active; 'I' for Inactive)
REMARK    1  A    between atoms: C_1  and  C_2
REMARK    2  A    between atoms: C_3  and  C_20
REMARK    3  A    between atoms: C_4  and  N_13
REMARK    4  A    between atoms: N_5  and  C_7
REMARK    5  A    between atoms: N_16  and  C_19
REMARK    6  A    between atoms: C_20  and  N_21
REMARK    7  A    between atoms: N_21  and  C_22
REMARK    8  A    between atoms: C_22  and  C_23
REMARK    9  A    between atoms: C_23  and  C_24
REMARK   10  A    between atoms: C_24  and  C_25
REMARK   11  A    between atoms: C_24  and  C_26
REMARK   12  A    between atoms: C_27  and  C_29
REMARK   13  A    between atoms: C_32  and  C_35
REMARK                            x       y       z     vdW  Elec       q    Type
REMARK                         _______ _______ _______ _____ _____    ______ ____
ROOT
ATOM      1  C   UNL     1       1.704  -0.440   0.044  0.00  0.00    +0.068 C 
ATOM      2  C   UNL     1       1.750  -1.538  -0.987  0.00  0.00    +0.067 A 
ATOM      3  C   UNL     1       1.625  -1.368  -2.368  0.00  0.00    +0.032 A 
ATOM      4  C   UNL     1       1.720  -2.595  -2.951  0.00  0.00    +0.130 A 
ATOM      5  N   UNL     1       1.899  -3.506  -1.956  0.00  0.00    -0.218 N 
ATOM      6  N   UNL     1       1.918  -2.812  -0.739  0.00  0.00    -0.170 NA
ENDROOT
BRANCH   4   7
ATOM      7  N   UNL     1       1.647  -2.867  -4.314  0.00  0.00    -0.318 N 
ATOM      8  C   UNL     1       2.742  -3.566  -5.005  0.00  0.00    +0.088 C 
ATOM      9  C   UNL     1       2.147  -4.728  -5.807  0.00  0.00    -0.060 C 
ATOM     10  N   UNL     1       1.095  -4.220  -6.696  0.00  0.00    +0.380 N 
ATOM     11  C   UNL     1      -0.015  -3.680  -5.901  0.00  0.00    -0.060 C 
ATOM     12  C   UNL     1       0.471  -2.470  -5.103  0.00  0.00    +0.088 C 
ATOM     13  C   UNL     1       0.601  -5.315  -7.542  0.00  0.00    -0.096 C 
ATOM     14  H   UNL     1       1.474  -3.491  -7.281  0.00  0.00    -0.082 HD
ENDBRANCH   4   7
BRANCH   5  15
ATOM     15  C   UNL     1       2.044  -4.890  -2.120  0.00  0.00    +0.067 A 
ATOM     16  C   UNL     1       1.058  -5.620  -2.769  0.00  0.00    +0.028 A 
ATOM     17  C   UNL     1       1.203  -6.985  -2.929  0.00  0.00    +0.002 A 
ATOM     18  C   UNL     1       2.330  -7.623  -2.444  0.00  0.00    +0.000 A 
ATOM     19  C   UNL     1       3.313  -6.898  -1.797  0.00  0.00    +0.002 A 
ATOM     20  C   UNL     1       3.176  -5.533  -1.638  0.00  0.00    +0.028 A 
ENDBRANCH   5  15
BRANCH   3  21
ATOM     21  C   UNL     1       1.421  -0.058  -3.086  0.00  0.00    +0.148 C 
BRANCH  21  22
ATOM     22  N   UNL     1       2.633   0.757  -2.969  0.00  0.00    -0.293 N 
ATOM     23  C   UNL     1       2.683   1.765  -2.076  0.00  0.00    +0.247 C 
ATOM     24  O   UNL     1       1.805   1.885  -1.244  0.00  0.00    -0.270 OA
BRANCH  23  25
ATOM     25  C   UNL     1       3.807   2.726  -2.109  0.00  0.00    +0.037 A 
ATOM     26  C   UNL     1       5.124   2.264  -2.134  0.00  0.00    +0.013 A 
ATOM     27  C   UNL     1       6.167   3.166  -2.165  0.00  0.00    +0.013 A 
ATOM     28  C   UNL     1       5.911   4.525  -2.170  0.00  0.00    +0.055 A 
ATOM     29  C   UNL     1       4.608   4.990  -2.145  0.00  0.00    +0.013 A 
ATOM     30  C   UNL     1       3.555   4.099  -2.120  0.00  0.00    +0.013 A 
BRANCH  28  31
ATOM     31  C   UNL     1       7.056   5.504  -2.203  0.00  0.00    +0.417 C 
ATOM     32  F   UNL     1       7.381   5.797  -3.532  0.00  0.00    -0.166 F 
ATOM     33  F   UNL     1       6.683   6.681  -1.545  0.00  0.00    -0.166 F 
ATOM     34  F   UNL     1       8.167   4.945  -1.563  0.00  0.00    -0.166 F 
ENDBRANCH  28  31
ENDBRANCH  23  25
BRANCH  22  35
ATOM     35  C   UNL     1       3.791   0.475  -3.822  0.00  0.00    +0.109 C 
BRANCH  35  36
ATOM     36  C   UNL     1       4.590  -0.688  -3.230  0.00  0.00    +0.022 C 
BRANCH  36  37
ATOM     37  C   UNL     1       5.700  -1.091  -4.202  0.00  0.00    -0.016 C 
ATOM     38  C   UNL     1       6.652  -2.069  -3.511  0.00  0.00    +0.007 C 
ATOM     39  C   UNL     1       5.084  -1.761  -5.431  0.00  0.00    +0.007 C 
ENDBRANCH  36  37
ENDBRANCH  35  36
ENDBRANCH  22  35
ENDBRANCH  21  22
ENDBRANCH   3  21
TORSDOF 9
