REMARK  Name = ZINC22426258
REMARK  12 active torsions:
REMARK  status: ('A' for Active; 'I' for Inactive)
REMARK    1  A    between atoms: C_1  and  C_2
REMARK    2  A    between atoms: C_4  and  S_10
REMARK    3  A    between atoms: C_7  and  O_8
REMARK    4  A    between atoms: O_8  and  C_9
REMARK    5  A    between atoms: S_10  and  N_13
REMARK    6  A    between atoms: N_13  and  C_14
REMARK    7  A    between atoms: N_13  and  C_33
REMARK    8  A    between atoms: C_14  and  C_15
REMARK    9  A    between atoms: N_17  and  C_18
REMARK   10  A    between atoms: C_18  and  C_20
REMARK   11  A    between atoms: C_18  and  C_21
REMARK   12  A    between atoms: C_24  and  N_27
REMARK                            x       y       z     vdW  Elec       q    Type
REMARK                         _______ _______ _______ _____ _____    ______ ____
ROOT
ATOM      1  N   UNL     1       1.553   2.269  -0.001  0.00  0.00    -0.194 N 
ENDROOT
BRANCH   1   2
ATOM      2  C   UNL     1       2.196   2.578   1.200  0.00  0.00    +0.052 A 
ATOM      3  C   UNL     1       3.442   2.031   1.484  0.00  0.00    +0.025 A 
ATOM      4  C   UNL     1       4.077   2.343   2.670  0.00  0.00    +0.002 A 
ATOM      5  C   UNL     1       3.470   3.190   3.579  0.00  0.00    +0.000 A 
ATOM      6  C   UNL     1       2.229   3.732   3.302  0.00  0.00    +0.002 A 
ATOM      7  C   UNL     1       1.590   3.429   2.116  0.00  0.00    +0.025 A 
ENDBRANCH   1   2
BRANCH   1   8
ATOM      8  S   UNL     1       0.071   1.531   0.021  0.00  0.00    +0.075 S 
ATOM      9  O   UNL     1      -0.608   1.951  -1.155  0.00  0.00    -0.150 OA
ATOM     10  O   UNL     1      -0.464   1.731   1.322  0.00  0.00    -0.150 OA
BRANCH   8  14
ATOM     11  C   UNL     1       0.938  -3.196   2.072  0.00  0.00    +0.047 C 
ATOM     12  C   UNL     1       0.744  -2.343   0.846  0.00  0.00    -0.007 A 
ATOM     13  C   UNL     1       0.526  -0.984   0.976  0.00  0.00    +0.035 A 
ATOM     14  C   UNL     1       0.348  -0.201  -0.149  0.00  0.00    +0.109 A 
ATOM     15  C   UNL     1       0.382  -0.774  -1.407  0.00  0.00    +0.032 A 
ATOM     16  C   UNL     1       0.605  -2.131  -1.543  0.00  0.00    +0.048 A 
ATOM     17  C   UNL     1       0.783  -2.920  -0.415  0.00  0.00    +0.123 A 
BRANCH  17  18
ATOM     18  O   UNL     1       0.997  -4.255  -0.546  0.00  0.00    -0.495 OA
ATOM     19  C   UNL     1       1.025  -4.781  -1.875  0.00  0.00    +0.277 C 
ENDBRANCH  17  18
ENDBRANCH   8  14
ENDBRANCH   1   8
BRANCH   1  20
ATOM     20  C   UNL     1       2.190   2.597  -1.278  0.00  0.00    +0.227 C 
BRANCH  20  21
ATOM     21  C   UNL     1       1.875   4.024  -1.645  0.00  0.00    +0.233 C 
ATOM     22  O   UNL     1       1.186   4.701  -0.911  0.00  0.00    -0.274 OA
ATOM     23  N   UNL     1       2.358   4.549  -2.788  0.00  0.00    -0.307 N 
ATOM     24  H   UNL     1       2.983   3.936  -3.454  0.00  0.00    +0.149 HD
BRANCH  23  25
ATOM     25  C   UNL     1       2.052   5.937  -3.144  0.00  0.00    +0.100 C 
ATOM     26  C   UNL     1       0.702   5.993  -3.862  0.00  0.00    +0.033 C 
BRANCH  25  27
ATOM     27  C   UNL     1       3.127   6.471  -4.055  0.00  0.00    -0.027 A 
ATOM     28  C   UNL     1       3.662   5.661  -5.041  0.00  0.00    +0.007 A 
ATOM     29  C   UNL     1       4.643   6.149  -5.881  0.00  0.00    +0.023 A 
ATOM     30  C   UNL     1       5.102   7.451  -5.727  0.00  0.00    +0.030 A 
ATOM     31  C   UNL     1       4.567   8.260  -4.733  0.00  0.00    +0.023 A 
ATOM     32  C   UNL     1       3.582   7.768  -3.900  0.00  0.00    +0.007 A 
BRANCH  30  33
ATOM     33  N   UNL     1       6.098   7.947  -6.572  0.00  0.00    -0.330 N 
ATOM     34  C   UNL     1       5.655   9.174  -7.245  0.00  0.00    +0.105 C 
ATOM     35  C   UNL     1       6.817   9.766  -8.046  0.00  0.00    +0.019 C 
ATOM     36  C   UNL     1       7.295   8.740  -9.077  0.00  0.00    +0.003 C 
ATOM     37  C   UNL     1       7.705   7.454  -8.354  0.00  0.00    +0.019 C 
ATOM     38  C   UNL     1       6.517   6.929  -7.544  0.00  0.00    +0.105 C 
ENDBRANCH  30  33
ENDBRANCH  25  27
ENDBRANCH  23  25
ENDBRANCH  20  21
ENDBRANCH   1  20
TORSDOF 9
