REMARK  Name = ZINC10697566
REMARK  10 active torsions:
REMARK  status: ('A' for Active; 'I' for Inactive)
REMARK    1  A    between atoms: C_1  and  C_2
REMARK    2  A    between atoms: C_7  and  N_8
REMARK    3  A    between atoms: C_9  and  C_11
REMARK    4  A    between atoms: C_11  and  C_12
REMARK    5  A    between atoms: C_14  and  C_17
REMARK    6  A    between atoms: C_17  and  O_18
REMARK    7  A    between atoms: O_18  and  C_19
REMARK    8  A    between atoms: C_19  and  C_21
REMARK    9  A    between atoms: C_22  and  C_33
REMARK   10  A    between atoms: C_24  and  C_26
REMARK                            x       y       z     vdW  Elec       q    Type
REMARK                         _______ _______ _______ _____ _____    ______ ____
ROOT
ATOM      1  C   UNL     1       0.984   3.592   0.025  0.00  0.00    +0.087 A 
ATOM      2  N   UNL     1       0.822   4.392   1.053  0.00  0.00    -0.245 NA
ATOM      3  C   UNL     1       0.571   5.675   0.893  0.00  0.00    +0.086 A 
ATOM      4  C   UNL     1       0.470   6.159  -0.371  0.00  0.00    +0.073 A 
ATOM      5  S   UNL     1       0.763   4.672  -1.317  0.00  0.00    -0.080 S 
ENDROOT
BRANCH   1   6
ATOM      6  C   UNL     1       1.279   2.114   0.012  0.00  0.00    +0.159 C 
BRANCH   6   8
ATOM      7  N   UNL     1       0.002  -0.004   0.002  0.00  0.00    -0.285 N 
ATOM      8  C   UNL     1      -0.016   1.343   0.012  0.00  0.00    +0.224 C 
ATOM      9  O   UNL     1      -1.074   1.936   0.017  0.00  0.00    -0.275 OA
ATOM     10  H   UNL     1       0.845  -0.477  -0.084  0.00  0.00    +0.155 HD
BRANCH   7  17
ATOM     11  C   UNL     1      -0.088  -2.645  -1.054  0.00  0.00    +0.045 C 
ATOM     12  C   UNL     1      -1.282  -2.012  -0.387  0.00  0.00    -0.029 A 
ATOM     13  C   UNL     1      -2.465  -2.717  -0.273  0.00  0.00    +0.005 A 
ATOM     14  C   UNL     1      -3.560  -2.138   0.339  0.00  0.00    +0.000 A 
ATOM     15  C   UNL     1      -3.476  -0.851   0.840  0.00  0.00    +0.002 A 
ATOM     16  C   UNL     1      -2.295  -0.143   0.735  0.00  0.00    +0.023 A 
ATOM     17  C   UNL     1      -1.194  -0.721   0.115  0.00  0.00    +0.036 A 
ENDBRANCH   7  17
ENDBRANCH   6   8
ENDBRANCH   1   6
BRANCH   3  18
ATOM     18  C   UNL     1       0.394   6.581   2.083  0.00  0.00    +0.288 C 
BRANCH  18  19
ATOM     19  O   UNL     1       0.127   7.911   1.634  0.00  0.00    -0.454 OA
BRANCH  19  20
ATOM     20  C   UNL     1      -0.058   8.853   2.582  0.00  0.00    +0.348 C 
ATOM     21  O   UNL     1       0.006   8.552   3.759  0.00  0.00    -0.244 OA
BRANCH  20  22
ATOM     22  C   UNL     1      -0.336  10.237   2.195  0.00  0.00    +0.119 A 
ATOM     23  C   UNL     1      -0.556  11.355   2.991  0.00  0.00    +0.060 A 
ATOM     24  N   UNL     1      -0.785  12.492   2.394  0.00  0.00    -0.243 NA
ATOM     25  C   UNL     1      -0.808  12.589   1.071  0.00  0.00    +0.109 A 
ATOM     26  S   UNL     1      -0.478  10.961   0.567  0.00  0.00    -0.060 S 
ATOM     27  C   UNL     1      -0.533  11.257   4.495  0.00  0.00    +0.067 C 
BRANCH  25  28
ATOM     28  C   UNL     1      -1.049  13.785   0.236  0.00  0.00    +0.007 A 
ATOM     29  C   UNL     1      -1.299  15.020   0.837  0.00  0.00    +0.012 A 
ATOM     30  C   UNL     1      -1.518  16.133   0.052  0.00  0.00    +0.020 A 
ATOM     31  C   UNL     1      -1.501  16.025  -1.328  0.00  0.00    +0.041 A 
ATOM     32  C   UNL     1      -1.258  14.801  -1.930  0.00  0.00    +0.020 A 
ATOM     33  C   UNL     1      -1.032  13.682  -1.156  0.00  0.00    +0.012 A 
ATOM     34 CL   UNL     1      -1.785  17.429  -2.309  0.00  0.00    -0.084 Cl
ENDBRANCH  25  28
ENDBRANCH  20  22
ENDBRANCH  19  20
ENDBRANCH  18  19
ENDBRANCH   3  18
TORSDOF 8
