REMARK  Name = ZINC03643551
REMARK  10 active torsions:
REMARK  status: ('A' for Active; 'I' for Inactive)
REMARK    1  A    between atoms: C_1  and  C_2
REMARK    2  A    between atoms: C_2  and  O_3
REMARK    3  A    between atoms: O_3  and  C_4
REMARK    4  A    between atoms: C_6  and  C_11
REMARK    5  A    between atoms: C_9  and  O_10
REMARK    6  A    between atoms: C_29  and  C_38
REMARK    7  A    between atoms: C_30  and  C_32
REMARK    8  A    between atoms: C_32  and  O_34
REMARK    9  A    between atoms: O_34  and  C_35
REMARK   10  A    between atoms: C_35  and  C_36
REMARK                            x       y       z     vdW  Elec       q    Type
REMARK                         _______ _______ _______ _____ _____    ______ ____
ROOT
ATOM      1  C   UNL     1       2.489   1.046  -0.017  0.00  0.00    +0.152 C 
ATOM      2  C   UNL     1       3.048   1.014  -1.415  0.00  0.00    +0.072 A 
ATOM      3  C   UNL     1       2.546   0.455  -2.673  0.00  0.00    +0.199 A 
ATOM      4  O   UNL     1       1.476  -0.124  -2.734  0.00  0.00    -0.287 OA
ATOM      5  C   UNL     1       3.401   0.629  -3.864  0.00  0.00    +0.064 A 
ATOM      6  C   UNL     1       3.021   0.137  -5.111  0.00  0.00    +0.015 A 
ATOM      7  C   UNL     1       3.843   0.318  -6.189  0.00  0.00    +0.001 A 
ATOM      8  C   UNL     1       5.050   0.989  -6.046  0.00  0.00    +0.004 A 
ATOM      9  C   UNL     1       5.441   1.482  -4.820  0.00  0.00    +0.047 A 
ATOM     10  C   UNL     1       4.622   1.309  -3.709  0.00  0.00    +0.139 A 
ATOM     11  O   UNL     1       4.990   1.784  -2.505  0.00  0.00    -0.450 OA
ATOM     12  C   UNL     1       4.245   1.651  -1.390  0.00  0.00    +0.199 A 
ATOM     13  C   UNL     1       4.500   2.111  -0.003  0.00  0.00    +0.289 C 
ATOM     14  O   UNL     1       5.489   2.718   0.357  0.00  0.00    -0.266 OA
ATOM     15  N   UNL     1       3.480   1.759   0.799  0.00  0.00    -0.232 N 
ATOM     16  C   UNL     1       3.381   2.024   2.152  0.00  0.00    +0.169 A 
ATOM     17  N   UNL     1       4.237   2.659   2.937  0.00  0.00    -0.229 NA
ATOM     18  C   UNL     1       4.001   2.832   4.210  0.00  0.00    +0.062 A 
ATOM     19  C   UNL     1       2.813   2.326   4.722  0.00  0.00    +0.120 A 
ATOM     20  S   UNL     1       2.098   1.612   3.248  0.00  0.00    -0.045 S 
ATOM     21  C   UNL     1       4.983   3.557   5.093  0.00  0.00    +0.067 C 
ENDROOT
BRANCH   1  24
ATOM     22  C   UNL     1      -1.222   1.752   0.017  0.00  0.00    +0.162 A 
ATOM     23  C   UNL     1      -0.013   1.076   0.008  0.00  0.00    +0.055 A 
ATOM     24  C   UNL     1       1.175   1.783   0.000  0.00  0.00    -0.018 A 
ATOM     25  C   UNL     1       1.160   3.166   0.008  0.00  0.00    +0.009 A 
ATOM     26  C   UNL     1      -0.043   3.847   0.023  0.00  0.00    +0.049 A 
ATOM     27  C   UNL     1      -1.237   3.144   0.030  0.00  0.00    +0.158 A 
BRANCH  27  28
ATOM     28  O   UNL     1      -2.421   3.812   0.044  0.00  0.00    -0.503 OA
ATOM     29  H   UNL     1      -2.772   4.010  -0.835  0.00  0.00    +0.292 HD
ENDBRANCH  27  28
BRANCH  22  30
ATOM     30  O   UNL     1      -2.391   1.058   0.019  0.00  0.00    -0.489 OA
BRANCH  30  32
ATOM     31  C   UNL     1      -3.705  -0.970   0.014  0.00  0.00    +0.048 C 
ATOM     32  C   UNL     1      -2.299  -0.368   0.011  0.00  0.00    +0.226 C 
ENDBRANCH  30  32
ENDBRANCH  22  30
ENDBRANCH   1  24
BRANCH  19  33
ATOM     33  C   UNL     1       2.291   2.369   6.086  0.00  0.00    +0.348 C 
ATOM     34  O   UNL     1       2.931   2.913   6.966  0.00  0.00    -0.244 OA
BRANCH  33  35
ATOM     35  O   UNL     1       1.097   1.806   6.370  0.00  0.00    -0.457 OA
BRANCH  35  36
ATOM     36  C   UNL     1       0.648   1.886   7.724  0.00  0.00    +0.259 C 
BRANCH  36  37
ATOM     37  C   UNL     1      -0.692   1.208   7.849  0.00  0.00    +0.006 C 
ATOM     38  C   UNL     1      -0.923   0.394   8.849  0.00  0.00    +0.007 C 
ENDBRANCH  36  37
ENDBRANCH  35  36
ENDBRANCH  33  35
ENDBRANCH  19  33
TORSDOF 8
