REMARK  Name = ZINC54805327
REMARK  10 active torsions:
REMARK  status: ('A' for Active; 'I' for Inactive)
REMARK    1  A    between atoms: C_1  and  C_2
REMARK    2  A    between atoms: N_7  and  C_9
REMARK    3  A    between atoms: C_9  and  C_10
REMARK    4  A    between atoms: C_9  and  C_11
REMARK    5  A    between atoms: C_9  and  C_12
REMARK    6  A    between atoms: C_12  and  N_13
REMARK    7  A    between atoms: N_16  and  N_17
REMARK    8  A    between atoms: N_17  and  C_18
REMARK    9  A    between atoms: C_18  and  N_20
REMARK   10  A    between atoms: N_20  and  C_21
REMARK                            x       y       z     vdW  Elec       q    Type
REMARK                         _______ _______ _______ _____ _____    ______ ____
ROOT
ATOM      1  N   UNL     1       2.234  -4.377   1.177  0.00  0.00    -0.300 N 
ATOM      2  C   UNL     1       2.304  -5.671   0.808  0.00  0.00    +0.316 C 
ATOM      3  O   UNL     1       1.695  -6.516   1.435  0.00  0.00    -0.251 OA
ATOM      4  N   UNL     1       3.050  -6.029  -0.256  0.00  0.00    -0.219 N 
ATOM      5  H   UNL     1       2.720  -3.702   0.677  0.00  0.00    +0.150 HD
ATOM      6  H   UNL     1       3.101  -6.960  -0.522  0.00  0.00    +0.174 HD
ENDROOT
BRANCH   4   7
ATOM      7  N   UNL     1       3.752  -5.055  -0.979  0.00  0.00    -0.245 N 
ATOM      8  H   UNL     1       3.701  -4.123  -0.713  0.00  0.00    +0.172 HD
BRANCH   7   9
ATOM      9  C   UNL     1       4.497  -5.412  -2.043  0.00  0.00    +0.147 C 
ATOM     10  S   UNL     1       5.355  -4.223  -2.926  0.00  0.00    -0.017 S 
BRANCH   9  11
ATOM     11  N   UNL     1       4.568  -6.707  -2.412  0.00  0.00    -0.323 N 
ATOM     12  H   UNL     1       4.082  -7.381  -1.912  0.00  0.00    +0.148 HD
BRANCH  11  13
ATOM     13  C   UNL     1       5.378  -7.096  -3.569  0.00  0.00    +0.072 C 
ATOM     14  C   UNL     1       4.538  -6.999  -4.859  0.00  0.00    +0.022 C 
ATOM     15  C   UNL     1       5.013  -8.202  -5.712  0.00  0.00    +0.002 C 
ATOM     16  C   UNL     1       5.224  -9.311  -4.652  0.00  0.00    +0.002 C 
ATOM     17  C   UNL     1       5.814  -8.565  -3.437  0.00  0.00    +0.022 C 
ENDBRANCH  11  13
ENDBRANCH   9  11
ENDBRANCH   7   9
ENDBRANCH   4   7
BRANCH   1  18
ATOM     18  C   UNL     1       1.423  -3.988   2.334  0.00  0.00    +0.093 C 
BRANCH  18  19
ATOM     19  C   UNL     1       1.615  -2.496   2.613  0.00  0.00    -0.055 C 
ATOM     20  C   UNL     1       0.834  -2.107   3.870  0.00  0.00    -0.008 C 
ATOM     21  C   UNL     1       1.102  -1.684   1.422  0.00  0.00    -0.008 C 
BRANCH  19  27
ATOM     22  C   UNL     1       4.900   1.012   3.547  0.00  0.00    +0.005 C 
ATOM     23  C   UNL     1       4.715  -0.476   3.242  0.00  0.00    -0.031 C 
ATOM     24  C   UNL     1       5.305  -1.309   4.384  0.00  0.00    -0.001 C 
ATOM     25  C   UNL     1       5.045  -2.793   4.107  0.00  0.00    -0.018 C 
ATOM     26  C   UNL     1       3.541  -3.019   3.941  0.00  0.00    -0.078 C 
ATOM     27  N   UNL     1       3.043  -2.216   2.818  0.00  0.00    +0.384 N 
ATOM     28  C   UNL     1       3.223  -0.788   3.107  0.00  0.00    -0.075 C 
ATOM     29  H   UNL     1       3.554  -2.455   1.981  0.00  0.00    -0.081 HD
ENDBRANCH  19  27
ENDBRANCH  18  19
ENDBRANCH   1  18
TORSDOF 7
