REMARK  Name = ZINC33033615
REMARK  15 active torsions:
REMARK  status: ('A' for Active; 'I' for Inactive)
REMARK    1  A    between atoms: C_1  and  C_2
REMARK    2  A    between atoms: C_2  and  C_3
REMARK    3  A    between atoms: C_3  and  C_4
REMARK    4  A    between atoms: C_7  and  S_10
REMARK    5  A    between atoms: S_10  and  N_13
REMARK    6  A    between atoms: N_13  and  C_14
REMARK    7  A    between atoms: C_16  and  C_26
REMARK    8  A    between atoms: C_19  and  N_20
REMARK    9  A    between atoms: N_28  and  C_29
REMARK   10  A    between atoms: N_28  and  C_31
REMARK   11  A    between atoms: C_29  and  C_30
REMARK   12  A    between atoms: C_31  and  C_32
REMARK   13  A    between atoms: C_32  and  N_33
REMARK   14  A    between atoms: N_33  and  C_34
REMARK   15  A    between atoms: N_33  and  C_35
REMARK                            x       y       z     vdW  Elec       q    Type
REMARK                         _______ _______ _______ _____ _____    ______ ____
ROOT
ATOM      1  C   UNL     1      -3.977   1.919  -1.020  0.00  0.00    +0.070 A 
ATOM      2  C   UNL     1      -2.771   1.330  -0.694  0.00  0.00    +0.039 A 
ATOM      3  C   UNL     1      -1.600   2.095  -0.692  0.00  0.00    +0.039 A 
ATOM      4  C   UNL     1      -1.656   3.453  -1.014  0.00  0.00    +0.015 A 
ATOM      5  C   UNL     1      -2.860   4.036  -1.343  0.00  0.00    +0.026 A 
ATOM      6  C   UNL     1      -4.024   3.278  -1.345  0.00  0.00    +0.052 A 
ENDROOT
BRANCH   6   7
ATOM      7  N   UNL     1      -5.241   3.872  -1.674  0.00  0.00    -0.332 N 
ATOM      8  C   UNL     1      -5.112   5.335  -1.739  0.00  0.00    +0.086 C 
ATOM      9  C   UNL     1      -6.483   5.953  -2.022  0.00  0.00    -0.063 C 
ATOM     10  N   UNL     1      -7.007   5.417  -3.286  0.00  0.00    +0.381 N 
ATOM     11  C   UNL     1      -7.137   3.955  -3.221  0.00  0.00    -0.063 C 
ATOM     12  C   UNL     1      -5.766   3.336  -2.937  0.00  0.00    +0.086 C 
ATOM     13  H   UNL     1      -7.998   5.851  -3.485  0.00  0.00    -0.086 HD
ATOM     14  H   UNL     1      -6.322   5.676  -4.106  0.00  0.00    -0.086 HD
ENDBRANCH   6   7
BRANCH   3  15
ATOM     15  C   UNL     1      -0.310   1.470  -0.345  0.00  0.00    +0.247 C 
ATOM     16  O   UNL     1      -0.282   0.496   0.383  0.00  0.00    -0.270 OA
ATOM     17  N   UNL     1       0.838   1.974  -0.840  0.00  0.00    -0.300 N 
BRANCH  17  18
ATOM     18  C   UNL     1       0.800   3.103  -1.773  0.00  0.00    +0.104 C 
ATOM     19  C   UNL     1       1.268   4.372  -1.058  0.00  0.00    +0.024 C 
ENDBRANCH  17  18
BRANCH  17  20
ATOM     20  C   UNL     1       2.124   1.394  -0.444  0.00  0.00    +0.089 C 
BRANCH  20  21
ATOM     21  C   UNL     1       2.498   0.272  -1.415  0.00  0.00    -0.060 C 
BRANCH  21  22
ATOM     22  N   UNL     1       3.787  -0.310  -1.019  0.00  0.00    +0.377 N 
ATOM     23  C   UNL     1       3.680  -0.992   0.278  0.00  0.00    -0.097 C 
ATOM     24  C   UNL     1       4.293  -1.222  -2.053  0.00  0.00    -0.097 C 
ATOM     25  H   UNL     1       4.509   0.512  -0.910  0.00  0.00    -0.083 HD
ENDBRANCH  21  22
ENDBRANCH  20  21
ENDBRANCH  17  20
ENDBRANCH   3  15
BRANCH   1  26
ATOM     26  N   UNL     1      -5.152   1.157  -1.023  0.00  0.00    -0.214 N 
ATOM     27  H   UNL     1      -5.531   0.736  -1.966  0.00  0.00    +0.174 HD
BRANCH  26  28
ATOM     28  S   UNL     1      -5.969   0.888   0.392  0.00  0.00    +0.072 S 
ATOM     29  O   UNL     1      -7.111   0.110   0.060  0.00  0.00    -0.150 OA
ATOM     30  O   UNL     1      -5.004   0.458   1.343  0.00  0.00    -0.150 OA
BRANCH  28  34
ATOM     31  C   UNL     1      -7.506   4.895   1.832  0.00  0.00    -0.047 A 
ATOM     32  C   UNL     1      -8.284   4.116   0.996  0.00  0.00    +0.005 A 
ATOM     33  C   UNL     1      -7.814   2.893   0.556  0.00  0.00    +0.029 A 
ATOM     34  C   UNL     1      -6.567   2.448   0.953  0.00  0.00    +0.109 A 
ATOM     35  C   UNL     1      -5.791   3.224   1.793  0.00  0.00    +0.029 A 
ATOM     36  C   UNL     1      -6.259   4.450   2.229  0.00  0.00    +0.005 A 
BRANCH  31  37
ATOM     37  C   UNL     1      -8.017   6.229   2.310  0.00  0.00    +0.035 C 
BRANCH  37  39
ATOM     38  C   UNL     1      -9.304   7.396   4.106  0.00  0.00    +0.004 C 
ATOM     39  C   UNL     1      -8.785   6.041   3.620  0.00  0.00    +0.001 C 
ENDBRANCH  37  39
ENDBRANCH  31  37
ENDBRANCH  28  34
ENDBRANCH  26  28
ENDBRANCH   1  26
TORSDOF 11
