REMARK  Name = ZINC39685905
REMARK  13 active torsions:
REMARK  status: ('A' for Active; 'I' for Inactive)
REMARK    1  A    between atoms: C_1  and  C_2
REMARK    2  A    between atoms: C_6  and  C_8
REMARK    3  A    between atoms: C_8  and  C_9
REMARK    4  A    between atoms: C_13  and  C_22
REMARK    5  A    between atoms: N_24  and  C_25
REMARK    6  A    between atoms: C_25  and  C_27
REMARK    7  A    between atoms: C_25  and  C_30
REMARK    8  A    between atoms: C_27  and  C_28
REMARK    9  A    between atoms: C_27  and  C_29
REMARK   10  A    between atoms: N_32  and  C_33
REMARK   11  A    between atoms: C_33  and  C_34
REMARK   12  A    between atoms: C_33  and  C_35
REMARK   13  A    between atoms: C_33  and  C_36
REMARK                            x       y       z     vdW  Elec       q    Type
REMARK                         _______ _______ _______ _____ _____    ______ ____
ROOT
ATOM      1  C   UNL     1       0.360  -2.883   3.376  0.00  0.00    +0.220 C 
ATOM      2  O   UNL     1       0.975  -2.232   2.558  0.00  0.00    -0.275 OA
ATOM      3  N   UNL     1       1.025  -3.589   4.312  0.00  0.00    -0.300 N 
ATOM      4  C   UNL     1       0.454  -4.443   5.381  0.00  0.00    +0.121 C 
ATOM      5  C   UNL     1       1.397  -5.665   5.449  0.00  0.00    +0.100 C 
ATOM      6  C   UNL     1       2.732  -5.163   4.875  0.00  0.00    -0.004 C 
ATOM      7  C   UNL     1       2.491  -3.693   4.500  0.00  0.00    +0.115 C 
ATOM      8  C   UNL     1       3.107  -5.963   3.631  0.00  0.00    -0.010 C 
ATOM      9  C   UNL     1       4.465  -5.484   3.111  0.00  0.00    -0.082 C 
ATOM     10  N   UNL     1       5.481  -5.662   4.156  0.00  0.00    +0.379 N 
ATOM     11  C   UNL     1       5.162  -4.817   5.313  0.00  0.00    -0.082 C 
ATOM     12  C   UNL     1       3.833  -5.267   5.926  0.00  0.00    -0.010 C 
ATOM     13  H   UNL     1       5.501  -6.629   4.443  0.00  0.00    -0.086 HD
ATOM     14  H   UNL     1       6.385  -5.403   3.791  0.00  0.00    -0.086 HD
ENDROOT
BRANCH   5  15
ATOM     15  C   UNL     1       0.854  -6.794   4.612  0.00  0.00    +0.219 C 
ATOM     16  O   UNL     1       0.849  -7.925   5.050  0.00  0.00    -0.275 OA
ATOM     17  N   UNL     1       0.375  -6.548   3.377  0.00  0.00    -0.303 N 
ATOM     18  H   UNL     1       0.380  -5.643   3.027  0.00  0.00    +0.149 HD
BRANCH  17  19
ATOM     19  C   UNL     1      -0.152  -7.646   2.563  0.00  0.00    +0.161 C 
BRANCH  19  20
ATOM     20  C   UNL     1      -0.047  -7.285   1.104  0.00  0.00    +0.234 C 
ATOM     21  O   UNL     1       0.422  -6.216   0.776  0.00  0.00    -0.274 OA
ATOM     22  N   UNL     1      -0.475  -8.150   0.163  0.00  0.00    -0.309 N 
ATOM     23  H   UNL     1      -0.850  -9.005   0.426  0.00  0.00    +0.149 HD
BRANCH  22  24
ATOM     24  C   UNL     1      -0.372  -7.799  -1.256  0.00  0.00    +0.026 C 
ATOM     25  C   UNL     1       1.094  -7.556  -1.616  0.00  0.00    +0.031 C 
ATOM     26  C   UNL     1      -0.923  -8.946  -2.105  0.00  0.00    +0.031 C 
ATOM     27  C   UNL     1      -1.181  -6.529  -1.526  0.00  0.00    +0.031 C 
ENDBRANCH  22  24
ENDBRANCH  19  20
BRANCH  19  28
ATOM     28  C   UNL     1      -1.619  -7.888   2.924  0.00  0.00    +0.012 C 
ATOM     29  C   UNL     1      -1.726  -8.255   4.406  0.00  0.00    +0.009 C 
ATOM     30  C   UNL     1      -2.428  -6.618   2.653  0.00  0.00    +0.009 C 
ENDBRANCH  19  28
ENDBRANCH  17  19
ENDBRANCH   5  15
BRANCH   1  31
ATOM     31  C   UNL     1      -1.147  -2.903   3.345  0.00  0.00    +0.131 C 
BRANCH  31  37
ATOM     32  C   UNL     1      -2.618   1.559   1.621  0.00  0.00    +0.044 C 
ATOM     33  C   UNL     1      -2.342   0.096   1.388  0.00  0.00    -0.050 A 
ATOM     34  C   UNL     1      -2.539  -0.454   0.134  0.00  0.00    +0.003 A 
ATOM     35  C   UNL     1      -2.286  -1.796  -0.080  0.00  0.00    +0.001 A 
ATOM     36  C   UNL     1      -1.835  -2.588   0.960  0.00  0.00    +0.004 A 
ATOM     37  C   UNL     1      -1.637  -2.039   2.212  0.00  0.00    -0.038 A 
ATOM     38  C   UNL     1      -1.887  -0.696   2.425  0.00  0.00    +0.007 A 
ENDBRANCH  31  37
ENDBRANCH   1  31
TORSDOF 7
