REMARK  Name = ZINC53113253
REMARK  7 active torsions:
REMARK  status: ('A' for Active; 'I' for Inactive)
REMARK    1  A    between atoms: C_1  and  C_2
REMARK    2  A    between atoms: C_7  and  C_9
REMARK    3  A    between atoms: C_7  and  N_11
REMARK    4  A    between atoms: C_9  and  O_10
REMARK    5  A    between atoms: N_11  and  S_12
REMARK    6  A    between atoms: S_12  and  C_15
REMARK    7  A    between atoms: C_19  and  N_21
REMARK                            x       y       z     vdW  Elec       q    Type
REMARK                         _______ _______ _______ _____ _____    ______ ____
ROOT
ATOM      1  S   UNL     1       1.532   1.970   2.575  0.00  0.00    +0.059 S 
ATOM      2  O   UNL     1       1.314   3.363   2.749  0.00  0.00    -0.153 OA
ATOM      3  O   UNL     1       0.469   1.028   2.564  0.00  0.00    -0.153 OA
ENDROOT
BRANCH   1   4
ATOM      4  C   UNL     1       2.635   1.470   3.855  0.00  0.00    +0.107 A 
ATOM      5  C   UNL     1       2.498   0.222   4.436  0.00  0.00    +0.030 A 
ATOM      6  C   UNL     1       3.361  -0.174   5.441  0.00  0.00    +0.024 A 
ATOM      7  C   UNL     1       4.364   0.675   5.869  0.00  0.00    +0.062 A 
ATOM      8  C   UNL     1       4.504   1.929   5.286  0.00  0.00    +0.045 A 
ATOM      9  C   UNL     1       3.639   2.322   4.273  0.00  0.00    +0.052 A 
ATOM     10 CL   UNL     1       5.446   0.177   7.131  0.00  0.00    -0.082 Cl
BRANCH   8  11
ATOM     11  N   UNL     1       5.517   2.792   5.715  0.00  0.00    -0.357 N 
ATOM     12  H   UNL     1       6.122   2.515   6.420  0.00  0.00    +0.142 HD
ATOM     13  H   UNL     1       5.614   3.667   5.308  0.00  0.00    +0.142 HD
ENDBRANCH   8  11
ENDBRANCH   1   4
BRANCH   1  14
ATOM     14  N   UNL     1       2.337   1.793   1.139  0.00  0.00    -0.182 NA
ATOM     15  H   UNL     1       2.654   2.575   0.661  0.00  0.00    +0.149 HD
BRANCH  14  21
ATOM     16  C   UNL     1       0.307   2.094  -0.288  0.00  0.00    +0.007 C 
ATOM     17  C   UNL     1       0.551   0.697  -0.861  0.00  0.00    -0.012 C 
ATOM     18  C   UNL     1       1.450   0.801  -2.094  0.00  0.00    +0.003 C 
ATOM     19  C   UNL     1       2.787   1.431  -1.699  0.00  0.00    +0.002 C 
ATOM     20  C   UNL     1       3.469   0.559  -0.644  0.00  0.00    +0.026 C 
ATOM     21  C   UNL     1       2.571   0.455   0.590  0.00  0.00    +0.063 C 
ATOM     22  C   UNL     1       1.233  -0.175   0.195  0.00  0.00    +0.029 C 
BRANCH  21  23
ATOM     23  C   UNL     1       3.253  -0.417   1.646  0.00  0.00    +0.179 C 
BRANCH  23  24
ATOM     24  O   UNL     1       4.480   0.194   2.048  0.00  0.00    -0.393 OA
ATOM     25  H   UNL     1       4.968  -0.305   2.718  0.00  0.00    +0.209 HD
ENDBRANCH  23  24
ENDBRANCH  21  23
ENDBRANCH  14  21
ENDBRANCH   1  14
TORSDOF 6
