REMARK  Name = ZINC47697696
REMARK  7 active torsions:
REMARK  status: ('A' for Active; 'I' for Inactive)
REMARK    1  A    between atoms: C_1  and  C_2
REMARK    2  A    between atoms: C_5  and  N_8
REMARK    3  A    between atoms: N_11  and  C_12
REMARK    4  A    between atoms: C_12  and  C_13
REMARK    5  A    between atoms: C_12  and  C_14
REMARK    6  A    between atoms: C_17  and  N_20
REMARK    7  A    between atoms: N_23  and  C_24
REMARK                            x       y       z     vdW  Elec       q    Type
REMARK                         _______ _______ _______ _____ _____    ______ ____
ROOT
ATOM      1  C   UNL     1       0.406  -6.920   2.354  0.00  0.00    +0.102 C 
ATOM      2  C   UNL     1       1.876  -6.935   2.780  0.00  0.00    +0.033 C 
ENDROOT
BRANCH   1   6
ATOM      3  N   UNL     1       0.020  -4.170  -0.056  0.00  0.00    -0.269 N 
ATOM      4  C   UNL     1       0.146  -4.845   1.104  0.00  0.00    +0.304 C 
ATOM      5  O   UNL     1       0.147  -4.243   2.161  0.00  0.00    -0.252 OA
ATOM      6  N   UNL     1       0.270  -6.187   1.093  0.00  0.00    -0.293 N 
ATOM      7  H   UNL     1      -0.048  -4.655  -0.893  0.00  0.00    +0.156 HD
ATOM      8  H   UNL     1       0.269  -6.667   0.251  0.00  0.00    +0.151 HD
BRANCH   3  13
ATOM      9  C   UNL     1      -0.105   1.502  -0.038  0.00  0.00    +0.044 C 
ATOM     10  C   UNL     1      -0.072  -0.005  -0.043  0.00  0.00    -0.050 A 
ATOM     11  C   UNL     1      -0.650  -0.711   0.996  0.00  0.00    +0.005 A 
ATOM     12  C   UNL     1      -0.621  -2.092   0.995  0.00  0.00    +0.023 A 
ATOM     13  C   UNL     1      -0.011  -2.771  -0.051  0.00  0.00    +0.035 A 
ATOM     14  C   UNL     1       0.569  -2.059  -1.094  0.00  0.00    +0.023 A 
ATOM     15  C   UNL     1       0.531  -0.679  -1.089  0.00  0.00    +0.005 A 
ENDBRANCH   3  13
ENDBRANCH   1   6
BRANCH   1  16
ATOM     16  C   UNL     1      -0.077  -8.335   2.167  0.00  0.00    -0.027 A 
ATOM     17  C   UNL     1       0.224  -9.019   1.003  0.00  0.00    +0.007 A 
ATOM     18  C   UNL     1      -0.217 -10.316   0.829  0.00  0.00    +0.023 A 
ATOM     19  C   UNL     1      -0.963 -10.934   1.824  0.00  0.00    +0.035 A 
ATOM     20  C   UNL     1      -1.263 -10.245   2.992  0.00  0.00    +0.023 A 
ATOM     21  C   UNL     1      -0.814  -8.950   3.163  0.00  0.00    +0.007 A 
BRANCH  19  22
ATOM     22  N   UNL     1      -1.412 -12.248   1.650  0.00  0.00    -0.269 N 
ATOM     23  C   UNL     1      -0.648 -13.139   0.987  0.00  0.00    +0.304 C 
ATOM     24  O   UNL     1       0.391 -12.781   0.467  0.00  0.00    -0.253 OA
ATOM     25  N   UNL     1      -1.037 -14.426   0.899  0.00  0.00    -0.296 N 
ATOM     26  H   UNL     1      -2.273 -12.518   2.006  0.00  0.00    +0.156 HD
ATOM     27  H   UNL     1      -1.866 -14.712   1.314  0.00  0.00    +0.151 HD
BRANCH  25  28
ATOM     28  C   UNL     1      -0.206 -15.395   0.179  0.00  0.00    +0.075 C 
ATOM     29  C   UNL     1      -0.916 -16.378  -0.755  0.00  0.00    +0.024 C 
ATOM     30  C   UNL     1      -0.335 -16.867   0.573  0.00  0.00    +0.024 C 
ENDBRANCH  25  28
ENDBRANCH  19  22
ENDBRANCH   1  16
TORSDOF 5
