REMARK  Name = ZINC39325891
REMARK  5 active torsions:
REMARK  status: ('A' for Active; 'I' for Inactive)
REMARK    1  A    between atoms: C_1  and  C_2
REMARK    2  A    between atoms: C_2  and  C_3
REMARK    3  A    between atoms: C_2  and  C_4
REMARK    4  A    between atoms: C_2  and  O_5
REMARK    5  A    between atoms: O_5  and  C_6
REMARK                            x       y       z     vdW  Elec       q    Type
REMARK                         _______ _______ _______ _____ _____    ______ ____
ROOT
ATOM      1  C   UNL     1       1.952  -0.085  -1.337  0.00  0.00    +0.403 C 
ATOM      2  O   UNL     1       2.488   0.619  -0.503  0.00  0.00    -0.226 OA
ATOM      3  N   UNL     1       2.641  -0.485  -2.424  0.00  0.00    -0.267 N 
ATOM      4  C   UNL     1       2.003  -1.331  -3.442  0.00  0.00    +0.114 C 
ATOM      5  C   UNL     1       2.866  -2.581  -3.653  0.00  0.00    +0.054 C 
ATOM      6  C   UNL     1       4.297  -2.162  -3.965  0.00  0.00    +0.080 C 
ATOM      7  C   UNL     1       4.890  -1.341  -2.828  0.00  0.00    +0.054 C 
ATOM      8  C   UNL     1       4.040  -0.077  -2.614  0.00  0.00    +0.114 C 
ATOM      9  C   UNL     1       5.169  -3.406  -4.236  0.00  0.00    +0.111 C 
ATOM     10  C   UNL     1       4.863  -3.704  -5.700  0.00  0.00    +0.161 C 
ATOM     11  O   UNL     1       5.021  -4.748  -6.287  0.00  0.00    -0.295 OA
ATOM     12  C   UNL     1       4.318  -2.403  -6.256  0.00  0.00    +0.234 C 
ATOM     13  O   UNL     1       4.350  -1.427  -5.200  0.00  0.00    -0.365 OA
ENDROOT
BRANCH   1  14
ATOM     14  O   UNL     1       0.671  -0.465  -1.174  0.00  0.00    -0.445 OA
BRANCH  14  16
ATOM     15  C   UNL     1      -0.019   1.526   0.010  0.00  0.00    +0.055 C 
ATOM     16  C   UNL     1       0.002  -0.004   0.002  0.00  0.00    +0.107 C 
ATOM     17  C   UNL     1       0.742  -0.511   1.242  0.00  0.00    +0.055 C 
ATOM     18  C   UNL     1      -1.433  -0.534   0.013  0.00  0.00    +0.055 C 
ENDBRANCH  14  16
ENDBRANCH   1  14
TORSDOF 2
