REMARK  Name = ZINC30742735
REMARK  12 active torsions:
REMARK  status: ('A' for Active; 'I' for Inactive)
REMARK    1  A    between atoms: C_1  and  O_2
REMARK    2  A    between atoms: O_2  and  C_3
REMARK    3  A    between atoms: C_6  and  C_11
REMARK    4  A    between atoms: C_8  and  O_9
REMARK    5  A    between atoms: O_9  and  C_10
REMARK    6  A    between atoms: N_12  and  N_13
REMARK    7  A    between atoms: C_14  and  C_16
REMARK    8  A    between atoms: C_16  and  S_17
REMARK    9  A    between atoms: S_17  and  C_18
REMARK   10  A    between atoms: C_21  and  S_23
REMARK   11  A    between atoms: S_23  and  C_24
REMARK   12  A    between atoms: C_24  and  C_25
REMARK                            x       y       z     vdW  Elec       q    Type
REMARK                         _______ _______ _______ _____ _____    ______ ____
ROOT
ATOM      1  N   UNL     1       1.298  -0.944   0.085  0.00  0.00    -0.206 N 
ATOM      2  C   UNL     1       1.315  -2.277   0.281  0.00  0.00    +0.242 C 
ATOM      3  O   UNL     1       2.370  -2.852   0.451  0.00  0.00    -0.273 OA
ATOM      4  H   UNL     1       0.341  -0.423  -0.069  0.00  0.00    +0.177 HD
ENDROOT
BRANCH   1   6
ATOM      5  C   UNL     1       2.475   1.075   0.015  0.00  0.00    +0.138 C 
ATOM      6  N   UNL     1       2.498  -0.221   0.077  0.00  0.00    -0.188 NA
BRANCH   5  10
ATOM      7  C   UNL     1      -0.913   3.204   1.445  0.00  0.00    +0.162 A 
ATOM      8  C   UNL     1      -0.744   1.867   1.775  0.00  0.00    +0.050 A 
ATOM      9  C   UNL     1       0.357   1.174   1.317  0.00  0.00    +0.013 A 
ATOM     10  C   UNL     1       1.300   1.815   0.510  0.00  0.00    -0.002 A 
ATOM     11  C   UNL     1       1.126   3.160   0.173  0.00  0.00    +0.059 A 
ATOM     12  C   UNL     1       0.023   3.850   0.640  0.00  0.00    +0.162 A 
BRANCH   7  14
ATOM     13  C   UNL     1      -2.917   3.161   2.723  0.00  0.00    +0.277 C 
ATOM     14  O   UNL     1      -1.997   3.884   1.903  0.00  0.00    -0.491 OA
ENDBRANCH   7  14
BRANCH  12  15
ATOM     15  O   UNL     1      -0.149   5.159   0.314  0.00  0.00    -0.491 OA
ATOM     16  C   UNL     1       0.850   5.758  -0.514  0.00  0.00    +0.277 C 
ENDBRANCH  12  15
ENDBRANCH   5  10
ENDBRANCH   1   6
BRANCH   2  17
ATOM     17  C   UNL     1       0.024  -3.055   0.289  0.00  0.00    +0.173 C 
BRANCH  17  18
ATOM     18  S   UNL     1       0.378  -4.811   0.575  0.00  0.00    -0.088 S 
BRANCH  18  19
ATOM     19  C   UNL     1      -1.210  -5.574   0.557  0.00  0.00    +0.160 A 
ATOM     20  N   UNL     1      -2.398  -5.028   0.380  0.00  0.00    -0.134 NA
ATOM     21  N   UNL     1      -3.525  -5.817   0.403  0.00  0.00    -0.134 NA
ATOM     22  C   UNL     1      -3.412  -7.116   0.602  0.00  0.00    +0.160 A 
ATOM     23  S   UNL     1      -1.642  -7.295   0.766  0.00  0.00    -0.033 S 
BRANCH  22  24
ATOM     24  S   UNL     1      -4.670  -8.348   0.679  0.00  0.00    -0.092 S 
BRANCH  24  25
ATOM     25  C   UNL     1      -6.207  -7.421   0.417  0.00  0.00    +0.113 C 
BRANCH  25  26
ATOM     26  C   UNL     1      -7.378  -8.369   0.460  0.00  0.00    -0.019 A 
ATOM     27  C   UNL     1      -7.822  -8.971  -0.702  0.00  0.00    +0.006 A 
ATOM     28  C   UNL     1      -8.893  -9.844  -0.663  0.00  0.00    +0.000 A 
ATOM     29  C   UNL     1      -9.527 -10.107   0.537  0.00  0.00    +0.001 A 
ATOM     30  C   UNL     1      -9.088  -9.501   1.699  0.00  0.00    +0.020 A 
ATOM     31  C   UNL     1      -8.012  -8.632   1.661  0.00  0.00    +0.045 A 
ATOM     32 CL   UNL     1      -7.460  -7.870   3.119  0.00  0.00    -0.083 Cl
ENDBRANCH  25  26
ENDBRANCH  24  25
ENDBRANCH  22  24
ENDBRANCH  18  19
ENDBRANCH  17  18
ENDBRANCH   2  17
TORSDOF 10
