REMARK  Name = ZINC20558473
REMARK  5 active torsions:
REMARK  status: ('A' for Active; 'I' for Inactive)
REMARK    1  A    between atoms: C_5  and  C_7
REMARK    2  A    between atoms: C_9  and  C_33
REMARK    3  A    between atoms: C_10  and  N_32
REMARK    4  A    between atoms: N_17  and  C_24
REMARK    5  A    between atoms: C_24  and  C_25
REMARK                            x       y       z     vdW  Elec       q    Type
REMARK                         _______ _______ _______ _____ _____    ______ ____
ROOT
ATOM      1  C   UNL     1       4.199   0.473   0.363  0.00  0.00    +0.119 C 
ATOM      2  C   UNL     1       3.976  -0.717  -0.530  0.00  0.00    +0.099 C 
ATOM      3  C   UNL     1       2.731  -1.005  -0.985  0.00  0.00    +0.199 C 
ATOM      4  O   UNL     1       1.675  -0.246  -0.651  0.00  0.00    -0.439 OA
ATOM      5  C   UNL     1       1.855   1.028  -0.213  0.00  0.00    +0.162 C 
ATOM      6  C   UNL     1       3.031   1.414   0.275  0.00  0.00    +0.141 C 
ATOM      7  S   UNL     1       3.216   3.083   0.832  0.00  0.00    +0.076 S 
ATOM      8  O   UNL     1       4.497   3.525   0.404  0.00  0.00    -0.150 OA
ATOM      9  O   UNL     1       2.805   3.116   2.191  0.00  0.00    -0.150 OA
ATOM     10  N   UNL     1       2.088   3.946  -0.039  0.00  0.00    -0.198 N 
ATOM     11  C   UNL     1       0.837   3.346  -0.228  0.00  0.00    +0.062 A 
ATOM     12  C   UNL     1       0.705   1.959  -0.298  0.00  0.00    +0.042 A 
ATOM     13  C   UNL     1      -0.572   1.407  -0.465  0.00  0.00    +0.013 A 
ATOM     14  C   UNL     1      -1.675   2.225  -0.571  0.00  0.00    +0.001 A 
ATOM     15  C   UNL     1      -1.534   3.601  -0.502  0.00  0.00    +0.002 A 
ATOM     16  C   UNL     1      -0.283   4.161  -0.335  0.00  0.00    +0.025 A 
ENDROOT
BRANCH   1  21
ATOM     17  C   UNL     1       3.473  -1.105   3.715  0.00  0.00    +0.000 A 
ATOM     18  C   UNL     1       4.647  -0.851   4.400  0.00  0.00    +0.001 A 
ATOM     19  C   UNL     1       5.676  -0.170   3.780  0.00  0.00    +0.020 A 
ATOM     20  C   UNL     1       5.532   0.260   2.472  0.00  0.00    +0.045 A 
ATOM     21  C   UNL     1       4.357   0.005   1.787  0.00  0.00    -0.015 A 
ATOM     22  C   UNL     1       3.326  -0.672   2.410  0.00  0.00    +0.006 A 
ATOM     23 CL   UNL     1       6.825   1.116   1.692  0.00  0.00    -0.083 Cl
ENDBRANCH   1  21
BRANCH   3  24
ATOM     24  N   UNL     1       2.547  -2.093  -1.802  0.00  0.00    -0.328 N 
ATOM     25  H   UNL     1       1.542  -2.336  -2.176  0.00  0.00    +0.145 HD
ATOM     26  H   UNL     1       3.405  -2.721  -2.082  0.00  0.00    +0.145 HD
ENDBRANCH   3  24
BRANCH   2  27
ATOM     27  C   UNL     1       5.082  -1.547  -0.902  0.00  0.00    +0.101 C 
ATOM     28  N   UNL     1       5.959  -2.206  -1.197  0.00  0.00    -0.191 NA
ENDBRANCH   2  27
BRANCH  10  29
ATOM     29  C   UNL     1       2.392   5.272  -0.582  0.00  0.00    +0.166 C 
BRANCH  29  30
ATOM     30  C   UNL     1       2.808   5.141  -2.025  0.00  0.00    -0.028 A 
ATOM     31  C   UNL     1       4.149   5.078  -2.353  0.00  0.00    +0.008 A 
ATOM     32  C   UNL     1       4.532   4.953  -3.675  0.00  0.00    +0.038 A 
ATOM     33  C   UNL     1       3.572   4.901  -4.672  0.00  0.00    +0.123 A 
ATOM     34  C   UNL     1       2.229   4.970  -4.342  0.00  0.00    +0.038 A 
ATOM     35  C   UNL     1       1.848   5.090  -3.018  0.00  0.00    +0.008 A 
ATOM     36  F   UNL     1       3.945   4.784  -5.965  0.00  0.00    -0.205 F 
ENDBRANCH  29  30
ENDBRANCH  10  29
TORSDOF 5
