REMARK  Name = ZINC08987067
REMARK  17 active torsions:
REMARK  status: ('A' for Active; 'I' for Inactive)
REMARK    1  A    between atoms: C_1  and  C_2
REMARK    2  A    between atoms: C_2  and  C_3
REMARK    3  A    between atoms: C_2  and  O_4
REMARK    4  A    between atoms: O_4  and  C_5
REMARK    5  A    between atoms: C_8  and  C_11
REMARK    6  A    between atoms: C_14  and  C_15
REMARK    7  A    between atoms: C_14  and  O_25
REMARK    8  A    between atoms: C_18  and  O_21
REMARK    9  A    between atoms: O_21  and  C_22
REMARK   10  A    between atoms: C_22  and  C_23
REMARK   11  A    between atoms: C_22  and  C_24
REMARK   12  A    between atoms: N_30  and  C_31
REMARK   13  A    between atoms: C_31  and  C_32
REMARK   14  A    between atoms: C_32  and  C_33
REMARK   15  A    between atoms: C_33  and  N_71
REMARK   16  A    between atoms: C_34  and  N_71
REMARK   17  A    between atoms: C_35  and  N_71
REMARK                            x       y       z     vdW  Elec       q    Type
REMARK                         _______ _______ _______ _____ _____    ______ ____
ROOT
ATOM      1  C   UNL     1       1.396   2.898  -0.751  0.00  0.00    +0.144 C 
ATOM      2  C   UNL     1       1.513   3.315  -2.199  0.00  0.00    +0.071 C 
ATOM      3  C   UNL     1       0.961   2.677  -3.294  0.00  0.00    +0.133 C 
ATOM      4  C   UNL     1       2.295   4.479  -2.209  0.00  0.00    +0.249 C 
ATOM      5  O   UNL     1       2.614   5.118  -3.196  0.00  0.00    -0.282 OA
ATOM      6  C   UNL     1       2.668   4.799  -0.804  0.00  0.00    +0.288 C 
ATOM      7  O   UNL     1       3.345   5.747  -0.463  0.00  0.00    -0.266 OA
ATOM      8  N   UNL     1       2.147   3.884   0.032  0.00  0.00    -0.284 N 
ENDROOT
BRANCH   1  12
ATOM      9  C   UNL     1       3.080  -0.993  -0.219  0.00  0.00    +0.121 A 
ATOM     10  C   UNL     1       1.703  -0.834  -0.281  0.00  0.00    +0.046 A 
ATOM     11  C   UNL     1       1.161   0.425  -0.451  0.00  0.00    +0.009 A 
ATOM     12  C   UNL     1       1.990   1.526  -0.559  0.00  0.00    -0.022 A 
ATOM     13  C   UNL     1       3.362   1.371  -0.498  0.00  0.00    +0.009 A 
ATOM     14  C   UNL     1       3.909   0.114  -0.328  0.00  0.00    +0.046 A 
BRANCH   9  15
ATOM     15  O   UNL     1       3.615  -2.231  -0.052  0.00  0.00    -0.489 OA
BRANCH  15  17
ATOM     16  C   UNL     1       2.271  -3.793  -1.315  0.00  0.00    +0.051 C 
ATOM     17  C   UNL     1       2.701  -3.322   0.076  0.00  0.00    +0.167 C 
ATOM     18  C   UNL     1       3.382  -4.474   0.817  0.00  0.00    +0.051 C 
ENDBRANCH  15  17
ENDBRANCH   9  15
ENDBRANCH   1  12
BRANCH   3  19
ATOM     19  C   UNL     1       1.044   3.296  -4.625  0.00  0.00    +0.017 A 
ATOM     20  C   UNL     1       0.532   4.582  -4.835  0.00  0.00    +0.015 A 
ATOM     21  C   UNL     1       0.617   5.159  -6.082  0.00  0.00    +0.046 A 
ATOM     22  C   UNL     1       1.201   4.463  -7.135  0.00  0.00    +0.121 A 
ATOM     23  C   UNL     1       1.707   3.183  -6.932  0.00  0.00    +0.046 A 
ATOM     24  C   UNL     1       1.632   2.600  -5.688  0.00  0.00    +0.015 A 
BRANCH  22  25
ATOM     25  O   UNL     1       1.278   5.034  -8.363  0.00  0.00    -0.489 OA
BRANCH  25  26
ATOM     26  C   UNL     1       0.635   6.299  -8.531  0.00  0.00    +0.167 C 
ATOM     27  C   UNL     1       1.577   7.415  -8.075  0.00  0.00    +0.051 C 
ATOM     28  C   UNL     1       0.284   6.500 -10.007  0.00  0.00    +0.051 C 
ENDBRANCH  25  26
ENDBRANCH  22  25
ENDBRANCH   3  19
BRANCH   3  29
ATOM     29  O   UNL     1       0.345   1.486  -3.141  0.00  0.00    -0.506 OA
ATOM     30  H   UNL     1       0.006   1.169  -4.027  0.00  0.00    +0.292 HD
ENDBRANCH   3  29
BRANCH   8  31
ATOM     31  C   UNL     1       2.303   3.873   1.488  0.00  0.00    +0.107 C 
BRANCH  31  32
ATOM     32  C   UNL     1       3.549   3.068   1.862  0.00  0.00    +0.000 C 
BRANCH  32  33
ATOM     33  C   UNL     1       3.712   3.058   3.383  0.00  0.00    -0.078 C 
BRANCH  33  36
ATOM     34  C   UNL     1       5.234   2.446   5.165  0.00  0.00    -0.097 C 
ATOM     35  C   UNL     1       4.742   0.866   3.398  0.00  0.00    -0.097 C 
ATOM     36  N   UNL     1       4.931   2.295   3.726  0.00  0.00    +0.376 N 
ATOM     37  H   UNL     1       5.719   2.662   3.179  0.00  0.00    -0.083 HD
ENDBRANCH  33  36
ENDBRANCH  32  33
ENDBRANCH  31  32
ENDBRANCH   8  31
TORSDOF 11
