REMARK  Name = ZINC21868866
REMARK  13 active torsions:
REMARK  status: ('A' for Active; 'I' for Inactive)
REMARK    1  A    between atoms: C_1  and  C_2
REMARK    2  A    between atoms: C_7  and  C_9
REMARK    3  A    between atoms: C_7  and  C_10
REMARK    4  A    between atoms: N_13  and  C_17
REMARK    5  A    between atoms: C_17  and  C_18
REMARK    6  A    between atoms: C_18  and  O_20
REMARK    7  A    between atoms: O_20  and  C_21
REMARK    8  A    between atoms: C_21  and  C_23
REMARK    9  A    between atoms: C_21  and  C_24
REMARK   10  A    between atoms: N_26  and  C_27
REMARK   11  A    between atoms: C_30  and  C_33
REMARK   12  A    between atoms: C_33  and  C_34
REMARK   13  A    between atoms: C_33  and  C_35
REMARK                            x       y       z     vdW  Elec       q    Type
REMARK                         _______ _______ _______ _____ _____    ______ ____
ROOT
ATOM      1  C   UNL     1      -5.028  -3.572  -3.347  0.00  0.00    +0.326 C 
ATOM      2  O   UNL     1      -4.715  -2.428  -3.578  0.00  0.00    -0.249 OA
ENDROOT
BRANCH   1   3
ATOM      3  C   UNL     1      -4.227  -4.388  -2.366  0.00  0.00    +0.238 C 
BRANCH   3  15
ATOM      4  C   UNL     1      -0.711   1.506  -0.594  0.00  0.00    +0.007 C 
ATOM      5  C   UNL     1      -0.592  -0.018  -0.526  0.00  0.00    -0.011 C 
ATOM      6  C   UNL     1      -1.982  -0.645  -0.656  0.00  0.00    +0.038 C 
ATOM      7  C   UNL     1      -1.866  -2.163  -0.568  0.00  0.00    +0.113 C 
ATOM      8  C   UNL     1      -1.232  -2.580   0.754  0.00  0.00    +0.041 C 
ATOM      9  C   UNL     1       0.156  -1.946   0.879  0.00  0.00    -0.032 C 
ATOM     10  C   UNL     1       0.026  -0.422   0.813  0.00  0.00    +0.009 C 
ATOM     11  C   UNL     1       0.782  -2.348   2.215  0.00  0.00    +0.011 C 
ATOM     12  C   UNL     1       1.044  -2.432  -0.268  0.00  0.00    +0.011 C 
ATOM     13  C   UNL     1      -3.224  -2.806  -0.729  0.00  0.00    +0.247 C 
ATOM     14  O   UNL     1      -4.194  -2.661  -0.015  0.00  0.00    -0.273 OA
ATOM     15  N   UNL     1      -3.131  -3.575  -1.833  0.00  0.00    -0.213 N 
ATOM     16  C   UNL     1      -1.912  -3.503  -2.382  0.00  0.00    +0.310 C 
ATOM     17  O   UNL     1      -1.586  -4.107  -3.385  0.00  0.00    -0.252 OA
ATOM     18  N   UNL     1      -1.088  -2.686  -1.699  0.00  0.00    -0.285 N 
ATOM     19  H   UNL     1      -0.164  -2.482  -1.911  0.00  0.00    +0.151 HD
ENDBRANCH   3  15
ENDBRANCH   1   3
BRANCH   1  20
ATOM     20  O   UNL     1      -6.088  -4.115  -3.964  0.00  0.00    -0.451 OA
BRANCH  20  21
ATOM     21  C   UNL     1      -6.801  -3.284  -4.882  0.00  0.00    +0.259 C 
ATOM     22  C   UNL     1      -6.202  -3.437  -6.281  0.00  0.00    +0.062 C 
BRANCH  21  23
ATOM     23  C   UNL     1      -8.251  -3.694  -4.909  0.00  0.00    +0.258 C 
ATOM     24  O   UNL     1      -8.636  -4.609  -4.212  0.00  0.00    -0.271 OA
ATOM     25  N   UNL     1      -9.120  -3.045  -5.709  0.00  0.00    -0.282 N 
ATOM     26  H   UNL     1      -8.800  -2.364  -6.322  0.00  0.00    +0.155 HD
BRANCH  25  27
ATOM     27  C   UNL     1     -10.484  -3.352  -5.655  0.00  0.00    +0.034 A 
ATOM     28  C   UNL     1     -11.255  -3.304  -6.809  0.00  0.00    +0.023 A 
ATOM     29  C   UNL     1     -12.601  -3.608  -6.753  0.00  0.00    +0.006 A 
ATOM     30  C   UNL     1     -13.182  -3.959  -5.548  0.00  0.00    -0.045 A 
ATOM     31  C   UNL     1     -12.418  -4.007  -4.396  0.00  0.00    +0.006 A 
ATOM     32  C   UNL     1     -11.070  -3.711  -4.448  0.00  0.00    +0.023 A 
BRANCH  30  33
ATOM     33  C   UNL     1     -14.651  -4.290  -5.490  0.00  0.00    +0.013 C 
ATOM     34  C   UNL     1     -14.831  -5.723  -4.986  0.00  0.00    +0.012 C 
ATOM     35  C   UNL     1     -15.354  -3.321  -4.537  0.00  0.00    +0.012 C 
ENDBRANCH  30  33
ENDBRANCH  25  27
ENDBRANCH  21  23
ENDBRANCH  20  21
ENDBRANCH   1  20
TORSDOF 7
