REMARK  Name = ZINC38546383
REMARK  11 active torsions:
REMARK  status: ('A' for Active; 'I' for Inactive)
REMARK    1  A    between atoms: C_1  and  C_2
REMARK    2  A    between atoms: C_2  and  C_3
REMARK    3  A    between atoms: C_5  and  C_16
REMARK    4  A    between atoms: C_6  and  N_8
REMARK    5  A    between atoms: C_9  and  C_11
REMARK    6  A    between atoms: C_16  and  C_18
REMARK    7  A    between atoms: C_16  and  N_25
REMARK    8  A    between atoms: C_28  and  C_31
REMARK    9  A    between atoms: C_31  and  O_33
REMARK   10  A    between atoms: O_33  and  C_34
REMARK   11  A    between atoms: C_34  and  C_35
REMARK                            x       y       z     vdW  Elec       q    Type
REMARK                         _______ _______ _______ _____ _____    ______ ____
ROOT
ATOM      1  C   UNL     1       0.584  -1.599   4.804  0.00  0.00    -0.004 C 
ENDROOT
BRANCH   1   2
ATOM      2  C   UNL     1       0.742  -0.408   5.714  0.00  0.00    -0.054 A 
ATOM      3  C   UNL     1      -0.179   0.622   5.671  0.00  0.00    +0.002 A 
ATOM      4  C   UNL     1      -0.035   1.714   6.506  0.00  0.00    +0.003 A 
ATOM      5  C   UNL     1       1.031   1.779   7.383  0.00  0.00    +0.038 A 
ATOM      6  C   UNL     1       1.954   0.748   7.427  0.00  0.00    +0.124 A 
ATOM      7  C   UNL     1       1.805  -0.349   6.595  0.00  0.00    +0.040 A 
ATOM      8  F   UNL     1       2.997   0.810   8.284  0.00  0.00    -0.205 F 
ENDBRANCH   1   2
BRANCH   1   9
ATOM      9  N   UNL     1      -0.836  -1.963   4.717  0.00  0.00    +0.387 N 
ATOM     10  C   UNL     1      -1.339  -2.291   6.057  0.00  0.00    -0.077 C 
ATOM     11  C   UNL     1      -2.837  -2.593   5.984  0.00  0.00    -0.004 C 
ATOM     12  C   UNL     1      -3.068  -3.781   5.046  0.00  0.00    +0.094 C 
ATOM     13  C   UNL     1      -2.474  -3.456   3.672  0.00  0.00    -0.004 C 
ATOM     14  C   UNL     1      -0.989  -3.123   3.830  0.00  0.00    -0.077 C 
ATOM     15  H   UNL     1      -1.360  -1.185   4.345  0.00  0.00    -0.080 HD
BRANCH  12  16
ATOM     16  C   UNL     1      -4.547  -4.034   4.908  0.00  0.00    +0.310 C 
ATOM     17  O   UNL     1      -5.337  -3.337   5.500  0.00  0.00    -0.251 OA
BRANCH  16  18
ATOM     18  O   UNL     1      -4.987  -5.034   4.129  0.00  0.00    -0.465 OA
BRANCH  18  19
ATOM     19  C   UNL     1      -6.402  -5.217   4.045  0.00  0.00    +0.229 C 
ATOM     20  C   UNL     1      -6.710  -6.395   3.118  0.00  0.00    +0.048 C 
ENDBRANCH  18  19
ENDBRANCH  16  18
ENDBRANCH  12  16
ENDBRANCH   1   9
BRANCH   1  23
ATOM     21  C   UNL     1       0.731  -0.503   1.223  0.00  0.00    -0.008 A 
ATOM     22  C   UNL     1       0.235  -0.806   2.447  0.00  0.00    +0.015 A 
ATOM     23  C   UNL     1       1.099  -1.253   3.430  0.00  0.00    -0.028 A 
ATOM     24  C   UNL     1       2.423  -1.374   3.135  0.00  0.00    +0.074 A 
ATOM     25  S   UNL     1       2.469  -0.856   1.427  0.00  0.00    -0.078 S 
BRANCH  24  26
ATOM     26  N   UNL     1       3.472  -1.799   3.953  0.00  0.00    -0.273 N 
ATOM     27  C   UNL     1       4.728  -1.849   3.468  0.00  0.00    +0.284 C 
ATOM     28  O   UNL     1       4.949  -1.525   2.316  0.00  0.00    -0.266 OA
ATOM     29  H   UNL     1       3.296  -2.058   4.872  0.00  0.00    +0.156 HD
BRANCH  27  30
ATOM     30  C   UNL     1       5.829  -2.296   4.327  0.00  0.00    +0.189 A 
ATOM     31  C   UNL     1       7.142  -2.389   3.966  0.00  0.00    +0.054 A 
ATOM     32  C   UNL     1       7.839  -2.854   5.092  0.00  0.00    +0.042 A 
ATOM     33  C   UNL     1       6.932  -3.023   6.079  0.00  0.00    +0.196 A 
ATOM     34  O   UNL     1       5.722  -2.681   5.616  0.00  0.00    -0.458 OA
ENDBRANCH  27  30
ENDBRANCH  24  26
BRANCH  21  36
ATOM     35  C   UNL     1      -0.019   1.526   0.010  0.00  0.00    +0.009 C 
ATOM     36  C   UNL     1       0.002  -0.004   0.002  0.00  0.00    +0.039 C 
ENDBRANCH  21  36
ENDBRANCH   1  23
TORSDOF 9
