REMARK  Name = ZINC13026000
REMARK  12 active torsions:
REMARK  status: ('A' for Active; 'I' for Inactive)
REMARK    1  A    between atoms: C_1  and  C_2
REMARK    2  A    between atoms: C_2  and  C_4
REMARK    3  A    between atoms: C_7  and  N_10
REMARK    4  A    between atoms: N_10  and  C_11
REMARK    5  A    between atoms: C_11  and  C_13
REMARK    6  A    between atoms: C_11  and  C_23
REMARK    7  A    between atoms: C_17  and  O_21
REMARK    8  A    between atoms: C_18  and  O_19
REMARK    9  A    between atoms: O_19  and  C_20
REMARK   10  A    between atoms: O_21  and  C_22
REMARK   11  A    between atoms: N_25  and  C_26
REMARK   12  A    between atoms: C_31  and  C_33
REMARK                            x       y       z     vdW  Elec       q    Type
REMARK                         _______ _______ _______ _____ _____    ______ ____
ROOT
ATOM      1  C   UNL     1      -5.003  -4.389   0.017  0.00  0.00    +0.201 C 
ENDROOT
BRANCH   1   2
ATOM      2  C   UNL     1      -5.739  -4.753   1.281  0.00  0.00    +0.027 A 
ATOM      3  C   UNL     1      -6.572  -3.830   1.886  0.00  0.00    +0.010 A 
ATOM      4  C   UNL     1      -7.248  -4.160   3.045  0.00  0.00    +0.004 A 
ATOM      5  C   UNL     1      -7.096  -5.416   3.604  0.00  0.00    +0.049 A 
ATOM      6  C   UNL     1      -6.263  -6.345   3.003  0.00  0.00    +0.162 A 
ATOM      7  C   UNL     1      -5.586  -6.015   1.833  0.00  0.00    +0.167 A 
BRANCH   7   8
ATOM      8  O   UNL     1      -4.772  -6.926   1.235  0.00  0.00    -0.491 OA
ATOM      9  C   UNL     1      -3.403  -6.938   1.644  0.00  0.00    +0.277 C 
ENDBRANCH   7   8
BRANCH   6  10
ATOM     10  O   UNL     1      -6.112  -7.580   3.552  0.00  0.00    -0.491 OA
ATOM     11  C   UNL     1      -6.841  -7.852   4.750  0.00  0.00    +0.277 C 
ENDBRANCH   6  10
ENDBRANCH   1   2
BRANCH   1  12
ATOM     12  C   UNL     1      -5.742  -4.944  -1.173  0.00  0.00    +0.239 C 
ATOM     13  O   UNL     1      -6.020  -4.220  -2.106  0.00  0.00    -0.273 OA
ATOM     14  N   UNL     1      -6.095  -6.245  -1.201  0.00  0.00    -0.311 N 
ATOM     15  H   UNL     1      -5.872  -6.823  -0.455  0.00  0.00    +0.149 HD
BRANCH  14  16
ATOM     16  C   UNL     1      -6.814  -6.784  -2.358  0.00  0.00    +0.073 C 
ATOM     17  C   UNL     1      -8.333  -6.601  -2.168  0.00  0.00    +0.022 C 
ATOM     18  C   UNL     1      -8.950  -7.885  -2.775  0.00  0.00    +0.002 C 
ATOM     19  C   UNL     1      -7.942  -8.982  -2.351  0.00  0.00    +0.002 C 
ATOM     20  C   UNL     1      -6.564  -8.298  -2.474  0.00  0.00    +0.022 C 
ENDBRANCH  14  16
ENDBRANCH   1  12
BRANCH   1  21
ATOM     21  N   UNL     1      -4.919  -2.931  -0.096  0.00  0.00    -0.249 N 
ATOM     22  C   UNL     1      -4.045  -2.245   0.666  0.00  0.00    +0.287 C 
ATOM     23  O   UNL     1      -3.257  -2.842   1.377  0.00  0.00    -0.266 OA
BRANCH  21  27
ATOM     24  C   UNL     1      -7.376  -0.911  -2.768  0.00  0.00    +0.017 A 
ATOM     25  C   UNL     1      -7.934  -1.600  -1.684  0.00  0.00    +0.013 A 
ATOM     26  C   UNL     1      -7.122  -2.264  -0.808  0.00  0.00    +0.024 A 
ATOM     27  C   UNL     1      -5.742  -2.254  -0.992  0.00  0.00    +0.038 A 
ATOM     28  C   UNL     1      -5.183  -1.570  -2.067  0.00  0.00    +0.024 A 
ATOM     29  C   UNL     1      -5.988  -0.909  -2.952  0.00  0.00    +0.013 A 
BRANCH  24  31
ATOM     30  C   UNL     1      -9.739  -0.200  -3.513  0.00  0.00    +0.091 C 
ATOM     31  C   UNL     1      -8.245  -0.197  -3.712  0.00  0.00    +0.160 C 
ATOM     32  O   UNL     1      -7.760   0.396  -4.653  0.00  0.00    -0.292 OA
ENDBRANCH  24  31
ENDBRANCH  21  27
BRANCH  22  33
ATOM     33  C   UNL     1      -4.042  -0.779   0.639  0.00  0.00    +0.190 A 
ATOM     34  C   UNL     1      -3.144   0.034   1.272  0.00  0.00    +0.054 A 
ATOM     35  C   UNL     1      -3.518   1.354   0.976  0.00  0.00    +0.042 A 
ATOM     36  C   UNL     1      -4.612   1.290   0.187  0.00  0.00    +0.196 A 
ATOM     37  O   UNL     1      -4.922   0.004  -0.019  0.00  0.00    -0.458 OA
ENDBRANCH  22  33
ENDBRANCH   1  21
TORSDOF 9
