REMARK  Name = ZINC34749753
REMARK  8 active torsions:
REMARK  status: ('A' for Active; 'I' for Inactive)
REMARK    1  A    between atoms: C_1  and  C_2
REMARK    2  A    between atoms: C_5  and  C_35
REMARK    3  A    between atoms: C_6  and  C_8
REMARK    4  A    between atoms: C_8  and  N_9
REMARK    5  A    between atoms: C_19  and  C_22
REMARK    6  A    between atoms: N_30  and  C_31
REMARK    7  A    between atoms: C_31  and  C_32
REMARK    8  A    between atoms: C_32  and  C_34
REMARK                            x       y       z     vdW  Elec       q    Type
REMARK                         _______ _______ _______ _____ _____    ______ ____
ROOT
ATOM      1  N   UNL     1       1.369  -3.204   3.158  0.00  0.00    +0.384 N 
ATOM      2  C   UNL     1       2.190  -2.026   3.467  0.00  0.00    -0.059 C 
ATOM      3  C   UNL     1       3.666  -2.432   3.519  0.00  0.00    +0.089 C 
ATOM      4  N   UNL     1       3.811  -3.541   4.476  0.00  0.00    -0.304 N 
ATOM      5  C   UNL     1       2.912  -4.697   4.338  0.00  0.00    +0.089 C 
ATOM      6  C   UNL     1       1.471  -4.183   4.247  0.00  0.00    -0.059 C 
ATOM      7  C   UNL     1       4.758  -3.497   5.468  0.00  0.00    +0.202 A 
ATOM      8  N   UNL     1       4.520  -2.806   6.563  0.00  0.00    -0.208 NA
ATOM      9  C   UNL     1       5.417  -2.746   7.541  0.00  0.00    +0.118 A 
ATOM     10  C   UNL     1       6.654  -3.410   7.459  0.00  0.00    +0.080 A 
ATOM     11  C   UNL     1       7.523  -3.240   8.619  0.00  0.00    +0.004 A 
ATOM     12  C   UNL     1       7.089  -2.483   9.653  0.00  0.00    +0.056 A 
ATOM     13  S   UNL     1       5.473  -1.948   9.124  0.00  0.00    -0.076 S 
ATOM     14  C   UNL     1       6.884  -4.151   6.259  0.00  0.00    +0.264 A 
ATOM     15  O   UNL     1       7.929  -4.758   6.099  0.00  0.00    -0.267 OA
ATOM     16  N   UNL     1       5.930  -4.175   5.309  0.00  0.00    -0.276 N 
ATOM     17  H   UNL     1       1.695  -3.622   2.300  0.00  0.00    -0.081 HD
ENDROOT
BRANCH  11  18
ATOM     18  C   UNL     1       8.856  -3.886   8.664  0.00  0.00    -0.017 A 
ATOM     19  C   UNL     1       8.987  -5.243   8.368  0.00  0.00    +0.008 A 
ATOM     20  C   UNL     1      10.231  -5.839   8.411  0.00  0.00    +0.001 A 
ATOM     21  C   UNL     1      11.347  -5.093   8.747  0.00  0.00    +0.000 A 
ATOM     22  C   UNL     1      11.223  -3.748   9.042  0.00  0.00    +0.001 A 
ATOM     23  C   UNL     1       9.985  -3.139   8.996  0.00  0.00    +0.008 A 
ENDBRANCH  11  18
BRANCH   1  24
ATOM     24  C   UNL     1      -0.033  -2.794   3.000  0.00  0.00    -0.043 C 
BRANCH  24  30
ATOM     25  C   UNL     1      -0.416   1.813   1.083  0.00  0.00    +0.044 C 
ATOM     26  C   UNL     1      -0.342   0.321   0.888  0.00  0.00    -0.050 A 
ATOM     27  C   UNL     1      -0.389  -0.213  -0.386  0.00  0.00    +0.003 A 
ATOM     28  C   UNL     1      -0.321  -1.582  -0.564  0.00  0.00    +0.004 A 
ATOM     29  C   UNL     1      -0.206  -2.417   0.531  0.00  0.00    -0.049 A 
ATOM     30  C   UNL     1      -0.158  -1.883   1.805  0.00  0.00    -0.061 A 
ATOM     31  C   UNL     1      -0.221  -0.514   1.984  0.00  0.00    +0.005 A 
ATOM     32  C   UNL     1      -0.133  -3.910   0.337  0.00  0.00    +0.044 C 
ENDBRANCH  24  30
ENDBRANCH   1  24
BRANCH  16  33
ATOM     33  C   UNL     1       6.159  -4.938   4.080  0.00  0.00    +0.158 C 
BRANCH  33  34
ATOM     34  C   UNL     1       6.969  -4.108   3.117  0.00  0.00    -0.060 C 
ATOM     35  C   UNL     1       8.273  -4.226   3.087  0.00  0.00    +0.009 C 
ATOM     36  C   UNL     1       6.278  -3.143   2.188  0.00  0.00    +0.040 C 
ENDBRANCH  33  34
ENDBRANCH  16  33
TORSDOF 5
