REMARK  Name = ZINC59888602
REMARK  11 active torsions:
REMARK  status: ('A' for Active; 'I' for Inactive)
REMARK    1  A    between atoms: C_1  and  N_2
REMARK    2  A    between atoms: N_2  and  C_3
REMARK    3  A    between atoms: N_2  and  C_30
REMARK    4  A    between atoms: C_3  and  C_4
REMARK    5  A    between atoms: C_9  and  C_10
REMARK    6  A    between atoms: C_10  and  N_11
REMARK    7  A    between atoms: C_12  and  C_14
REMARK    8  A    between atoms: C_14  and  C_15
REMARK    9  A    between atoms: C_15  and  C_16
REMARK   10  A    between atoms: C_16  and  N_17
REMARK   11  A    between atoms: C_21  and  N_27
REMARK                            x       y       z     vdW  Elec       q    Type
REMARK                         _______ _______ _______ _____ _____    ______ ____
ROOT
ATOM      1  N   UNL     1      -0.721  -3.197   2.342  0.00  0.00    -0.311 N 
ATOM      2  C   UNL     1      -0.915  -4.385   1.734  0.00  0.00    +0.213 C 
ATOM      3  O   UNL     1      -1.797  -4.508   0.911  0.00  0.00    -0.276 OA
ATOM      4  H   UNL     1      -0.016  -3.099   3.000  0.00  0.00    +0.149 HD
ENDROOT
BRANCH   1   5
ATOM      5  C   UNL     1      -1.575  -2.055   2.007  0.00  0.00    +0.139 C 
BRANCH   5  11
ATOM      6  C   UNL     1      -0.059  -0.109   2.429  0.00  0.00    -0.059 A 
ATOM      7  C   UNL     1       0.324   0.993   3.171  0.00  0.00    +0.002 A 
ATOM      8  C   UNL     1      -0.384   1.343   4.305  0.00  0.00    +0.000 A 
ATOM      9  C   UNL     1      -1.476   0.591   4.698  0.00  0.00    +0.000 A 
ATOM     10  C   UNL     1      -1.859  -0.510   3.956  0.00  0.00    +0.005 A 
ATOM     11  C   UNL     1      -1.154  -0.858   2.819  0.00  0.00    -0.029 A 
BRANCH   6  12
ATOM     12  C   UNL     1       0.713  -0.491   1.192  0.00  0.00    -0.043 C 
BRANCH  12  14
ATOM     13  C   UNL     1      -0.018   1.465   0.010  0.00  0.00    -0.095 C 
ATOM     14  N   UNL     1       0.002  -0.004   0.002  0.00  0.00    +0.382 N 
ATOM     15  H   UNL     1      -0.945  -0.353   0.009  0.00  0.00    -0.081 HD
BRANCH  14  16
ATOM     16  C   UNL     1       0.690  -0.478  -1.207  0.00  0.00    -0.069 C 
ATOM     17  C   UNL     1      -0.050   0.029  -2.446  0.00  0.00    -0.015 C 
ATOM     18  C   UNL     1       0.666  -0.464  -3.705  0.00  0.00    -0.002 C 
ATOM     19  C   UNL     1       0.687  -1.994  -3.713  0.00  0.00    -0.000 C 
ATOM     20  C   UNL     1       1.427  -2.501  -2.474  0.00  0.00    -0.002 C 
ATOM     21  C   UNL     1       0.710  -2.008  -1.215  0.00  0.00    -0.015 C 
ENDBRANCH  14  16
ENDBRANCH  12  14
ENDBRANCH   6  12
ENDBRANCH   5  11
ENDBRANCH   1   5
BRANCH   2  22
ATOM     22  C   UNL     1      -0.036  -5.560   2.079  0.00  0.00    +0.097 C 
BRANCH  22  23
ATOM     23  C   UNL     1      -0.465  -6.776   1.254  0.00  0.00    +0.031 C 
BRANCH  23  24
ATOM     24  C   UNL     1       0.428  -7.968   1.604  0.00  0.00    +0.129 C 
BRANCH  24  25
ATOM     25  N   UNL     1       0.018  -9.133   0.815  0.00  0.00    -0.274 N 
ATOM     26  C   UNL     1      -0.934 -10.084   1.181  0.00  0.00    +0.090 A 
ATOM     27  C   UNL     1      -1.739 -10.243   2.298  0.00  0.00    +0.032 A 
ATOM     28  C   UNL     1      -2.607 -11.316   2.372  0.00  0.00    +0.035 A 
ATOM     29  C   UNL     1      -2.673 -12.230   1.335  0.00  0.00    +0.130 A 
ATOM     30  C   UNL     1      -1.874 -12.077   0.219  0.00  0.00    +0.081 A 
ATOM     31  C   UNL     1      -1.001 -11.004   0.135  0.00  0.00    +0.159 A 
ATOM     32  O   UNL     1      -0.116 -10.604  -0.811  0.00  0.00    -0.407 OA
ATOM     33  C   UNL     1       0.488  -9.477  -0.401  0.00  0.00    +0.421 A 
ATOM     34  O   UNL     1       1.331  -8.864  -1.027  0.00  0.00    -0.223 OA
BRANCH  29  35
ATOM     35  N   UNL     1      -3.605 -13.377   1.423  0.00  0.00    +0.057 N 
ATOM     36  O   UNL     1      -4.305 -13.513   2.399  0.00  0.00    -0.126 OA
ATOM     37  O   UNL     1      -3.666 -14.177   0.519  0.00  0.00    -0.126 OA
ENDBRANCH  29  35
ENDBRANCH  24  25
ENDBRANCH  23  24
ENDBRANCH  22  23
ENDBRANCH   2  22
TORSDOF 10
