REMARK  Name = ZINC13545051
REMARK  8 active torsions:
REMARK  status: ('A' for Active; 'I' for Inactive)
REMARK    1  A    between atoms: C_1  and  C_2
REMARK    2  A    between atoms: C_5  and  C_8
REMARK    3  A    between atoms: C_8  and  O_9
REMARK    4  A    between atoms: O_9  and  C_10
REMARK    5  A    between atoms: C_14  and  C_15
REMARK    6  A    between atoms: N_17  and  N_18
REMARK    7  A    between atoms: N_18  and  C_19
REMARK    8  A    between atoms: C_19  and  N_20
REMARK                            x       y       z     vdW  Elec       q    Type
REMARK                         _______ _______ _______ _____ _____    ______ ____
ROOT
ATOM      1  C   UNL     1       1.608  -6.078  -0.040  0.00  0.00    +0.140 A 
ATOM      2  C   UNL     1       0.559  -6.974  -0.045  0.00  0.00    +0.054 A 
ATOM      3  C   UNL     1       0.828  -8.301  -0.054  0.00  0.00    +0.049 A 
ATOM      4  S   UNL     1       2.505  -8.387  -0.056  0.00  0.00    -0.088 S 
ATOM      5  C   UNL     1       2.880  -6.644  -0.050  0.00  0.00    +0.117 A 
ENDROOT
BRANCH   5   6
ATOM      6  C   UNL     1       4.144  -6.002  -0.053  0.00  0.00    +0.270 C 
ATOM      7  O   UNL     1       4.209  -4.786  -0.047  0.00  0.00    -0.268 OA
ATOM      8  N   UNL     1       5.273  -6.737  -0.064  0.00  0.00    -0.231 N 
ATOM      9  H   UNL     1       5.221  -7.706  -0.069  0.00  0.00    +0.173 HD
BRANCH   8  10
ATOM     10  N   UNL     1       6.522  -6.103  -0.067  0.00  0.00    -0.246 N 
ATOM     11  H   UNL     1       6.574  -5.134  -0.062  0.00  0.00    +0.172 HD
BRANCH  10  12
ATOM     12  C   UNL     1       7.652  -6.838  -0.077  0.00  0.00    +0.144 C 
ATOM     13  S   UNL     1       9.178  -6.062  -0.081  0.00  0.00    -0.018 S 
BRANCH  12  14
ATOM     14  N   UNL     1       7.580  -8.184  -0.084  0.00  0.00    -0.340 N 
ATOM     15  H   UNL     1       6.715  -8.623  -0.082  0.00  0.00    +0.144 HD
ATOM     16  H   UNL     1       8.393  -8.713  -0.092  0.00  0.00    +0.144 HD
ENDBRANCH  12  14
ENDBRANCH  10  12
ENDBRANCH   8  10
ENDBRANCH   5   6
BRANCH   1  17
ATOM     17  O   UNL     1       1.413  -4.734  -0.032  0.00  0.00    -0.486 OA
BRANCH  17  18
ATOM     18  C   UNL     1       0.059  -4.275  -0.021  0.00  0.00    +0.264 C 
BRANCH  18  23
ATOM     19  C   UNL     1      -0.018   1.503   0.010  0.00  0.00    +0.044 C 
ATOM     20  C   UNL     1       0.002  -0.004   0.002  0.00  0.00    -0.050 A 
ATOM     21  C   UNL     1       0.006  -0.689  -1.199  0.00  0.00    +0.004 A 
ATOM     22  C   UNL     1       0.025  -2.071  -1.206  0.00  0.00    +0.007 A 
ATOM     23  C   UNL     1       0.040  -2.768  -0.013  0.00  0.00    -0.010 A 
ATOM     24  C   UNL     1       0.037  -2.084   1.188  0.00  0.00    +0.007 A 
ATOM     25  C   UNL     1       0.023  -0.702   1.195  0.00  0.00    +0.004 A 
ENDBRANCH  18  23
ENDBRANCH  17  18
ENDBRANCH   1  17
TORSDOF 7
