REMARK  Name = ZINC13523686
REMARK  7 active torsions:
REMARK  status: ('A' for Active; 'I' for Inactive)
REMARK    1  A    between atoms: C_1  and  O_2
REMARK    2  A    between atoms: O_2  and  C_3
REMARK    3  A    between atoms: C_6  and  C_9
REMARK    4  A    between atoms: C_9  and  C_24
REMARK    5  A    between atoms: C_11  and  C_17
REMARK    6  A    between atoms: C_27  and  O_31
REMARK    7  A    between atoms: C_29  and  O_30
REMARK                            x       y       z     vdW  Elec       q    Type
REMARK                         _______ _______ _______ _____ _____    ______ ____
ROOT
ATOM      1  C   UNL     1      -4.981  -2.629   0.035  0.00  0.00    +0.090 C 
ATOM      2  C   UNL     1      -4.635  -3.959   0.719  0.00  0.00    +0.065 C 
ATOM      3  C   UNL     1      -4.167  -3.670   2.146  0.00  0.00    +0.115 C 
ATOM      4  N   UNL     1      -5.118  -2.799   2.830  0.00  0.00    -0.360 N 
ATOM      5  C   UNL     1      -5.997  -2.004   2.166  0.00  0.00    +0.140 C 
ATOM      6  N   UNL     1      -6.068  -2.002   0.800  0.00  0.00    -0.311 N 
ATOM      7  S   UNL     1      -7.009  -1.013   3.032  0.00  0.00    -0.016 SA
ATOM      8  H   UNL     1      -6.822  -1.594   0.346  0.00  0.00    +0.149 HD
ATOM      9  H   UNL     1      -5.123  -2.788   3.800  0.00  0.00    +0.162 HD
ENDROOT
BRANCH   3  10
ATOM     10  C   UNL     1      -4.049  -4.967   2.904  0.00  0.00    -0.007 A 
ATOM     11  C   UNL     1      -5.101  -5.412   3.683  0.00  0.00    +0.007 A 
ATOM     12  C   UNL     1      -4.992  -6.602   4.377  0.00  0.00    +0.000 A 
ATOM     13  C   UNL     1      -3.832  -7.349   4.293  0.00  0.00    +0.001 A 
ATOM     14  C   UNL     1      -2.780  -6.906   3.514  0.00  0.00    +0.020 A 
ATOM     15  C   UNL     1      -2.890  -5.717   2.814  0.00  0.00    +0.046 A 
ATOM     16 CL   UNL     1      -1.571  -5.163   1.831  0.00  0.00    -0.083 Cl
ENDBRANCH   3  10
BRANCH   1  20
ATOM     17  C   UNL     1      -1.557  -0.072   0.022  0.00  0.00    +0.120 A 
ATOM     18  C   UNL     1      -2.830   0.472   0.098  0.00  0.00    +0.046 A 
ATOM     19  C   UNL     1      -3.936  -0.356   0.102  0.00  0.00    +0.009 A 
ATOM     20  C   UNL     1      -3.774  -1.728   0.030  0.00  0.00    -0.019 A 
ATOM     21  C   UNL     1      -2.505  -2.273  -0.045  0.00  0.00    +0.009 A 
ATOM     22  C   UNL     1      -1.397  -1.448  -0.055  0.00  0.00    +0.046 A 
BRANCH  17  24
ATOM     23  C   UNL     1      -0.708   2.147   0.101  0.00  0.00    +0.277 C 
ATOM     24  O   UNL     1      -0.468   0.741   0.018  0.00  0.00    -0.495 OA
ENDBRANCH  17  24
ENDBRANCH   1  20
BRANCH   1  25
ATOM     25  C   UNL     1      -5.434  -2.884  -1.380  0.00  0.00    +0.022 A 
ATOM     26  C   UNL     1      -4.756  -2.304  -2.436  0.00  0.00    +0.013 A 
ATOM     27  C   UNL     1      -5.169  -2.536  -3.734  0.00  0.00    +0.046 A 
ATOM     28  C   UNL     1      -6.264  -3.351  -3.981  0.00  0.00    +0.120 A 
ATOM     29  C   UNL     1      -6.945  -3.934  -2.923  0.00  0.00    +0.091 A 
ATOM     30  C   UNL     1      -6.526  -3.704  -1.621  0.00  0.00    +0.126 A 
BRANCH  30  31
ATOM     31  O   UNL     1      -7.188  -4.279  -0.582  0.00  0.00    -0.506 OA
ATOM     32  H   UNL     1      -7.915  -3.745  -0.236  0.00  0.00    +0.292 HD
ENDBRANCH  30  31
BRANCH  28  33
ATOM     33  O   UNL     1      -6.670  -3.578  -5.258  0.00  0.00    -0.507 OA
ATOM     34  H   UNL     1      -6.254  -4.347  -5.671  0.00  0.00    +0.292 HD
ENDBRANCH  28  33
ENDBRANCH   1  25
TORSDOF 6
