REMARK  Name = ZINC58492239
REMARK  7 active torsions:
REMARK  status: ('A' for Active; 'I' for Inactive)
REMARK    1  A    between atoms: C_1  and  C_2
REMARK    2  A    between atoms: C_5  and  C_26
REMARK    3  A    between atoms: C_6  and  C_8
REMARK    4  A    between atoms: C_8  and  C_10
REMARK    5  A    between atoms: C_10  and  S_11
REMARK    6  A    between atoms: S_11  and  C_12
REMARK    7  A    between atoms: C_23  and  C_25
REMARK                            x       y       z     vdW  Elec       q    Type
REMARK                         _______ _______ _______ _____ _____    ______ ____
ROOT
ATOM      1  C   UNL     1       1.143  -1.839   6.526  0.00  0.00    +0.192 A 
ATOM      2  N   UNL     1       1.019  -0.553   6.312  0.00  0.00    -0.222 NA
ATOM      3  C   UNL     1       1.127   0.354   7.312  0.00  0.00    +0.077 A 
ATOM      4  C   UNL     1       0.991   1.724   7.071  0.00  0.00    +0.028 A 
ATOM      5  C   UNL     1       1.107   2.616   8.112  0.00  0.00    +0.002 A 
ATOM      6  C   UNL     1       1.357   2.172   9.404  0.00  0.00    +0.001 A 
ATOM      7  C   UNL     1       1.495   0.827   9.668  0.00  0.00    +0.014 A 
ATOM      8  C   UNL     1       1.381  -0.094   8.629  0.00  0.00    +0.045 A 
ATOM      9  C   UNL     1       1.518  -1.538   8.850  0.00  0.00    +0.168 A 
ATOM     10  N   UNL     1       1.385  -2.363   7.766  0.00  0.00    -0.188 N 
ATOM     11  N   UNL     1       1.550  -3.667   8.253  0.00  0.00    -0.148 NA
ATOM     12  C   UNL     1       1.760  -3.573   9.543  0.00  0.00    +0.149 A 
ATOM     13  N   UNL     1       1.749  -2.292   9.903  0.00  0.00    -0.211 NA
ATOM     14  C   UNL     1       1.990  -4.736  10.473  0.00  0.00    +0.090 C 
ENDROOT
BRANCH   1  15
ATOM     15  S   UNL     1       0.987  -2.940   5.159  0.00  0.00    -0.078 S 
BRANCH  15  16
ATOM     16  C   UNL     1       0.679  -1.845   3.746  0.00  0.00    +0.157 C 
BRANCH  16  17
ATOM     17  C   UNL     1       0.524  -2.672   2.495  0.00  0.00    +0.174 C 
ATOM     18  O   UNL     1       0.612  -3.880   2.552  0.00  0.00    -0.291 OA
BRANCH  17  24
ATOM     19  C   UNL     1       0.057   1.497  -0.200  0.00  0.00    +0.044 C 
ATOM     20  C   UNL     1       0.039  -0.006  -0.099  0.00  0.00    -0.050 A 
ATOM     21  C   UNL     1      -0.222  -0.771  -1.223  0.00  0.00    +0.003 A 
ATOM     22  C   UNL     1      -0.240  -2.152  -1.140  0.00  0.00    +0.004 A 
ATOM     23  C   UNL     1       0.001  -2.778   0.065  0.00  0.00    -0.040 A 
ATOM     24  C   UNL     1       0.266  -2.012   1.205  0.00  0.00    +0.021 A 
ATOM     25  C   UNL     1       0.289  -0.617   1.112  0.00  0.00    +0.015 A 
ATOM     26  C   UNL     1      -0.020  -4.282   0.153  0.00  0.00    +0.044 C 
ENDBRANCH  17  24
ENDBRANCH  16  17
ENDBRANCH  15  16
ENDBRANCH   1  15
TORSDOF 4
