REMARK  Name = ZINC21755414
REMARK  10 active torsions:
REMARK  status: ('A' for Active; 'I' for Inactive)
REMARK    1  A    between atoms: C_1  and  N_2
REMARK    2  A    between atoms: N_2  and  C_3
REMARK    3  A    between atoms: N_2  and  C_4
REMARK    4  A    between atoms: C_7  and  C_10
REMARK    5  A    between atoms: C_10  and  C_12
REMARK    6  A    between atoms: C_10  and  N_26
REMARK    7  A    between atoms: C_12  and  N_13
REMARK    8  A    between atoms: N_13  and  S_14
REMARK    9  A    between atoms: S_14  and  C_17
REMARK   10  A    between atoms: C_21  and  N_23
REMARK                            x       y       z     vdW  Elec       q    Type
REMARK                         _______ _______ _______ _____ _____    ______ ____
ROOT
ATOM      1  C   UNL     1      -0.981   6.596  -3.600  0.00  0.00    -0.021 C 
ENDROOT
BRANCH   1   2
ATOM      2  N   UNL     1      -0.767   7.998  -3.215  0.00  0.00    +0.388 N 
ATOM      3  C   UNL     1      -0.769   8.875  -4.397  0.00  0.00    -0.073 C 
ATOM      4  C   UNL     1      -0.913  10.323  -3.927  0.00  0.00    +0.017 C 
ATOM      5  C   UNL     1       0.098  10.616  -2.848  0.00  0.00    -0.048 A 
ATOM      6  C   UNL     1       0.371  11.941  -2.541  0.00  0.00    +0.004 A 
ATOM      7  C   UNL     1       1.284  12.253  -1.554  0.00  0.00    +0.000 A 
ATOM      8  C   UNL     1       1.929  11.241  -0.868  0.00  0.00    +0.000 A 
ATOM      9  C   UNL     1       1.659   9.923  -1.175  0.00  0.00    +0.002 A 
ATOM     10  C   UNL     1       0.743   9.607  -2.167  0.00  0.00    -0.061 A 
ATOM     11  C   UNL     1       0.485   8.153  -2.469  0.00  0.00    -0.042 C 
ATOM     12  H   UNL     1      -1.598   8.294  -2.559  0.00  0.00    -0.080 HD
ENDBRANCH   1   2
BRANCH   1  16
ATOM     13  C   UNL     1      -4.801   6.199  -5.473  0.00  0.00    +0.029 A 
ATOM     14  C   UNL     1      -3.707   5.501  -5.969  0.00  0.00    +0.023 A 
ATOM     15  C   UNL     1      -2.474   5.632  -5.361  0.00  0.00    +0.004 A 
ATOM     16  C   UNL     1      -2.328   6.456  -4.260  0.00  0.00    -0.060 A 
ATOM     17  C   UNL     1      -3.416   7.147  -3.761  0.00  0.00    +0.004 A 
ATOM     18  C   UNL     1      -4.651   7.026  -4.367  0.00  0.00    +0.023 A 
BRANCH  13  20
ATOM     19  C   UNL     1      -6.183   5.293  -7.321  0.00  0.00    +0.129 C 
ATOM     20  N   UNL     1      -6.050   6.068  -6.085  0.00  0.00    -0.336 N 
ATOM     21  C   UNL     1      -7.227   6.707  -5.491  0.00  0.00    +0.129 C 
ENDBRANCH  13  20
ENDBRANCH   1  16
BRANCH   1  22
ATOM     22  C   UNL     1      -0.930   5.712  -2.352  0.00  0.00    +0.095 C 
BRANCH  22  23
ATOM     23  N   UNL     1      -1.045   4.306  -2.746  0.00  0.00    -0.191 NA
ATOM     24  H   UNL     1      -1.538   4.038  -3.692  0.00  0.00    +0.148 HD
BRANCH  23  25
ATOM     25  S   UNL     1      -0.661   3.110  -1.666  0.00  0.00    +0.058 S 
ATOM     26  O   UNL     1       0.605   3.449  -1.117  0.00  0.00    -0.153 OA
ATOM     27  O   UNL     1      -0.899   1.875  -2.327  0.00  0.00    -0.153 OA
BRANCH  25  28
ATOM     28  C   UNL     1      -1.825   3.207  -0.346  0.00  0.00    +0.107 A 
ATOM     29  C   UNL     1      -3.004   2.488  -0.410  0.00  0.00    +0.028 A 
ATOM     30  C   UNL     1      -3.917   2.564   0.625  0.00  0.00    +0.004 A 
ATOM     31  C   UNL     1      -3.651   3.359   1.724  0.00  0.00    +0.033 A 
ATOM     32  C   UNL     1      -2.474   4.082   1.785  0.00  0.00    +0.128 A 
ATOM     33  C   UNL     1      -1.559   4.002   0.752  0.00  0.00    +0.061 A 
BRANCH  32  34
ATOM     34  N   UNL     1      -2.192   4.938   2.959  0.00  0.00    +0.056 N 
ATOM     35  O   UNL     1      -2.997   5.005   3.872  0.00  0.00    -0.126 OA
ATOM     36  O   UNL     1      -1.155   5.575   3.014  0.00  0.00    -0.126 OA
ENDBRANCH  32  34
ENDBRANCH  25  28
ENDBRANCH  23  25
ENDBRANCH  22  23
ENDBRANCH   1  22
TORSDOF 8
