REMARK  Name = ZINC10001064
REMARK  13 active torsions:
REMARK  status: ('A' for Active; 'I' for Inactive)
REMARK    1  A    between atoms: C_1  and  C_2
REMARK    2  A    between atoms: C_2  and  C_3
REMARK    3  A    between atoms: C_2  and  C_4
REMARK    4  A    between atoms: C_4  and  C_6
REMARK    5  A    between atoms: C_4  and  N_27
REMARK    6  A    between atoms: N_8  and  N_9
REMARK    7  A    between atoms: C_10  and  C_11
REMARK    8  A    between atoms: C_14  and  O_17
REMARK    9  A    between atoms: O_17  and  C_18
REMARK   10  A    between atoms: C_18  and  C_19
REMARK   11  A    between atoms: C_22  and  O_25
REMARK   12  A    between atoms: O_25  and  C_26
REMARK   13  A    between atoms: C_28  and  C_30
REMARK                            x       y       z     vdW  Elec       q    Type
REMARK                         _______ _______ _______ _____ _____    ______ ____
ROOT
ATOM      1  C   UNL     1       6.950  -2.590   4.663  0.00  0.00    +0.253 C 
ATOM      2  O   UNL     1       5.896  -3.047   5.053  0.00  0.00    -0.272 OA
ATOM      3  N   UNL     1       8.082  -2.822   5.355  0.00  0.00    -0.205 N 
ATOM      4  H   UNL     1       8.913  -2.402   5.082  0.00  0.00    +0.177 HD
ENDROOT
BRANCH   3   5
ATOM      5  N   UNL     1       8.061  -3.671   6.470  0.00  0.00    -0.188 NA
ATOM      6  C   UNL     1       9.152  -3.894   7.137  0.00  0.00    +0.138 C 
BRANCH   6   7
ATOM      7  C   UNL     1       9.129  -4.787   8.310  0.00  0.00    -0.005 A 
ATOM      8  C   UNL     1       7.933  -5.389   8.709  0.00  0.00    +0.013 A 
ATOM      9  C   UNL     1       7.918  -6.227   9.803  0.00  0.00    +0.046 A 
ATOM     10  C   UNL     1       9.086  -6.465  10.515  0.00  0.00    +0.121 A 
ATOM     11  C   UNL     1      10.277  -5.864  10.125  0.00  0.00    +0.046 A 
ATOM     12  C   UNL     1      10.303  -5.029   9.029  0.00  0.00    +0.013 A 
BRANCH  10  13
ATOM     13  O   UNL     1       9.065  -7.287  11.596  0.00  0.00    -0.487 OA
BRANCH  13  14
ATOM     14  C   UNL     1       7.808  -7.872  11.942  0.00  0.00    +0.264 C 
BRANCH  14  15
ATOM     15  C   UNL     1       7.979  -8.746  13.158  0.00  0.00    -0.010 A 
ATOM     16  C   UNL     1       8.292 -10.084  13.007  0.00  0.00    +0.010 A 
ATOM     17  C   UNL     1       8.454 -10.886  14.120  0.00  0.00    +0.046 A 
ATOM     18  C   UNL     1       8.291 -10.351  15.389  0.00  0.00    +0.120 A 
ATOM     19  C   UNL     1       7.971  -9.009  15.537  0.00  0.00    +0.046 A 
ATOM     20  C   UNL     1       7.815  -8.210  14.422  0.00  0.00    +0.010 A 
BRANCH  18  21
ATOM     21  O   UNL     1       8.445 -11.139  16.485  0.00  0.00    -0.495 OA
ATOM     22  C   UNL     1       8.774 -12.511  16.257  0.00  0.00    +0.277 C 
ENDBRANCH  18  21
ENDBRANCH  14  15
ENDBRANCH  13  14
ENDBRANCH  10  13
ENDBRANCH   6   7
ENDBRANCH   3   5
BRANCH   1  23
ATOM     23  C   UNL     1       6.992  -1.764   3.404  0.00  0.00    +0.163 C 
BRANCH  23  24
ATOM     24  N   UNL     1       5.679  -1.154   3.175  0.00  0.00    -0.300 N 
ATOM     25  C   UNL     1       5.579  -0.020   2.454  0.00  0.00    +0.245 C 
ATOM     26  O   UNL     1       6.578   0.498   1.994  0.00  0.00    -0.270 OA
ATOM     27  H   UNL     1       4.882  -1.568   3.543  0.00  0.00    +0.150 HD
BRANCH  25  28
ATOM     28  C   UNL     1       4.257   0.594   2.224  0.00  0.00    +0.040 A 
ATOM     29  C   UNL     1       3.108  -0.000   2.752  0.00  0.00    +0.017 A 
ATOM     30  C   UNL     1       1.874   0.573   2.535  0.00  0.00    +0.050 A 
ATOM     31  C   UNL     1       1.767   1.742   1.793  0.00  0.00    +0.166 A 
ATOM     32  C   UNL     1       2.911   2.340   1.263  0.00  0.00    +0.167 A 
ATOM     33  C   UNL     1       4.151   1.769   1.477  0.00  0.00    +0.062 A 
ATOM     34  O   UNL     1       2.539   3.464   0.583  0.00  0.00    -0.453 OA
ATOM     35  C   UNL     1       1.211   3.771   1.045  0.00  0.00    +0.466 C 
ATOM     36  O   UNL     1       0.683   2.492   1.444  0.00  0.00    -0.453 OA
ENDBRANCH  25  28
ENDBRANCH  23  24
BRANCH  23  38
ATOM     37  C   UNL     1       8.761  -3.223   2.413  0.00  0.00    +0.009 C 
ATOM     38  C   UNL     1       7.352  -2.659   2.217  0.00  0.00    +0.012 C 
ATOM     39  C   UNL     1       6.350  -3.812   2.126  0.00  0.00    +0.009 C 
ENDBRANCH  23  38
ENDBRANCH   1  23
TORSDOF 10
