REMARK  Name = ZINC47137630
REMARK  10 active torsions:
REMARK  status: ('A' for Active; 'I' for Inactive)
REMARK    1  A    between atoms: C_1  and  C_2
REMARK    2  A    between atoms: C_2  and  O_3
REMARK    3  A    between atoms: O_3  and  C_4
REMARK    4  A    between atoms: C_6  and  C_11
REMARK    5  A    between atoms: C_9  and  O_10
REMARK    6  A    between atoms: N_12  and  N_13
REMARK    7  A    between atoms: N_15  and  C_28
REMARK    8  A    between atoms: C_19  and  C_20
REMARK    9  A    between atoms: C_23  and  O_26
REMARK   10  A    between atoms: C_28  and  C_29
REMARK                            x       y       z     vdW  Elec       q    Type
REMARK                         _______ _______ _______ _____ _____    ______ ____
ROOT
ATOM      1  N   UNL     1       0.993  -6.861  -0.365  0.00  0.00    -0.126 NA
ATOM      2  C   UNL     1       0.866  -8.134  -0.683  0.00  0.00    +0.190 C 
ATOM      3  N   UNL     1       0.226  -9.133   0.017  0.00  0.00    -0.237 N 
ATOM      4  C   UNL     1       0.192 -10.369  -0.451  0.00  0.00    +0.259 C 
ATOM      5  O   UNL     1      -0.369 -11.264   0.155  0.00  0.00    -0.269 OA
ATOM      6  C   UNL     1       0.865 -10.615  -1.741  0.00  0.00    +0.078 C 
ATOM      7  C   UNL     1       0.984 -11.771  -2.444  0.00  0.00    +0.028 C 
ATOM      8  S   UNL     1       1.475  -8.982  -2.132  0.00  0.00    -0.047 S 
ENDROOT
BRANCH   7   9
ATOM      9  C   UNL     1       1.846 -11.823  -3.631  0.00  0.00    -0.024 A 
ATOM     10  C   UNL     1       2.798 -10.820  -3.852  0.00  0.00    +0.011 A 
ATOM     11  C   UNL     1       3.604 -10.873  -4.967  0.00  0.00    +0.046 A 
ATOM     12  C   UNL     1       3.475 -11.921  -5.872  0.00  0.00    +0.117 A 
ATOM     13  C   UNL     1       2.532 -12.919  -5.657  0.00  0.00    +0.046 A 
ATOM     14  C   UNL     1       1.724 -12.879  -4.543  0.00  0.00    +0.011 A 
BRANCH  12  15
ATOM     15  O   UNL     1       4.273 -11.968  -6.969  0.00  0.00    -0.507 OA
ATOM     16  H   UNL     1       5.101 -12.449  -6.833  0.00  0.00    +0.292 HD
ENDBRANCH  12  15
ENDBRANCH   7   9
BRANCH   1  18
ATOM     17  C   UNL     1       0.609  -5.156   1.050  0.00  0.00    +0.143 C 
ATOM     18  N   UNL     1       0.483  -6.418   0.734  0.00  0.00    -0.155 NA
BRANCH  17  21
ATOM     19  C   UNL     1       1.846  -1.977  -0.512  0.00  0.00    +0.162 A 
ATOM     20  C   UNL     1       1.247  -2.849   0.376  0.00  0.00    +0.059 A 
ATOM     21  C   UNL     1       1.244  -4.222   0.108  0.00  0.00    -0.002 A 
ATOM     22  C   UNL     1       1.848  -4.704  -1.058  0.00  0.00    +0.013 A 
ATOM     23  C   UNL     1       2.444  -3.826  -1.939  0.00  0.00    +0.050 A 
ATOM     24  C   UNL     1       2.441  -2.464  -1.674  0.00  0.00    +0.158 A 
BRANCH  24  25
ATOM     25  O   UNL     1       3.025  -1.603  -2.549  0.00  0.00    -0.503 OA
ATOM     26  H   UNL     1       3.962  -1.439  -2.374  0.00  0.00    +0.292 HD
ENDBRANCH  24  25
BRANCH  19  27
ATOM     27  O   UNL     1       1.851  -0.641  -0.255  0.00  0.00    -0.489 OA
BRANCH  27  29
ATOM     28  C   UNL     1       1.327   1.311   1.070  0.00  0.00    +0.048 C 
ATOM     29  C   UNL     1       1.223  -0.211   0.955  0.00  0.00    +0.226 C 
ENDBRANCH  27  29
ENDBRANCH  19  27
ENDBRANCH  17  21
ENDBRANCH   1  18
BRANCH   3  30
ATOM     30  C   UNL     1      -0.422  -8.823   1.294  0.00  0.00    +0.190 C 
BRANCH  30  31
ATOM     31  C   UNL     1      -1.854  -8.423   1.046  0.00  0.00    +0.123 A 
ATOM     32  C   UNL     1      -2.909  -9.256   1.019  0.00  0.00    +0.046 A 
ATOM     33  C   UNL     1      -4.050  -8.464   0.756  0.00  0.00    +0.041 A 
ATOM     34  C   UNL     1      -3.623  -7.194   0.637  0.00  0.00    +0.195 A 
ATOM     35  O   UNL     1      -2.293  -7.174   0.820  0.00  0.00    -0.466 OA
ENDBRANCH  30  31
ENDBRANCH   3  30
TORSDOF 9
