REMARK  Name = ZINC40309636
REMARK  5 active torsions:
REMARK  status: ('A' for Active; 'I' for Inactive)
REMARK    1  A    between atoms: C_1  and  C_2
REMARK    2  A    between atoms: C_2  and  C_4
REMARK    3  A    between atoms: C_2  and  N_11
REMARK    4  A    between atoms: C_12  and  C_14
REMARK    5  A    between atoms: C_16  and  N_22
REMARK                            x       y       z     vdW  Elec       q    Type
REMARK                         _______ _______ _______ _____ _____    ______ ____
ROOT
ATOM      1  N   UNL     1       0.763  -0.486  -1.153  0.00  0.00    -0.305 N 
ATOM      2  C   UNL     1       2.095  -0.664  -1.056  0.00  0.00    +0.247 C 
ATOM      3  O   UNL     1       2.666  -0.425  -0.009  0.00  0.00    -0.270 OA
ATOM      4  H   UNL     1       0.308  -0.677  -1.989  0.00  0.00    +0.150 HD
ENDROOT
BRANCH   2   5
ATOM      5  C   UNL     1       2.862  -1.149  -2.220  0.00  0.00    +0.074 A 
ATOM      6  C   UNL     1       2.209  -1.419  -3.426  0.00  0.00    +0.041 A 
ATOM      7  C   UNL     1       2.934  -1.874  -4.513  0.00  0.00    +0.061 A 
ATOM      8  C   UNL     1       4.310  -2.062  -4.406  0.00  0.00    +0.147 A 
ATOM      9  C   UNL     1       4.958  -1.796  -3.213  0.00  0.00    +0.079 A 
ATOM     10  C   UNL     1       4.244  -1.335  -2.122  0.00  0.00    +0.138 A 
ATOM     11  F   UNL     1       4.881  -1.071  -0.960  0.00  0.00    -0.205 F 
ATOM     12  F   UNL     1       5.014  -2.506  -5.470  0.00  0.00    -0.203 F 
BRANCH   7  13
ATOM     13  N   UNL     1       2.283  -2.145  -5.723  0.00  0.00    -0.356 N 
ATOM     14  H   UNL     1       1.325  -2.015  -5.799  0.00  0.00    +0.142 HD
ATOM     15  H   UNL     1       2.791  -2.464  -6.486  0.00  0.00    +0.142 HD
ENDBRANCH   7  13
ENDBRANCH   2   5
BRANCH   1  17
ATOM     16  C   UNL     1       0.010   1.526   0.016  0.00  0.00    +0.033 C 
ATOM     17  C   UNL     1       0.002  -0.004   0.002  0.00  0.00    +0.101 C 
BRANCH  17  18
ATOM     18  C   UNL     1      -1.419  -0.498  -0.090  0.00  0.00    -0.014 A 
ATOM     19  C   UNL     1      -1.977  -0.770  -1.325  0.00  0.00    +0.006 A 
ATOM     20  C   UNL     1      -3.280  -1.223  -1.410  0.00  0.00    +0.000 A 
ATOM     21  C   UNL     1      -4.025  -1.407  -0.260  0.00  0.00    +0.001 A 
ATOM     22  C   UNL     1      -3.467  -1.136   0.975  0.00  0.00    +0.015 A 
ATOM     23  C   UNL     1      -2.162  -0.686   1.061  0.00  0.00    +0.023 A 
ATOM     24 BR   UNL     1      -1.396  -0.323   2.751  0.00  0.00    -0.050 Br
ENDBRANCH  17  18
ENDBRANCH   1  17
TORSDOF 4
