REMARK  Name = ZINC21175468
REMARK  7 active torsions:
REMARK  status: ('A' for Active; 'I' for Inactive)
REMARK    1  A    between atoms: C_1  and  C_2
REMARK    2  A    between atoms: C_5  and  N_8
REMARK    3  A    between atoms: C_9  and  S_13
REMARK    4  A    between atoms: S_13  and  C_14
REMARK    5  A    between atoms: C_14  and  C_16
REMARK    6  A    between atoms: C_14  and  C_17
REMARK    7  A    between atoms: C_29  and  C_33
REMARK                            x       y       z     vdW  Elec       q    Type
REMARK                         _______ _______ _______ _____ _____    ______ ____
ROOT
ATOM      1  C   UNL     1       3.142  -5.784   4.122  0.00  0.00    +0.124 A 
ATOM      2  N   UNL     1       3.068  -4.593   4.771  0.00  0.00    -0.309 N 
ATOM      3  H   UNL     1       2.407  -3.940   4.492  0.00  0.00    +0.170 HD
ATOM      4  C   UNL     1       3.893  -4.301   5.794  0.00  0.00    +0.260 A 
ATOM      5  O   UNL     1       3.813  -3.228   6.367  0.00  0.00    -0.267 OA
ATOM      6  C   UNL     1       4.866  -5.273   6.198  0.00  0.00    +0.075 A 
ATOM      7  C   UNL     1       5.856  -5.175   7.270  0.00  0.00    -0.023 A 
ATOM      8  C   UNL     1       6.667  -6.239   7.453  0.00  0.00    -0.004 A 
ATOM      9  S   UNL     1       6.165  -7.415   6.226  0.00  0.00    -0.073 S 
ATOM     10  C   UNL     1       4.866  -6.472   5.469  0.00  0.00    +0.116 A 
ATOM     11  N   UNL     1       4.014  -6.691   4.471  0.00  0.00    -0.225 NA
ATOM     12  C   UNL     1       7.755  -6.386   8.473  0.00  0.00    +0.046 C 
ATOM     13  C   UNL     1       8.068  -4.998   9.050  0.00  0.00    -0.009 C 
ATOM     14  C   UNL     1       6.751  -4.312   9.421  0.00  0.00    +0.008 C 
ATOM     15  C   UNL     1       5.985  -3.936   8.152  0.00  0.00    +0.037 C 
ATOM     16  C   UNL     1       8.943  -5.147  10.297  0.00  0.00    +0.008 C 
ENDROOT
BRANCH   1  17
ATOM     17  C   UNL     1       2.196  -6.066   2.983  0.00  0.00    +0.117 C 
ATOM     18  C   UNL     1       0.979  -6.830   3.508  0.00  0.00    +0.027 C 
BRANCH  17  19
ATOM     19  S   UNL     1       1.654  -4.499   2.246  0.00  0.00    -0.073 S 
BRANCH  19  21
ATOM     20  N   UNL     1       0.059  -4.173  -0.021  0.00  0.00    -0.187 N 
ATOM     21  C   UNL     1       0.688  -4.993   0.857  0.00  0.00    +0.215 A 
ATOM     22  N   UNL     1       0.441  -6.228   0.476  0.00  0.00    -0.101 NA
ATOM     23  N   UNL     1      -0.296  -6.235  -0.576  0.00  0.00    -0.022 NA
ATOM     24  N   UNL     1      -0.576  -5.030  -0.937  0.00  0.00    -0.038 NA
BRANCH  20  29
ATOM     25  C   UNL     1      -0.018   1.503   0.010  0.00  0.00    +0.044 C 
ATOM     26  C   UNL     1       0.002  -0.004   0.002  0.00  0.00    -0.050 A 
ATOM     27  C   UNL     1       0.006  -0.688  -1.200  0.00  0.00    +0.005 A 
ATOM     28  C   UNL     1       0.025  -2.068  -1.211  0.00  0.00    +0.028 A 
ATOM     29  C   UNL     1       0.040  -2.771  -0.013  0.00  0.00    +0.070 A 
ATOM     30  C   UNL     1       0.037  -2.082   1.192  0.00  0.00    +0.028 A 
ATOM     31  C   UNL     1       0.023  -0.700   1.196  0.00  0.00    +0.005 A 
ENDBRANCH  20  29
ENDBRANCH  19  21
ENDBRANCH  17  19
ENDBRANCH   1  17
TORSDOF 4
