REMARK  Name = ZINC13234978
REMARK  7 active torsions:
REMARK  status: ('A' for Active; 'I' for Inactive)
REMARK    1  A    between atoms: C_1  and  C_2
REMARK    2  A    between atoms: C_14  and  C_16
REMARK    3  A    between atoms: C_16  and  N_17
REMARK    4  A    between atoms: N_20  and  CA_21
REMARK    5  A    between atoms: CA_21  and  CB_23
REMARK    6  A    between atoms: CA_21  and  C_34
REMARK    7  A    between atoms: CB_23  and  CG_24
REMARK                            x       y       z     vdW  Elec       q    Type
REMARK                         _______ _______ _______ _____ _____    ______ ____
ROOT
ATOM      1  N   UNK A   0       4.606   4.025   1.143  0.00  0.00    -0.291 N 
ATOM      2  C   UNK A   0       3.319   3.625   1.153  0.00  0.00    +0.301 C 
ATOM      3  O   UNK A   0       2.776   3.352   2.205  0.00  0.00    -0.253 OA
ATOM      4  N   TRP A   1       2.634   3.529  -0.004  0.00  0.00    -0.286 N 
ATOM      5  H   UNK A   0       5.039   4.243   0.303  0.00  0.00    +0.151 HD
ATOM      6  H   TRP A   1       3.067   3.747  -0.844  0.00  0.00    +0.151 HD
ENDROOT
BRANCH   1   7
ATOM      7  C   UNK A   0       5.350   4.130   2.400  0.00  0.00    +0.202 C 
BRANCH   7  20
ATOM      8  C   UNK A   0      11.316   2.191   3.546  0.00  0.00    +0.019 C 
ATOM      9  C   UNK A   0      10.169   3.157   3.848  0.00  0.00    +0.050 C 
ATOM     10  C   UNK A   0       9.928   4.047   2.639  0.00  0.00    +0.033 C 
ATOM     11  C   UNK A   0       9.005   5.215   2.870  0.00  0.00    +0.115 C 
ATOM     12  N   UNK A   0       7.628   4.763   3.128  0.00  0.00    -0.269 N 
ATOM     13  C   UNK A   0       7.246   4.518   4.451  0.00  0.00    +0.050 A 
ATOM     14  C   UNK A   0       6.426   5.419   5.112  0.00  0.00    +0.024 A 
ATOM     15  C   UNK A   0       6.090   5.203   6.435  0.00  0.00    +0.002 A 
ATOM     16  C   UNK A   0       6.561   4.095   7.115  0.00  0.00    +0.001 A 
ATOM     17  C   UNK A   0       7.362   3.173   6.459  0.00  0.00    +0.016 A 
ATOM     18  C   UNK A   0       7.683   3.384   5.134  0.00  0.00    +0.030 A 
ATOM     19  S   UNK A   0       8.669   2.208   4.236  0.00  0.00    -0.120 S 
ATOM     20  C   UNK A   0       6.755   4.593   2.115  0.00  0.00    +0.237 C 
ATOM     21  O   UNK A   0       7.101   4.815   0.973  0.00  0.00    -0.274 OA
ENDBRANCH   7  20
ENDBRANCH   1   7
BRANCH   4  22
ATOM     22  CA  TRP A   1       1.235   3.094   0.007  0.00  0.00    +0.192 C 
BRANCH  22  23
ATOM     23  C   TRP A   1       1.177   1.588  -0.001  0.00  0.00    +0.376 C 
ATOM     24  O   TRP A   1       2.199   0.944  -0.014  0.00  0.00    -0.244 OA
ATOM     25  OXT TRP A   1      -0.011   0.963   0.007  0.00  0.00    -0.244 OA
ENDBRANCH  22  23
BRANCH  22  26
ATOM     26  CB  TRP A   1       0.522   3.639  -1.233  0.00  0.00    +0.071 C 
BRANCH  26  27
ATOM     27  CG  TRP A   1       0.473   5.143  -1.164  0.00  0.00    -0.020 A 
ATOM     28  CD1 TRP A   1      -0.542   5.888  -0.698  0.00  0.00    +0.087 A 
ATOM     29  NE1 TRP A   1      -0.226   7.217  -0.791  0.00  0.00    -0.360 N 
ATOM     30  HE1 TRP A   1      -0.802   7.947  -0.514  0.00  0.00    +0.165 HD
ATOM     31  CE2 TRP A   1       1.028   7.362  -1.341  0.00  0.00    +0.047 A 
ATOM     32  CD2 TRP A   1       1.521   6.070  -1.598  0.00  0.00    +0.003 A 
ATOM     33  CE3 TRP A   1       2.787   5.907  -2.163  0.00  0.00    +0.010 A 
ATOM     34  CZ3 TRP A   1       3.543   7.006  -2.462  0.00  0.00    +0.001 A 
ATOM     35  CH2 TRP A   1       3.061   8.283  -2.210  0.00  0.00    +0.002 A 
ATOM     36  CZ2 TRP A   1       1.814   8.466  -1.654  0.00  0.00    +0.026 A 
ENDBRANCH  26  27
ENDBRANCH  22  26
ENDBRANCH   4  22
TORSDOF 6
