REMARK  Name = ZINC09763258
REMARK  11 active torsions:
REMARK  status: ('A' for Active; 'I' for Inactive)
REMARK    1  A    between atoms: C_1  and  C_2
REMARK    2  A    between atoms: C_3  and  C_9
REMARK    3  A    between atoms: C_4  and  O_8
REMARK    4  A    between atoms: C_9  and  C_10
REMARK    5  A    between atoms: C_9  and  C_21
REMARK    6  A    between atoms: C_12  and  O_19
REMARK    7  A    between atoms: C_13  and  O_17
REMARK    8  A    between atoms: O_17  and  C_18
REMARK    9  A    between atoms: O_19  and  C_20
REMARK   10  A    between atoms: C_22  and  C_28
REMARK   11  A    between atoms: C_26  and  O_27
REMARK                            x       y       z     vdW  Elec       q    Type
REMARK                         _______ _______ _______ _____ _____    ______ ____
ROOT
ATOM      1  C   UNL     1      -0.015  -0.336  -2.544  0.00  0.00    +0.093 C 
ENDROOT
BRANCH   1   4
ATOM      2  C   UNL     1      -1.001   1.851  -0.474  0.00  0.00    +0.068 C 
ATOM      3  C   UNL     1      -0.760   0.395  -0.173  0.00  0.00    +0.068 A 
ATOM      4  C   UNL     1      -0.324  -0.569  -1.088  0.00  0.00    +0.048 A 
ATOM      5  C   UNL     1      -0.230  -1.755  -0.429  0.00  0.00    +0.213 A 
ATOM      6  N   UNL     1      -0.594  -1.540   0.854  0.00  0.00    -0.247 N 
ATOM      7  H   UNL     1      -0.624  -2.207   1.558  0.00  0.00    +0.192 HD
ATOM      8  N   UNL     1      -0.916  -0.184   0.990  0.00  0.00    -0.176 NA
BRANCH   5   9
ATOM      9  O   UNL     1       0.159  -2.941  -0.965  0.00  0.00    -0.492 OA
ATOM     10  H   UNL     1       1.098  -3.137  -0.844  0.00  0.00    +0.294 HD
ENDBRANCH   5   9
ENDBRANCH   1   4
BRANCH   1  11
ATOM     11  C   UNL     1      -1.027  -1.060  -3.395  0.00  0.00    -0.031 A 
ATOM     12  C   UNL     1      -1.947  -0.340  -4.135  0.00  0.00    +0.054 A 
ATOM     13  C   UNL     1      -2.877  -1.004  -4.918  0.00  0.00    +0.163 A 
ATOM     14  C   UNL     1      -2.883  -2.395  -4.958  0.00  0.00    +0.175 A 
ATOM     15  C   UNL     1      -1.959  -3.110  -4.213  0.00  0.00    +0.059 A 
ATOM     16  C   UNL     1      -1.029  -2.441  -3.438  0.00  0.00    +0.022 A 
ATOM     17  I   UNL     1      -1.964  -5.205  -4.269  0.00  0.00    -0.040 I 
BRANCH  14  18
ATOM     18  O   UNL     1      -3.795  -3.051  -5.725  0.00  0.00    -0.490 OA
ATOM     19  C   UNL     1      -3.421  -3.340  -7.073  0.00  0.00    +0.277 C 
ENDBRANCH  14  18
BRANCH  13  20
ATOM     20  O   UNL     1      -3.783  -0.297  -5.646  0.00  0.00    -0.491 OA
ATOM     21  C   UNL     1      -3.717   1.127  -5.557  0.00  0.00    +0.277 C 
ENDBRANCH  13  20
ENDBRANCH   1  11
BRANCH   1  22
ATOM     22  C   UNL     1       1.365  -0.855  -2.854  0.00  0.00    +0.048 A 
ATOM     23  C   UNL     1       2.437  -0.810  -2.029  0.00  0.00    +0.041 A 
ATOM     24  N   UNL     1       3.479  -1.375  -2.674  0.00  0.00    -0.278 N 
ATOM     25  N   UNL     1       3.036  -1.782  -3.939  0.00  0.00    -0.136 NA
ATOM     26  H   UNL     1       4.377  -1.480  -2.324  0.00  0.00    +0.189 HD
ATOM     27  C   UNL     1       1.766  -1.476  -4.046  0.00  0.00    +0.236 A 
ATOM     28  C   UNL     1       2.462  -0.231  -0.638  0.00  0.00    +0.065 C 
BRANCH  27  29
ATOM     29  O   UNL     1       0.975  -1.715  -5.127  0.00  0.00    -0.491 OA
ATOM     30  H   UNL     1       1.025  -1.033  -5.810  0.00  0.00    +0.294 HD
ENDBRANCH  27  29
ENDBRANCH   1  22
TORSDOF 7
