REMARK  Name = ZINC65434049
REMARK  4 active torsions:
REMARK  status: ('A' for Active; 'I' for Inactive)
REMARK    1  A    between atoms: C_1  and  C_2
REMARK    2  A    between atoms: C_10  and  C_12
REMARK    3  A    between atoms: C_12  and  N_13
REMARK    4  A    between atoms: C_21  and  N_26
REMARK                            x       y       z     vdW  Elec       q    Type
REMARK                         _______ _______ _______ _____ _____    ______ ____
ROOT
ATOM      1  N   UNL     1      -1.133  -1.708   3.125  0.00  0.00    -0.297 NA
ATOM      2  C   UNL     1      -1.170  -3.067   2.569  0.00  0.00    +0.103 C 
ATOM      3  C   UNL     1      -0.891  -4.080   3.684  0.00  0.00    +0.122 C 
ATOM      4  N   UNL     1      -1.834  -3.833   4.786  0.00  0.00    -0.313 N 
ATOM      5  C   UNL     1      -1.953  -2.462   5.306  0.00  0.00    +0.122 C 
ATOM      6  C   UNL     1      -2.190  -1.513   4.126  0.00  0.00    +0.103 C 
ATOM      7  C   UNL     1      -2.590  -4.864   5.320  0.00  0.00    +0.128 A 
ATOM      8  C   UNL     1      -2.392  -6.176   4.898  0.00  0.00    +0.087 A 
ATOM      9  C   UNL     1      -3.174  -7.179   5.462  0.00  0.00    +0.123 A 
ATOM     10  N   UNL     1      -4.080  -6.853   6.382  0.00  0.00    -0.200 NA
ATOM     11  C   UNL     1      -4.241  -5.594   6.760  0.00  0.00    +0.216 A 
ATOM     12  N   UNL     1      -3.511  -4.615   6.248  0.00  0.00    -0.200 NA
ATOM     13  N   UNL     1      -5.193  -5.295   7.718  0.00  0.00    -0.327 N 
ATOM     14  H   UNL     1      -5.732  -6.003   8.104  0.00  0.00    +0.145 HD
ATOM     15  H   UNL     1      -5.322  -4.377   8.004  0.00  0.00    +0.145 HD
ENDROOT
BRANCH   9  16
ATOM     16  N   UNL     1      -3.012  -8.499   5.072  0.00  0.00    -0.343 N 
ATOM     17  H   UNL     1      -2.350  -8.729   4.401  0.00  0.00    +0.144 HD
ATOM     18  H   UNL     1      -3.561  -9.193   5.470  0.00  0.00    +0.144 HD
ENDBRANCH   9  16
BRANCH   1  19
ATOM     19  C   UNL     1      -1.224  -0.700   2.060  0.00  0.00    +0.113 C 
BRANCH  19  29
ATOM     20  C   UNL     1      -1.860   2.160   0.674  0.00  0.00    +0.042 C 
ATOM     21  C   UNL     1      -0.677   1.659   1.462  0.00  0.00    -0.040 C 
ATOM     22  C   UNL     1       0.614   2.035   1.318  0.00  0.00    +0.002 A 
ATOM     23  C   UNL     1       1.278   2.987   0.419  0.00  0.00    +0.048 A 
ATOM     24  C   UNL     1       2.618   3.153   0.512  0.00  0.00    +0.124 A 
ATOM     25  C   UNL     1       3.386   2.440   1.446  0.00  0.00    +0.040 A 
ATOM     26  C   UNL     1       2.847   1.549   2.304  0.00  0.00    +0.029 A 
ATOM     27  C   UNL     1       1.447   1.296   2.293  0.00  0.00    +0.043 A 
ATOM     28  N   UNL     1       0.700   0.494   3.012  0.00  0.00    -0.376 N 
ATOM     29  C   UNL     1      -0.694   0.639   2.578  0.00  0.00    +0.120 C 
ATOM     30  F   UNL     1       3.232   4.028  -0.314  0.00  0.00    -0.205 F 
ATOM     31  H   UNL     1       1.015  -0.095   3.716  0.00  0.00    +0.160 HD
ENDBRANCH  19  29
ENDBRANCH   1  19
TORSDOF 3
