REMARK  Name = ZINC15006985
REMARK  6 active torsions:
REMARK  status: ('A' for Active; 'I' for Inactive)
REMARK    1  A    between atoms: C_4  and  C_7
REMARK    2  A    between atoms: C_7  and  C_8
REMARK    3  A    between atoms: C_8  and  C_15
REMARK    4  A    between atoms: C_20  and  C_21
REMARK    5  A    between atoms: C_20  and  N_59
REMARK    6  A    between atoms: C_26  and  C_27
REMARK                            x       y       z     vdW  Elec       q    Type
REMARK                         _______ _______ _______ _____ _____    ______ ____
ROOT
ATOM      1  C   UNL     1       1.977  -3.707  -0.740  0.00  0.00    +0.018 C 
ATOM      2  C   UNL     1       2.989  -4.619  -0.041  0.00  0.00    -0.013 C 
ATOM      3  C   UNL     1       2.595  -6.080  -0.270  0.00  0.00    -0.078 C 
ATOM      4  C   UNL     1       1.567  -5.532  -2.395  0.00  0.00    -0.078 C 
ATOM      5  C   UNL     1       1.931  -4.054  -2.231  0.00  0.00    -0.013 C 
ATOM      6  N   UNL     1       2.593  -6.356  -1.722  0.00  0.00    +0.382 N 
ATOM      7  H   UNL     1       3.515  -6.120  -2.107  0.00  0.00    -0.081 HD
ENDROOT
BRANCH   1   8
ATOM      8  C   UNL     1       2.401  -2.247  -0.568  0.00  0.00    +0.119 C 
ATOM      9  C   UNL     1       3.679  -1.969  -1.334  0.00  0.00    +0.244 C 
ATOM     10  O   UNL     1       4.761  -2.487  -1.165  0.00  0.00    -0.273 OA
ATOM     11  N   UNL     1       3.361  -1.024  -2.242  0.00  0.00    -0.238 N 
ATOM     12  C   UNL     1       2.073  -0.671  -2.156  0.00  0.00    +0.307 C 
ATOM     13  O   UNL     1       1.553   0.163  -2.871  0.00  0.00    -0.252 OA
ATOM     14  N   UNL     1       1.419  -1.343  -1.191  0.00  0.00    -0.284 N 
ATOM     15  H   UNL     1       3.989  -0.647  -2.878  0.00  0.00    +0.159 HD
ATOM     16  H   UNL     1       0.484  -1.249  -0.953  0.00  0.00    +0.151 HD
BRANCH   8  17
ATOM     17  C   UNL     1       2.577  -1.911   0.914  0.00  0.00    +0.070 C 
BRANCH  17  21
ATOM     18  C   UNL     1       3.270   2.282   1.352  0.00  0.00    +0.000 A 
ATOM     19  C   UNL     1       1.979   1.788   1.379  0.00  0.00    +0.000 A 
ATOM     20  C   UNL     1       1.755   0.431   1.237  0.00  0.00    +0.004 A 
ATOM     21  C   UNL     1       2.822  -0.432   1.068  0.00  0.00    -0.045 A 
ATOM     22  C   UNL     1       4.112   0.062   1.040  0.00  0.00    +0.004 A 
ATOM     23  C   UNL     1       4.337   1.419   1.181  0.00  0.00    +0.000 A 
ENDBRANCH  17  21
ENDBRANCH   8  17
ENDBRANCH   1   8
BRANCH   6  24
ATOM     24  C   UNL     1       2.325  -7.790  -1.963  0.00  0.00    -0.039 C 
BRANCH  24  25
ATOM     25  C   UNL     1       3.551  -8.580  -1.585  0.00  0.00    -0.019 A 
ATOM     26  C   UNL     1       3.688  -9.361  -0.491  0.00  0.00    +0.107 A 
ATOM     27  N   UNL     1       4.928  -9.895  -0.513  0.00  0.00    -0.284 N 
ATOM     28  H   UNL     1       5.312 -10.515   0.172  0.00  0.00    +0.188 HD
ATOM     29  N   UNL     1       5.583  -9.430  -1.660  0.00  0.00    -0.174 NA
ATOM     30  C   UNL     1       4.756  -8.641  -2.312  0.00  0.00    +0.094 A 
BRANCH  30  31
ATOM     31  C   UNL     1       5.043  -7.937  -3.587  0.00  0.00    +0.002 A 
ATOM     32  C   UNL     1       4.084  -7.903  -4.598  0.00  0.00    +0.010 A 
ATOM     33  C   UNL     1       4.354  -7.242  -5.779  0.00  0.00    +0.001 A 
ATOM     34  C   UNL     1       5.577  -6.625  -5.965  0.00  0.00    +0.000 A 
ATOM     35  C   UNL     1       6.535  -6.661  -4.968  0.00  0.00    +0.001 A 
ATOM     36  C   UNL     1       6.273  -7.314  -3.780  0.00  0.00    +0.010 A 
ENDBRANCH  30  31
ENDBRANCH  24  25
ENDBRANCH   6  24
TORSDOF 6
