REMARK  Name = ZINC67143995
REMARK  3 active torsions:
REMARK  status: ('A' for Active; 'I' for Inactive)
REMARK    1  A    between atoms: C_3  and  C_11
REMARK    2  A    between atoms: N_13  and  C_14
REMARK    3  A    between atoms: C_19  and  C_22
REMARK                            x       y       z     vdW  Elec       q    Type
REMARK                         _______ _______ _______ _____ _____    ______ ____
ROOT
ATOM      1  C   UNL     1       3.651   2.174  -0.024  0.00  0.00    +0.248 C 
ATOM      2  O   UNL     1       4.714   1.583  -0.038  0.00  0.00    -0.270 OA
ATOM      3  N   UNL     1       3.630   3.522  -0.016  0.00  0.00    -0.308 N 
ATOM      4  H   UNL     1       2.782   3.993  -0.005  0.00  0.00    +0.149 HD
ENDROOT
BRANCH   1   7
ATOM      5  C   UNL     1      -0.017   1.380   0.010  0.00  0.00    +0.005 A 
ATOM      6  C   UNL     1       1.163   2.092   0.002  0.00  0.00    +0.017 A 
ATOM      7  C   UNL     1       2.386   1.416  -0.014  0.00  0.00    +0.082 A 
ATOM      8  C   UNL     1       2.405   0.015  -0.023  0.00  0.00    +0.174 A 
ATOM      9  C   UNL     1       1.207  -0.690  -0.013  0.00  0.00    +0.163 A 
ATOM     10  C   UNL     1       0.002  -0.004   0.002  0.00  0.00    +0.049 A 
ATOM     11  O   UNL     1       1.201  -2.051  -0.013  0.00  0.00    -0.485 OA
ATOM     12  C   UNL     1       2.416  -2.700  -0.403  0.00  0.00    +0.270 C 
ATOM     13  C   UNL     1       3.580  -2.019   0.329  0.00  0.00    +0.270 C 
ATOM     14  O   UNL     1       3.596  -0.636  -0.042  0.00  0.00    -0.484 OA
ENDBRANCH   1   7
BRANCH   3  15
ATOM     15  C   UNL     1       4.887   4.274  -0.025  0.00  0.00    +0.074 C 
ATOM     16  C   UNL     1       5.374   4.436  -1.467  0.00  0.00    +0.022 C 
ATOM     17  C   UNL     1       4.320   5.192  -2.279  0.00  0.00    +0.002 C 
ATOM     18  C   UNL     1       4.093   6.573  -1.660  0.00  0.00    +0.012 C 
ATOM     19  C   UNL     1       3.606   6.411  -0.218  0.00  0.00    +0.095 C 
ATOM     20  C   UNL     1       4.659   5.655   0.594  0.00  0.00    +0.034 C 
BRANCH  19  21
ATOM     21  C   UNL     1       3.378   7.791   0.401  0.00  0.00    +0.393 C 
ATOM     22  F   UNL     1       2.415   8.483  -0.341  0.00  0.00    -0.170 F 
ATOM     23  F   UNL     1       2.933   7.643   1.719  0.00  0.00    -0.170 F 
ATOM     24  F   UNL     1       4.578   8.510   0.393  0.00  0.00    -0.170 F 
ENDBRANCH  19  21
ENDBRANCH   3  15
TORSDOF 3
