REMARK  Name = ZINC40348245
REMARK  6 active torsions:
REMARK  status: ('A' for Active; 'I' for Inactive)
REMARK    1  A    between atoms: C_1  and  C_2
REMARK    2  A    between atoms: C_5  and  C_7
REMARK    3  A    between atoms: C_7  and  N_8
REMARK    4  A    between atoms: N_8  and  S_9
REMARK    5  A    between atoms: S_9  and  C_12
REMARK    6  A    between atoms: C_15  and  N_19
REMARK                            x       y       z     vdW  Elec       q    Type
REMARK                         _______ _______ _______ _____ _____    ______ ____
ROOT
ATOM      1  S   UNL     1      -1.616  -4.567   3.670  0.00  0.00    +0.061 S 
ATOM      2  O   UNL     1      -3.021  -4.606   3.878  0.00  0.00    -0.153 OA
ATOM      3  O   UNL     1      -0.893  -5.670   3.139  0.00  0.00    -0.153 OA
ENDROOT
BRANCH   1   4
ATOM      4  C   UNL     1      -0.887  -4.193   5.230  0.00  0.00    +0.133 A 
ATOM      5  C   UNL     1       0.425  -4.554   5.484  0.00  0.00    +0.047 A 
ATOM      6  C   UNL     1       0.999  -4.262   6.706  0.00  0.00    +0.040 A 
ATOM      7  C   UNL     1       0.258  -3.606   7.681  0.00  0.00    +0.027 A 
ATOM      8  C   UNL     1      -1.058  -3.245   7.424  0.00  0.00    +0.040 A 
ATOM      9  C   UNL     1      -1.625  -3.535   6.197  0.00  0.00    +0.047 A 
ATOM     10 BR   UNL     1      -3.415  -3.038   5.843  0.00  0.00    -0.048 Br
ATOM     11 BR   UNL     1       1.433  -5.447   4.156  0.00  0.00    -0.048 Br
BRANCH   7  12
ATOM     12  N   UNL     1       0.836  -3.310   8.918  0.00  0.00    -0.358 N 
ATOM     13  H   UNL     1       1.755  -3.563   9.097  0.00  0.00    +0.142 HD
ATOM     14  H   UNL     1       0.318  -2.852   9.598  0.00  0.00    +0.142 HD
ENDBRANCH   7  12
ENDBRANCH   1   4
BRANCH   1  15
ATOM     15  N   UNL     1      -1.320  -3.281   2.671  0.00  0.00    -0.184 NA
ATOM     16  H   UNL     1      -2.057  -2.743   2.341  0.00  0.00    +0.148 HD
BRANCH  15  17
ATOM     17  C   UNL     1       0.055  -2.955   2.284  0.00  0.00    +0.168 C 
BRANCH  17  22
ATOM     18  C   UNL     1      -0.018   1.503   0.010  0.00  0.00    +0.066 C 
ATOM     19  C   UNL     1       0.002  -0.004   0.002  0.00  0.00    +0.046 A 
ATOM     20  C   UNL     1       0.006  -0.708  -1.159  0.00  0.00    +0.070 A 
ATOM     21  S   UNL     1       0.032  -2.379  -0.531  0.00  0.00    -0.079 S 
ATOM     22  C   UNL     1       0.036  -2.009   1.111  0.00  0.00    +0.094 A 
ATOM     23  N   UNL     1       0.023  -0.699   1.122  0.00  0.00    -0.248 NA
ENDBRANCH  17  22
ENDBRANCH  15  17
ENDBRANCH   1  15
TORSDOF 5
