REMARK  Name = ZINC06197933
REMARK  8 active torsions:
REMARK  status: ('A' for Active; 'I' for Inactive)
REMARK    1  A    between atoms: C_1  and  C_2
REMARK    2  A    between atoms: C_2  and  C_3
REMARK    3  A    between atoms: C_10  and  C_15
REMARK    4  A    between atoms: C_15  and  C_17
REMARK    5  A    between atoms: C_15  and  N_66
REMARK    6  A    between atoms: N_21  and  C_22
REMARK    7  A    between atoms: C_27  and  N_66
REMARK    8  A    between atoms: C_28  and  N_66
REMARK                            x       y       z     vdW  Elec       q    Type
REMARK                         _______ _______ _______ _____ _____    ______ ____
ROOT
ATOM      1  C   UNL     1       1.515  -2.415  -2.482  0.00  0.00    +0.039 C 
ENDROOT
BRANCH   1   9
ATOM      2  C   UNL     1       3.547  -8.254  -2.236  0.00  0.00    -0.047 A 
ATOM      3  C   UNL     1       2.296  -8.855  -2.232  0.00  0.00    +0.005 A 
ATOM      4  C   UNL     1       1.149  -8.091  -2.276  0.00  0.00    +0.026 A 
ATOM      5  C   UNL     1       1.245  -6.704  -2.326  0.00  0.00    +0.049 A 
ATOM      6  C   UNL     1       2.516  -6.099  -2.329  0.00  0.00    -0.001 A 
ATOM      7  C   UNL     1       3.666  -6.894  -2.284  0.00  0.00    +0.013 A 
ATOM      8  C   UNL     1       2.606  -4.639  -2.388  0.00  0.00    +0.017 A 
ATOM      9  C   UNL     1       1.458  -3.920  -2.427  0.00  0.00    +0.011 A 
ATOM     10  C   UNL     1       0.208  -4.576  -2.421  0.00  0.00    +0.251 A 
ATOM     11  O   UNL     1      -0.813  -3.911  -2.462  0.00  0.00    -0.268 OA
ATOM     12  N   UNL     1       0.115  -5.916  -2.372  0.00  0.00    -0.322 N 
ATOM     13  H   UNL     1      -0.787  -6.348  -2.369  0.00  0.00    +0.169 HD
BRANCH   2  15
ATOM     14  C   UNL     1       5.185  -9.348  -0.728  0.00  0.00    +0.009 C 
ATOM     15  C   UNL     1       4.786  -9.111  -2.186  0.00  0.00    +0.032 C 
ENDBRANCH   2  15
ENDBRANCH   1   9
BRANCH   1  16
ATOM     16  C   UNL     1       1.065  -1.945  -3.841  0.00  0.00    +0.143 A 
ATOM     17  N   UNL     1      -0.133  -2.076  -4.357  0.00  0.00    -0.115 NA
ATOM     18  N   UNL     1      -0.121  -1.546  -5.532  0.00  0.00    -0.023 NA
ATOM     19  N   UNL     1       1.056  -1.087  -5.781  0.00  0.00    -0.044 NA
ATOM     20  N   UNL     1       1.815  -1.314  -4.763  0.00  0.00    -0.227 N 
BRANCH  20  21
ATOM     21  C   UNL     1       3.229  -0.953  -4.635  0.00  0.00    +0.111 C 
ATOM     22  C   UNL     1       3.404   0.569  -4.814  0.00  0.00    +0.027 C 
ATOM     23  C   UNL     1       4.739   0.709  -5.588  0.00  0.00    +0.002 C 
ATOM     24  C   UNL     1       4.692  -0.487  -6.571  0.00  0.00    +0.002 C 
ATOM     25  C   UNL     1       4.048  -1.625  -5.752  0.00  0.00    +0.027 C 
ENDBRANCH  20  21
ENDBRANCH   1  16
BRANCH   1  27
ATOM     26  C   UNL     1       0.236  -0.479  -1.791  0.00  0.00    -0.094 C 
ATOM     27  N   UNL     1       0.608  -1.869  -1.451  0.00  0.00    +0.389 N 
ATOM     28  H   UNL     1      -0.242  -2.443  -1.417  0.00  0.00    -0.080 HD
BRANCH  27  29
ATOM     29  C   UNL     1       1.267  -1.907  -0.128  0.00  0.00    -0.068 C 
ATOM     30  C   UNL     1       0.319  -1.313   0.916  0.00  0.00    -0.015 C 
ATOM     31  C   UNL     1       0.980  -1.369   2.295  0.00  0.00    -0.002 C 
ATOM     32  C   UNL     1       1.289  -2.824   2.654  0.00  0.00    -0.000 C 
ATOM     33  C   UNL     1       2.236  -3.417   1.609  0.00  0.00    -0.002 C 
ATOM     34  C   UNL     1       1.575  -3.361   0.231  0.00  0.00    -0.015 C 
ENDBRANCH  27  29
ENDBRANCH   1  27
TORSDOF 6
