REMARK  Name = ZINC59385145
REMARK  6 active torsions:
REMARK  status: ('A' for Active; 'I' for Inactive)
REMARK    1  A    between atoms: C_1  and  C_2
REMARK    2  A    between atoms: C_3  and  C_17
REMARK    3  A    between atoms: C_4  and  C_10
REMARK    4  A    between atoms: C_15  and  O_16
REMARK    5  A    between atoms: N_19  and  N_20
REMARK    6  A    between atoms: C_21  and  C_22
REMARK                            x       y       z     vdW  Elec       q    Type
REMARK                         _______ _______ _______ _____ _____    ______ ____
ROOT
ATOM      1  C   UNL     1      -0.399   1.583  -0.303  0.00  0.00    +0.061 C 
ATOM      2  C   UNL     1      -0.228   0.094  -0.153  0.00  0.00    +0.017 C 
ATOM      3  C   UNL     1      -1.319  -0.702  -0.134  0.00  0.00    +0.057 C 
ATOM      4  C   UNL     1      -1.101  -2.193   0.019  0.00  0.00    +0.143 C 
ATOM      5  N   UNL     1       0.292  -2.656   0.135  0.00  0.00    -0.315 N 
ATOM      6  C   UNL     1       1.278  -1.738   0.099  0.00  0.00    +0.135 C 
ATOM      7  S   UNL     1       2.902  -2.262   0.232  0.00  0.00    -0.019 S 
ATOM      8  N   UNL     1       1.029  -0.430  -0.044  0.00  0.00    -0.300 N 
ATOM      9  H   UNL     1       0.495  -3.599   0.235  0.00  0.00    +0.149 HD
ATOM     10  H   UNL     1       1.783   0.180  -0.067  0.00  0.00    +0.154 HD
ENDROOT
BRANCH   4  11
ATOM     11  C   UNL     1      -1.845  -2.648   1.248  0.00  0.00    +0.019 A 
ATOM     12  C   UNL     1      -2.236  -1.725   2.200  0.00  0.00    +0.009 A 
ATOM     13  C   UNL     1      -2.918  -2.141   3.328  0.00  0.00    +0.001 A 
ATOM     14  C   UNL     1      -3.210  -3.481   3.507  0.00  0.00    +0.004 A 
ATOM     15  C   UNL     1      -2.822  -4.407   2.559  0.00  0.00    +0.046 A 
ATOM     16  C   UNL     1      -2.142  -3.991   1.423  0.00  0.00    +0.122 A 
BRANCH  16  17
ATOM     17  O   UNL     1      -1.763  -4.899   0.486  0.00  0.00    -0.506 OA
ATOM     18  H   UNL     1      -0.886  -5.277   0.636  0.00  0.00    +0.292 HD
ENDBRANCH  16  17
ENDBRANCH   4  11
BRANCH   3  19
ATOM     19  C   UNL     1      -2.622  -0.160  -0.253  0.00  0.00    +0.263 C 
ATOM     20  O   UNL     1      -2.780   1.047  -0.266  0.00  0.00    -0.269 OA
ATOM     21  N   UNL     1      -3.686  -0.981  -0.351  0.00  0.00    -0.203 N 
ATOM     22  H   UNL     1      -3.568  -1.940  -0.268  0.00  0.00    +0.178 HD
BRANCH  21  23
ATOM     23  N   UNL     1      -4.963  -0.448  -0.572  0.00  0.00    -0.187 NA
ATOM     24  C   UNL     1      -5.988  -1.239  -0.666  0.00  0.00    +0.138 C 
BRANCH  24  25
ATOM     25  C   UNL     1      -7.332  -0.678  -0.899  0.00  0.00    -0.005 A 
ATOM     26  C   UNL     1      -7.505   0.702  -1.024  0.00  0.00    +0.011 A 
ATOM     27  C   UNL     1      -8.764   1.220  -1.242  0.00  0.00    +0.020 A 
ATOM     28  C   UNL     1      -9.857   0.374  -1.337  0.00  0.00    +0.041 A 
ATOM     29  C   UNL     1      -9.693  -0.996  -1.214  0.00  0.00    +0.020 A 
ATOM     30  C   UNL     1      -8.438  -1.526  -1.001  0.00  0.00    +0.011 A 
ATOM     31 CL   UNL     1     -11.439   1.034  -1.610  0.00  0.00    -0.084 Cl
ENDBRANCH  24  25
ENDBRANCH  21  23
ENDBRANCH   3  19
TORSDOF 5
