REMARK  Name = ZINC22781877
REMARK  4 active torsions:
REMARK  status: ('A' for Active; 'I' for Inactive)
REMARK    1  A    between atoms: C_1  and  C_2
REMARK    2  A    between atoms: C_16  and  O_25
REMARK    3  A    between atoms: C_20  and  N_24
REMARK    4  A    between atoms: C_21  and  C_22
REMARK                            x       y       z     vdW  Elec       q    Type
REMARK                         _______ _______ _______ _____ _____    ______ ____
ROOT
ATOM      1  C   UNL     1      -3.388   4.347  -4.981  0.00  0.00    +0.045 C 
ATOM      2  C   UNL     1      -3.743   3.899  -3.587  0.00  0.00    -0.036 A 
ATOM      3  C   UNL     1      -2.869   4.171  -2.540  0.00  0.00    +0.011 A 
ATOM      4  C   UNL     1      -3.242   3.740  -1.286  0.00  0.00    -0.001 A 
ATOM      5  C   UNL     1      -4.443   3.058  -1.056  0.00  0.00    +0.039 A 
ATOM      6  C   UNL     1      -5.312   2.789  -2.115  0.00  0.00    +0.039 A 
ATOM      7  C   UNL     1      -4.930   3.226  -3.375  0.00  0.00    +0.023 A 
ATOM      8 BR   UNL     1      -6.069   2.889  -4.847  0.00  0.00    -0.050 Br
ATOM      9  N   UNL     1      -4.569   2.743   0.285  0.00  0.00    -0.284 N 
ATOM     10  C   UNL     1      -3.511   3.169   1.006  0.00  0.00    +0.238 C 
ATOM     11  O   UNL     1      -3.351   3.030   2.200  0.00  0.00    -0.274 OA
ATOM     12  C   UNL     1      -2.562   3.853   0.043  0.00  0.00    +0.141 C 
ATOM     13  C   UNL     1      -1.242   3.134   0.029  0.00  0.00    +0.020 A 
ATOM     14  C   UNL     1      -1.218   1.750   0.017  0.00  0.00    +0.012 A 
ATOM     15  C   UNL     1      -0.013   1.076   0.008  0.00  0.00    +0.046 A 
ATOM     16  C   UNL     1       1.180   1.786   0.000  0.00  0.00    +0.120 A 
ATOM     17  C   UNL     1       1.159   3.171   0.008  0.00  0.00    +0.092 A 
ATOM     18  C   UNL     1      -0.054   3.849   0.022  0.00  0.00    +0.138 A 
ATOM     19  O   UNL     1      -0.059   5.204   0.028  0.00  0.00    -0.441 OA
ATOM     20  C   UNL     1      -1.159   5.875   0.408  0.00  0.00    +0.199 C 
ATOM     21  C   UNL     1      -2.381   5.290   0.437  0.00  0.00    +0.110 C 
ATOM     22  H   UNL     1      -5.459   2.205   0.642  0.00  0.00    +0.155 HD
ENDROOT
BRANCH  20  23
ATOM     23  N   UNL     1      -1.041   7.191   0.779  0.00  0.00    -0.328 N 
ATOM     24  H   UNL     1      -1.932   7.756   1.093  0.00  0.00    +0.145 HD
ATOM     25  H   UNL     1      -0.057   7.682   0.762  0.00  0.00    +0.145 HD
ENDBRANCH  20  23
BRANCH  21  26
ATOM     26  C   UNL     1      -3.519   6.056   0.849  0.00  0.00    +0.102 C 
ATOM     27  N   UNL     1      -4.421   6.664   1.175  0.00  0.00    -0.191 NA
ENDBRANCH  21  26
BRANCH  16  28
ATOM     28  O   UNL     1       2.366   1.124  -0.014  0.00  0.00    -0.507 OA
ATOM     29  H   UNL     1       3.311   1.688  -0.020  0.00  0.00    +0.292 HD
ENDBRANCH  16  28
TORSDOF 3
