REMARK  Name = ZINC35487008
REMARK  18 active torsions:
REMARK  status: ('A' for Active; 'I' for Inactive)
REMARK    1  A    between atoms: C_1  and  C_2
REMARK    2  A    between atoms: C_2  and  C_3
REMARK    3  A    between atoms: C_3  and  C_4
REMARK    4  A    between atoms: C_4  and  C_5
REMARK    5  A    between atoms: C_5  and  O_6
REMARK    6  A    between atoms: O_6  and  C_7
REMARK    7  A    between atoms: C_10  and  C_16
REMARK    8  A    between atoms: C_12  and  O_13
REMARK    9  A    between atoms: O_13  and  C_14
REMARK   10  A    between atoms: C_14  and  C_15
REMARK   11  A    between atoms: C_23  and  C_39
REMARK   12  A    between atoms: C_24  and  C_38
REMARK   13  A    between atoms: N_31  and  C_32
REMARK   14  A    between atoms: C_32  and  C_33
REMARK   15  A    between atoms: C_33  and  C_34
REMARK   16  A    between atoms: C_34  and  N_35
REMARK   17  A    between atoms: N_35  and  C_36
REMARK   18  A    between atoms: N_35  and  C_37
REMARK                            x       y       z     vdW  Elec       q    Type
REMARK                         _______ _______ _______ _____ _____    ______ ____
ROOT
ATOM      1  C   UNL     1       3.980  -6.446  -6.920  0.00  0.00    +0.145 C 
ATOM      2  C   UNL     1       5.464  -6.396  -6.763  0.00  0.00    +0.072 A 
ATOM      3  C   UNL     1       6.345  -6.940  -5.724  0.00  0.00    +0.199 A 
ATOM      4  O   UNL     1       5.962  -7.710  -4.861  0.00  0.00    -0.287 OA
ATOM      5  C   UNL     1       7.748  -6.465  -5.825  0.00  0.00    +0.065 A 
ATOM      6  C   UNL     1       8.659  -6.730  -4.803  0.00  0.00    +0.019 A 
ATOM      7  C   UNL     1       9.946  -6.281  -4.909  0.00  0.00    -0.047 A 
ATOM      8  C   UNL     1      10.346  -5.563  -6.027  0.00  0.00    -0.044 A 
ATOM      9  C   UNL     1       9.460  -5.294  -7.046  0.00  0.00    +0.050 A 
ATOM     10  C   UNL     1       8.142  -5.743  -6.963  0.00  0.00    +0.140 A 
ATOM     11  O   UNL     1       7.291  -5.476  -7.980  0.00  0.00    -0.450 OA
ATOM     12  C   UNL     1       5.972  -5.697  -7.821  0.00  0.00    +0.199 A 
ATOM     13  C   UNL     1       4.849  -5.275  -8.677  0.00  0.00    +0.283 C 
ATOM     14  O   UNL     1       4.959  -4.630  -9.701  0.00  0.00    -0.267 OA
ATOM     15  N   UNL     1       3.681  -5.710  -8.160  0.00  0.00    -0.284 N 
ATOM     16  C   UNL     1      11.767  -5.073  -6.128  0.00  0.00    +0.044 C 
ATOM     17  C   UNL     1      10.933  -6.566  -3.807  0.00  0.00    +0.044 C 
ENDROOT
BRANCH   1  21
ATOM     18  C   UNL     1       2.079  -4.553  -3.590  0.00  0.00    +0.162 A 
ATOM     19  C   UNL     1       2.645  -3.787  -4.596  0.00  0.00    +0.050 A 
ATOM     20  C   UNL     1       3.259  -4.402  -5.671  0.00  0.00    +0.009 A 
ATOM     21  C   UNL     1       3.310  -5.781  -5.746  0.00  0.00    -0.019 A 
ATOM     22  C   UNL     1       2.746  -6.552  -4.746  0.00  0.00    +0.055 A 
ATOM     23  C   UNL     1       2.134  -5.942  -3.663  0.00  0.00    +0.162 A 
BRANCH  18  24
ATOM     24  O   UNL     1       1.474  -3.950  -2.532  0.00  0.00    -0.488 OA
BRANCH  24  25
ATOM     25  C   UNL     1       1.455  -2.521  -2.524  0.00  0.00    +0.229 C 
BRANCH  25  26
ATOM     26  C   UNL     1       0.739  -2.027  -1.265  0.00  0.00    +0.041 C 
BRANCH  26  27
ATOM     27  C   UNL     1       0.718  -0.497  -1.257  0.00  0.00    +0.003 C 
BRANCH  27  29
ATOM     28  C   UNL     1      -0.019   1.526   0.010  0.00  0.00    +0.004 C 
ATOM     29  C   UNL     1       0.002  -0.004   0.002  0.00  0.00    -0.003 C 
ENDBRANCH  27  29
ENDBRANCH  26  27
ENDBRANCH  25  26
ENDBRANCH  24  25
ENDBRANCH  18  24
BRANCH  23  30
ATOM     30  O   UNL     1       1.584  -6.698  -2.676  0.00  0.00    -0.489 OA
BRANCH  30  31
ATOM     31  C   UNL     1       1.679  -8.117  -2.817  0.00  0.00    +0.226 C 
ATOM     32  C   UNL     1       1.009  -8.794  -1.619  0.00  0.00    +0.048 C 
ENDBRANCH  30  31
ENDBRANCH  23  30
ENDBRANCH   1  21
BRANCH  15  33
ATOM     33  C   UNL     1       2.349  -5.490  -8.730  0.00  0.00    +0.107 C 
BRANCH  33  34
ATOM     34  C   UNL     1       1.765  -4.190  -8.173  0.00  0.00    +0.000 C 
BRANCH  34  35
ATOM     35  C   UNL     1       0.375  -3.959  -8.768  0.00  0.00    -0.078 C 
BRANCH  35  36
ATOM     36  N   UNL     1      -0.186  -2.711  -8.233  0.00  0.00    +0.376 N 
ATOM     37  C   UNL     1       0.626  -1.575  -8.689  0.00  0.00    -0.097 C 
ATOM     38  C   UNL     1      -1.566  -2.550  -8.710  0.00  0.00    -0.097 C 
ATOM     39  H   UNL     1      -0.180  -2.745  -7.225  0.00  0.00    -0.083 HD
ENDBRANCH  35  36
ENDBRANCH  34  35
ENDBRANCH  33  34
ENDBRANCH  15  33
TORSDOF 12
