REMARK  Name = ZINC03768092
REMARK  5 active torsions:
REMARK  status: ('A' for Active; 'I' for Inactive)
REMARK    1  A    between atoms: C_1  and  C_2
REMARK    2  A    between atoms: C_5  and  C_8
REMARK    3  A    between atoms: N_10  and  N_11
REMARK    4  A    between atoms: C_14  and  C_17
REMARK    5  A    between atoms: N_26  and  C_27
REMARK                            x       y       z     vdW  Elec       q    Type
REMARK                         _______ _______ _______ _____ _____    ______ ____
ROOT
ATOM      1  N   UNL     1       2.295   5.516   0.212  0.00  0.00    -0.147 N 
ATOM      2  C   UNL     1       3.487   6.224   0.309  0.00  0.00    +0.186 A 
ATOM      3  N   UNL     1       4.728   5.774   0.314  0.00  0.00    -0.223 NA
ATOM      4  C   UNL     1       5.758   6.601   0.415  0.00  0.00    +0.080 A 
ATOM      5  C   UNL     1       5.533   7.945   0.516  0.00  0.00    +0.077 A 
ATOM      6  S   UNL     1       3.747   7.987   0.453  0.00  0.00    -0.058 S 
ATOM      7  C   UNL     1       2.317   4.173   0.104  0.00  0.00    +0.329 C 
ATOM      8  O   UNL     1       3.378   3.581   0.091  0.00  0.00    -0.250 OA
ATOM      9  N   UNL     1       1.161   3.486   0.009  0.00  0.00    -0.268 N 
ATOM     10  H   UNL     1       0.318   3.962  -0.059  0.00  0.00    +0.156 HD
ENDROOT
BRANCH   4  11
ATOM     11  C   UNL     1       7.144   6.072   0.418  0.00  0.00    +0.001 A 
ATOM     12  C   UNL     1       8.226   6.945   0.518  0.00  0.00    +0.013 A 
ATOM     13  C   UNL     1       9.513   6.449   0.524  0.00  0.00    +0.039 A 
ATOM     14  C   UNL     1       9.732   5.084   0.422  0.00  0.00    +0.123 A 
ATOM     15  C   UNL     1       8.660   4.213   0.317  0.00  0.00    +0.039 A 
ATOM     16  C   UNL     1       7.369   4.700   0.315  0.00  0.00    +0.013 A 
ATOM     17  F   UNL     1      10.994   4.603   0.424  0.00  0.00    -0.205 F 
ENDBRANCH   4  11
BRANCH   9  18
ATOM     18  C   UNL     1       1.177   2.086   0.009  0.00  0.00    +0.035 A 
ATOM     19  C   UNL     1       2.133   1.401   0.747  0.00  0.00    +0.025 A 
ATOM     20  C   UNL     1       2.146   0.020   0.745  0.00  0.00    +0.022 A 
ATOM     21  C   UNL     1       1.207  -0.681   0.009  0.00  0.00    +0.041 A 
ATOM     22  C   UNL     1       0.253  -0.001  -0.727  0.00  0.00    +0.022 A 
ATOM     23  C   UNL     1       0.235   1.380  -0.729  0.00  0.00    +0.025 A 
ATOM     24 CL   UNL     1       1.226  -2.417   0.009  0.00  0.00    -0.084 Cl
ENDBRANCH   9  18
BRANCH   1  27
ATOM     25  C   UNL     1       0.299   6.173   1.331  0.00  0.00    +0.261 C 
ATOM     26  O   UNL     1       0.664   5.557   2.314  0.00  0.00    -0.269 OA
ATOM     27  N   UNL     1       1.072   6.198   0.227  0.00  0.00    -0.220 N 
ATOM     28  H   UNL     1       0.781   6.689  -0.557  0.00  0.00    +0.174 HD
BRANCH  25  33
ATOM     29  C   UNL     1      -4.726   8.976   1.391  0.00  0.00    +0.044 C 
ATOM     30  C   UNL     1      -3.410   8.242   1.375  0.00  0.00    -0.050 A 
ATOM     31  C   UNL     1      -2.998   7.542   2.496  0.00  0.00    +0.004 A 
ATOM     32  C   UNL     1      -1.795   6.868   2.488  0.00  0.00    +0.013 A 
ATOM     33  C   UNL     1      -0.992   6.893   1.346  0.00  0.00    +0.038 A 
ATOM     34  C   UNL     1      -1.411   7.605   0.221  0.00  0.00    +0.013 A 
ATOM     35  C   UNL     1      -2.620   8.270   0.240  0.00  0.00    +0.004 A 
ENDBRANCH  25  33
ENDBRANCH   1  27
TORSDOF 4
