REMARK  Name = ZINC40470668
REMARK  3 active torsions:
REMARK  status: ('A' for Active; 'I' for Inactive)
REMARK    1  A    between atoms: C_8  and  C_11
REMARK    2  A    between atoms: CG_15  and  OD_23
REMARK    3  A    between atoms: CA_18  and  C_20
REMARK                            x       y       z     vdW  Elec       q    Type
REMARK                         _______ _______ _______ _____ _____    ______ ____
ROOT
ATOM      1  C   UNK A   1       3.521  -2.947  -1.282  0.00  0.00    +0.237 C 
ATOM      2  O   UNK A   1       3.927  -2.303  -2.227  0.00  0.00    -0.274 OA
ATOM      3  N   HYP A   2       3.495  -4.293  -1.345  0.00  0.00    -0.284 N 
ATOM      4  CD  HYP A   2       3.024  -5.194  -0.278  0.00  0.00    +0.140 C 
ATOM      5  CG  HYP A   2       2.612  -6.495  -1.011  0.00  0.00    +0.134 C 
ATOM      6  CB  HYP A   2       3.694  -6.585  -2.119  0.00  0.00    +0.067 C 
ATOM      7  CA  HYP A   2       3.927  -5.106  -2.492  0.00  0.00    +0.192 C 
ENDROOT
BRANCH   1  15
ATOM      8  C   UNK A   1      -0.017   1.378   0.010  0.00  0.00    +0.000 A 
ATOM      9  C   UNK A   1       1.174   2.082   0.002  0.00  0.00    +0.002 A 
ATOM     10  C   UNK A   1       2.377   1.411  -0.013  0.00  0.00    +0.023 A 
ATOM     11  C   UNK A   1       2.405   0.014  -0.021  0.00  0.00    +0.031 A 
ATOM     12  C   UNK A   1       1.206  -0.682  -0.013  0.00  0.00    -0.024 A 
ATOM     13  C   UNK A   1       0.002  -0.004   0.002  0.00  0.00    +0.005 A 
ATOM     14  C   UNK A   1       1.510  -2.163  -0.023  0.00  0.00    +0.068 C 
ATOM     15  C   UNK A   1       3.046  -2.241  -0.038  0.00  0.00    +0.161 C 
ATOM     16  N   UNK A   1       3.501  -0.849  -0.036  0.00  0.00    -0.332 N 
ATOM     17  H   UNK A   1       4.430  -0.568  -0.044  0.00  0.00    +0.147 HD
ENDBRANCH   1  15
BRANCH   7  18
ATOM     18  C   HYP A   2       5.391  -4.873  -2.762  0.00  0.00    +0.376 C 
ATOM     19  O   HYP A   2       6.143  -4.586  -1.846  0.00  0.00    -0.244 OA
ATOM     20  OXT HYP A   2       5.825  -4.972  -3.898  0.00  0.00    -0.244 OA
ENDBRANCH   7  18
BRANCH   5  21
ATOM     21  OD  HYP A   2       2.681  -7.621  -0.133  0.00  0.00    -0.390 OA
ATOM     22  HD  HYP A   2       2.090  -7.562   0.630  0.00  0.00    +0.210 HD
ENDBRANCH   5  21
TORSDOF 3
