REMARK  Name = ZINC44737162
REMARK  10 active torsions:
REMARK  status: ('A' for Active; 'I' for Inactive)
REMARK    1  A    between atoms: C_1  and  C_2
REMARK    2  A    between atoms: C_10  and  C_12
REMARK    3  A    between atoms: C_12  and  C_13
REMARK    4  A    between atoms: C_12  and  N_14
REMARK    5  A    between atoms: C_15  and  C_17
REMARK    6  A    between atoms: C_27  and  C_29
REMARK    7  A    between atoms: C_32  and  O_37
REMARK    8  A    between atoms: C_34  and  O_35
REMARK    9  A    between atoms: O_35  and  C_36
REMARK   10  A    between atoms: O_37  and  C_38
REMARK                            x       y       z     vdW  Elec       q    Type
REMARK                         _______ _______ _______ _____ _____    ______ ____
ROOT
ATOM      1  C   UNL     1      -1.622  -8.779   0.996  0.00  0.00    +0.100 C 
ATOM      2  C   UNL     1      -0.548  -9.334   0.033  0.00  0.00    +0.121 C 
ATOM      3  N   UNL     1      -0.032 -10.548   0.709  0.00  0.00    -0.296 N 
ATOM      4  C   UNL     1      -1.234 -11.177   1.308  0.00  0.00    +0.115 C 
ATOM      5  C   UNL     1      -2.069  -9.993   1.828  0.00  0.00    -0.004 C 
ATOM      6  C   UNL     1      -1.780  -9.755   3.307  0.00  0.00    -0.010 C 
ATOM      7  C   UNL     1      -2.284 -10.952   4.119  0.00  0.00    -0.082 C 
ATOM      8  N   UNL     1      -3.726 -11.119   3.902  0.00  0.00    +0.379 N 
ATOM      9  C   UNL     1      -3.988 -11.439   2.494  0.00  0.00    -0.082 C 
ATOM     10  C   UNL     1      -3.555 -10.264   1.613  0.00  0.00    -0.010 C 
ATOM     11  C   UNL     1       1.243 -10.982   0.766  0.00  0.00    +0.250 C 
ATOM     12  O   UNL     1       2.139 -10.302   0.303  0.00  0.00    -0.270 OA
ATOM     13  H   UNL     1      -4.068 -11.869   4.485  0.00  0.00    -0.086 HD
ATOM     14  H   UNL     1      -4.203 -10.264   4.146  0.00  0.00    -0.086 HD
ENDROOT
BRANCH  11  15
ATOM     15  C   UNL     1       1.551 -12.282   1.388  0.00  0.00    +0.079 A 
ATOM     16  C   UNL     1       0.657 -13.350   1.263  0.00  0.00    +0.020 A 
ATOM     17  C   UNL     1       0.948 -14.561   1.845  0.00  0.00    +0.046 A 
ATOM     18  C   UNL     1       2.131 -14.730   2.558  0.00  0.00    +0.124 A 
ATOM     19  C   UNL     1       3.025 -13.677   2.689  0.00  0.00    +0.092 A 
ATOM     20  C   UNL     1       2.746 -12.454   2.103  0.00  0.00    +0.136 A 
BRANCH  20  21
ATOM     21  O   UNL     1       3.621 -11.425   2.224  0.00  0.00    -0.494 OA
ATOM     22  C   UNL     1       4.817 -11.675   2.966  0.00  0.00    +0.277 C 
ENDBRANCH  20  21
BRANCH  18  23
ATOM     23  O   UNL     1       2.411 -15.928   3.130  0.00  0.00    -0.495 OA
ATOM     24  C   UNL     1       1.448 -16.970   2.958  0.00  0.00    +0.277 C 
ENDBRANCH  18  23
ENDBRANCH  11  15
BRANCH   1  26
ATOM     25  N   UNL     1      -1.799  -6.711   2.341  0.00  0.00    -0.305 N 
ATOM     26  C   UNL     1      -1.029  -7.721   1.889  0.00  0.00    +0.219 C 
ATOM     27  O   UNL     1       0.142  -7.777   2.202  0.00  0.00    -0.275 OA
ATOM     28  H   UNL     1      -2.735  -6.666   2.092  0.00  0.00    +0.149 HD
BRANCH  25  29
ATOM     29  C   UNL     1      -1.222  -5.682   3.210  0.00  0.00    +0.136 C 
ATOM     30  C   UNL     1      -0.564  -4.600   2.351  0.00  0.00    +0.036 C 
BRANCH  29  40
ATOM     31  C   UNL     1      -5.614  -2.342   8.204  0.00  0.00    +0.044 C 
ATOM     32  C   UNL     1      -5.134  -3.067   6.973  0.00  0.00    -0.048 A 
ATOM     33  C   UNL     1      -6.043  -3.435   5.991  0.00  0.00    +0.005 A 
ATOM     34  C   UNL     1      -5.628  -4.093   4.868  0.00  0.00    +0.030 A 
ATOM     35  C   UNL     1      -4.275  -4.401   4.702  0.00  0.00    +0.089 A 
ATOM     36  C   UNL     1      -3.354  -4.028   5.696  0.00  0.00    +0.067 A 
ATOM     37  C   UNL     1      -3.794  -3.356   6.828  0.00  0.00    +0.031 A 
ATOM     38  N   UNL     1      -2.120  -4.462   5.253  0.00  0.00    -0.340 N 
ATOM     39  H   UNL     1      -1.274  -4.357   5.716  0.00  0.00    +0.167 HD
ATOM     40  C   UNL     1      -2.311  -5.064   4.048  0.00  0.00    +0.128 A 
ATOM     41  N   UNL     1      -3.571  -5.029   3.725  0.00  0.00    -0.231 NA
ENDBRANCH  29  40
ENDBRANCH  25  29
ENDBRANCH   1  26
TORSDOF 6
