REMARK  Name = ZINC38985823
REMARK  10 active torsions:
REMARK  status: ('A' for Active; 'I' for Inactive)
REMARK    1  A    between atoms: C_1  and  C_2
REMARK    2  A    between atoms: C_7  and  C_37
REMARK    3  A    between atoms: C_9  and  N_12
REMARK    4  A    between atoms: C_13  and  C_15
REMARK    5  A    between atoms: C_15  and  N_16
REMARK    6  A    between atoms: N_19  and  C_22
REMARK    7  A    between atoms: C_22  and  C_24
REMARK    8  A    between atoms: C_22  and  C_30
REMARK    9  A    between atoms: C_37  and  O_39
REMARK   10  A    between atoms: O_39  and  C_40
REMARK                            x       y       z     vdW  Elec       q    Type
REMARK                         _______ _______ _______ _____ _____    ______ ____
ROOT
ATOM      1  C   UNL     1      -0.960  -2.464   5.165  0.00  0.00    +0.180 C 
ENDROOT
BRANCH   1   2
ATOM      2  N   UNL     1      -1.118  -1.286   6.028  0.00  0.00    -0.292 NA
ATOM      3  C   UNL     1       0.167  -0.598   6.220  0.00  0.00    +0.100 C 
ATOM      4  C   UNL     1      -0.053   0.664   7.057  0.00  0.00    +0.100 C 
ATOM      5  N   UNL     1      -0.649   0.295   8.349  0.00  0.00    -0.289 NA
ATOM      6  C   UNL     1      -1.933  -0.393   8.156  0.00  0.00    +0.100 C 
ATOM      7  C   UNL     1      -1.713  -1.655   7.320  0.00  0.00    +0.100 C 
BRANCH   5   8
ATOM      8  C   UNL     1      -0.806   1.473   9.212  0.00  0.00    +0.117 C 
BRANCH   8   9
ATOM      9  C   UNL     1      -1.411   1.055  10.527  0.00  0.00    -0.026 A 
ATOM     10  C   UNL     1      -0.929  -0.061  11.186  0.00  0.00    +0.007 A 
ATOM     11  C   UNL     1      -1.484  -0.445  12.392  0.00  0.00    +0.020 A 
ATOM     12  C   UNL     1      -2.521   0.288  12.941  0.00  0.00    +0.041 A 
ATOM     13  C   UNL     1      -3.003   1.405  12.282  0.00  0.00    +0.020 A 
ATOM     14  C   UNL     1      -2.444   1.791  11.078  0.00  0.00    +0.007 A 
ATOM     15 CL   UNL     1      -3.218  -0.194  14.456  0.00  0.00    -0.084 Cl
ENDBRANCH   8   9
BRANCH   8  16
ATOM     16  C   UNL     1       0.542   2.101   9.456  0.00  0.00    -0.026 A 
ATOM     17  C   UNL     1       1.645   1.301   9.687  0.00  0.00    +0.005 A 
ATOM     18  C   UNL     1       2.882   1.877   9.910  0.00  0.00    +0.000 A 
ATOM     19  C   UNL     1       3.015   3.253   9.903  0.00  0.00    +0.000 A 
ATOM     20  C   UNL     1       1.912   4.053   9.672  0.00  0.00    +0.000 A 
ATOM     21  C   UNL     1       0.676   3.477   9.444  0.00  0.00    +0.005 A 
ENDBRANCH   8  16
ENDBRANCH   5   8
ENDBRANCH   1   2
BRANCH   1  23
ATOM     22  N   UNL     1      -0.384  -2.938   2.806  0.00  0.00    -0.285 N 
ATOM     23  C   UNL     1      -0.582  -2.021   3.775  0.00  0.00    +0.231 C 
ATOM     24  O   UNL     1      -0.457  -0.841   3.527  0.00  0.00    -0.274 OA
ATOM     25  H   UNL     1      -0.541  -3.877   2.988  0.00  0.00    +0.155 HD
BRANCH  22  33
ATOM     26  C   UNL     1       0.778  -6.801  -1.000  0.00  0.00    +0.044 C 
ATOM     27  C   UNL     1       0.766  -5.302  -0.842  0.00  0.00    -0.050 A 
ATOM     28  C   UNL     1       1.147  -4.500  -1.921  0.00  0.00    +0.005 A 
ATOM     29  C   UNL     1       1.157  -3.148  -1.840  0.00  0.00    +0.026 A 
ATOM     30  C   UNL     1       0.772  -2.510  -0.632  0.00  0.00    +0.045 A 
ATOM     31  N   UNL     1       0.697  -1.237  -0.303  0.00  0.00    -0.367 N 
ATOM     32  C   UNL     1       0.238  -1.126   1.085  0.00  0.00    +0.234 C 
ATOM     33  C   UNL     1       0.037  -2.544   1.572  0.00  0.00    +0.053 C 
ATOM     34  C   UNL     1       0.370  -3.359   0.504  0.00  0.00    +0.018 A 
ATOM     35  C   UNL     1       0.381  -4.765   0.342  0.00  0.00    +0.015 A 
ATOM     36  H   UNL     1       0.912  -0.491  -0.886  0.00  0.00    +0.161 HD
BRANCH  32  37
ATOM     37  C   UNL     1      -1.062  -0.367   1.143  0.00  0.00    +0.335 C 
ATOM     38  O   UNL     1      -1.914  -0.563   0.308  0.00  0.00    -0.248 OA
BRANCH  37  39
ATOM     39  O   UNL     1      -1.275   0.527   2.122  0.00  0.00    -0.466 OA
ATOM     40  C   UNL     1      -2.530   1.210   2.115  0.00  0.00    +0.280 C 
ENDBRANCH  37  39
ENDBRANCH  32  37
ENDBRANCH  22  33
ENDBRANCH   1  23
TORSDOF 8
