REMARK  Name = ZINC12218781
REMARK  8 active torsions:
REMARK  status: ('A' for Active; 'I' for Inactive)
REMARK    1  A    between atoms: C_5  and  N_7
REMARK    2  A    between atoms: C_12  and  C_13
REMARK    3  A    between atoms: C_12  and  N_72
REMARK    4  A    between atoms: C_17  and  O_19
REMARK    5  A    between atoms: O_19  and  C_20
REMARK    6  A    between atoms: C_20  and  C_21
REMARK    7  A    between atoms: C_28  and  C_30
REMARK    8  A    between atoms: C_30  and  C_31
REMARK                            x       y       z     vdW  Elec       q    Type
REMARK                         _______ _______ _______ _____ _____    ______ ____
ROOT
ATOM      1  C   UNL     1      -0.018   1.503   0.010  0.00  0.00    -0.060 A 
ATOM      2  C   UNL     1       1.170   2.210   0.003  0.00  0.00    +0.002 A 
ATOM      3  C   UNL     1       1.155   3.592   0.009  0.00  0.00    +0.004 A 
ATOM      4  C   UNL     1      -0.049   4.271   0.025  0.00  0.00    +0.045 A 
ATOM      5  C   UNL     1      -1.242   3.564   0.033  0.00  0.00    +0.121 A 
ATOM      6  C   UNL     1      -1.224   2.176   0.020  0.00  0.00    +0.047 A 
ENDROOT
BRANCH   1   7
ATOM      7  C   UNL     1       0.002  -0.004   0.002  0.00  0.00    -0.043 C 
BRANCH   7  13
ATOM      8  N   UNL     1       1.009  -2.059   3.553  0.00  0.00    -0.331 N 
ATOM      9  C   UNL     1      -0.248  -2.419   2.882  0.00  0.00    +0.086 C 
ATOM     10  C   UNL     1      -0.196  -1.954   1.425  0.00  0.00    -0.059 C 
ATOM     11  C   UNL     1       1.279  -0.141   2.055  0.00  0.00    -0.059 C 
ATOM     12  C   UNL     1       1.227  -0.606   3.513  0.00  0.00    +0.086 C 
ATOM     13  N   UNL     1       0.001  -0.489   1.399  0.00  0.00    +0.384 N 
ATOM     14  H   UNL     1      -0.769  -0.040   1.907  0.00  0.00    -0.081 HD
BRANCH   8  19
ATOM     15  C   UNL     1       0.936  -4.358   6.421  0.00  0.00    +0.002 A 
ATOM     16  C   UNL     1       1.064  -3.469   7.473  0.00  0.00    +0.003 A 
ATOM     17  C   UNL     1       1.174  -2.113   7.228  0.00  0.00    +0.040 A 
ATOM     18  C   UNL     1       1.156  -1.641   5.928  0.00  0.00    +0.144 A 
ATOM     19  C   UNL     1       1.028  -2.532   4.869  0.00  0.00    +0.065 A 
ATOM     20  C   UNL     1       0.913  -3.893   5.121  0.00  0.00    +0.026 A 
ATOM     21  F   UNL     1       1.262  -0.315   5.689  0.00  0.00    -0.204 F 
ENDBRANCH   8  19
ENDBRANCH   7  13
ENDBRANCH   1   7
BRANCH   5  22
ATOM     22  O   UNL     1      -2.427   4.229   0.048  0.00  0.00    -0.492 OA
BRANCH  22  23
ATOM     23  C   UNL     1      -2.370   5.657   0.055  0.00  0.00    +0.234 C 
BRANCH  23  24
ATOM     24  C   UNL     1      -3.790   6.224   0.072  0.00  0.00    +0.044 C 
ATOM     25  C   UNL     1      -4.503   5.858  -1.232  0.00  0.00    +0.010 C 
ATOM     26  C   UNL     1      -5.935   6.397  -1.202  0.00  0.00    +0.019 C 
ATOM     27  C   UNL     1      -5.899   7.924  -1.083  0.00  0.00    +0.108 C 
ATOM     28  N   UNL     1      -5.092   8.288   0.090  0.00  0.00    -0.301 N 
ATOM     29  C   UNL     1      -3.730   7.749   0.206  0.00  0.00    +0.114 C 
ATOM     30  C   UNL     1      -5.592   9.101   1.041  0.00  0.00    +0.218 C 
ATOM     31  O   UNL     1      -4.916   9.395   2.005  0.00  0.00    -0.276 OA
BRANCH  30  32
ATOM     32  C   UNL     1      -6.991   9.646   0.908  0.00  0.00    +0.127 C 
BRANCH  32  33
ATOM     33  C   UNL     1      -7.309  10.535   2.112  0.00  0.00    +0.169 C 
ATOM     34  C   UNL     1      -8.720  11.081   2.015  0.00  0.00    +0.241 C 
ATOM     35  O   UNL     1      -9.169  11.798   1.146  0.00  0.00    -0.273 OA
ATOM     36  N   UNL     1      -9.371  10.604   3.094  0.00  0.00    -0.239 N 
ATOM     37  C   UNL     1      -8.576   9.841   3.853  0.00  0.00    +0.307 C 
ATOM     38  O   UNL     1      -8.937   9.299   4.879  0.00  0.00    -0.252 OA
ATOM     39  N   UNL     1      -7.331   9.739   3.352  0.00  0.00    -0.287 N 
ATOM     40  H   UNL     1     -10.300  10.791   3.296  0.00  0.00    +0.159 HD
ATOM     41  H   UNL     1      -6.592   9.239   3.733  0.00  0.00    +0.151 HD
ENDBRANCH  32  33
ENDBRANCH  30  32
ENDBRANCH  23  24
ENDBRANCH  22  23
ENDBRANCH   5  22
TORSDOF 8
