REMARK  Name = ZINC19632514
REMARK  8 active torsions:
REMARK  status: ('A' for Active; 'I' for Inactive)
REMARK    1  A    between atoms: C_1  and  C_2
REMARK    2  A    between atoms: C_7  and  C_8
REMARK    3  A    between atoms: C_8  and  N_9
REMARK    4  A    between atoms: N_12  and  C_15
REMARK    5  A    between atoms: C_15  and  C_16
REMARK    6  A    between atoms: N_18  and  C_19
REMARK    7  A    between atoms: C_20  and  C_30
REMARK    8  A    between atoms: C_25  and  C_29
REMARK                            x       y       z     vdW  Elec       q    Type
REMARK                         _______ _______ _______ _____ _____    ______ ____
ROOT
ATOM      1  C   UNL     1      -4.948   1.668   6.282  0.00  0.00    +0.232 C 
ATOM      2  O   UNL     1      -3.901   1.787   6.882  0.00  0.00    -0.274 OA
ATOM      3  N   UNL     1      -6.093   2.126   6.827  0.00  0.00    -0.278 N 
ATOM      4  H   UNL     1      -6.931   2.030   6.347  0.00  0.00    +0.155 HD
ENDROOT
BRANCH   3   5
ATOM      5  C   UNL     1      -6.073   2.732   8.074  0.00  0.00    +0.084 A 
ATOM      6  C   UNL     1      -7.143   3.252   8.785  0.00  0.00    +0.068 A 
ATOM      7  C   UNL     1      -6.855   3.841  10.082  0.00  0.00    -0.023 A 
ATOM      8  C   UNL     1      -5.551   3.801  10.429  0.00  0.00    -0.004 A 
ATOM      9  S   UNL     1      -4.749   2.999   9.071  0.00  0.00    -0.077 S 
ATOM     10  C   UNL     1      -4.940   4.324  11.692  0.00  0.00    +0.046 C 
ATOM     11  C   UNL     1      -5.958   5.250  12.373  0.00  0.00    -0.009 C 
ATOM     12  C   UNL     1      -7.319   4.547  12.413  0.00  0.00    +0.008 C 
ATOM     13  C   UNL     1      -7.900   4.457  11.000  0.00  0.00    +0.037 C 
ATOM     14  C   UNL     1      -5.497   5.560  13.798  0.00  0.00    +0.008 C 
BRANCH   6  15
ATOM     15  C   UNL     1      -8.508   3.211   8.251  0.00  0.00    +0.244 C 
ATOM     16  O   UNL     1      -9.226   2.257   8.488  0.00  0.00    -0.270 OA
ATOM     17  N   UNL     1      -8.968   4.230   7.498  0.00  0.00    -0.325 N 
ATOM     18  H   UNL     1      -8.396   4.990   7.309  0.00  0.00    +0.145 HD
ATOM     19  H   UNL     1      -9.871   4.202   7.144  0.00  0.00    +0.145 HD
ENDBRANCH   6  15
ENDBRANCH   3   5
BRANCH   1  20
ATOM     20  C   UNL     1      -4.970   1.009   4.927  0.00  0.00    +0.180 C 
BRANCH  20  24
ATOM     21  N   UNL     1      -1.342   0.478   2.824  0.00  0.00    +0.384 N 
ATOM     22  C   UNL     1      -2.189  -0.701   3.048  0.00  0.00    -0.063 C 
ATOM     23  C   UNL     1      -3.617  -0.251   3.362  0.00  0.00    +0.066 C 
ATOM     24  N   UNL     1      -3.607   0.601   4.559  0.00  0.00    -0.298 NA
ATOM     25  C   UNL     1      -2.743   1.774   4.358  0.00  0.00    +0.066 C 
ATOM     26  C   UNL     1      -1.322   1.307   4.036  0.00  0.00    -0.063 C 
ATOM     27  H   UNL     1      -1.712   1.016   2.055  0.00  0.00    -0.081 HD
BRANCH  21  28
ATOM     28  C   UNL     1       0.025   0.045   2.504  0.00  0.00    -0.043 C 
BRANCH  28  35
ATOM     29  C   UNL     1      -0.018   1.503   0.010  0.00  0.00    +0.044 C 
ATOM     30  C   UNL     1       0.002  -0.004   0.002  0.00  0.00    -0.049 A 
ATOM     31  C   UNL     1       0.006  -0.689  -1.199  0.00  0.00    +0.003 A 
ATOM     32  C   UNL     1       0.025  -2.071  -1.207  0.00  0.00    +0.000 A 
ATOM     33  C   UNL     1       0.040  -2.768  -0.013  0.00  0.00    +0.000 A 
ATOM     34  C   UNL     1       0.037  -2.084   1.188  0.00  0.00    +0.002 A 
ATOM     35  C   UNL     1       0.023  -0.702   1.195  0.00  0.00    -0.061 A 
ENDBRANCH  28  35
ENDBRANCH  21  28
ENDBRANCH  20  24
ENDBRANCH   1  20
TORSDOF 6
