REMARK  Name = ZINC40378728
REMARK  4 active torsions:
REMARK  status: ('A' for Active; 'I' for Inactive)
REMARK    1  A    between atoms: C_3  and  C_7
REMARK    2  A    between atoms: N_9  and  C_10
REMARK    3  A    between atoms: C_13  and  S_17
REMARK    4  A    between atoms: S_17  and  N_20
REMARK                            x       y       z     vdW  Elec       q    Type
REMARK                         _______ _______ _______ _____ _____    ______ ____
ROOT
ATOM      1  C   UNL     1       5.637  -0.574  -0.146  0.00  0.00    +0.048 A 
ATOM      2  C   UNL     1       6.392   0.592  -0.136  0.00  0.00    +0.026 A 
ATOM      3  C   UNL     1       7.767   0.523  -0.239  0.00  0.00    +0.030 A 
ATOM      4  C   UNL     1       8.394  -0.705  -0.353  0.00  0.00    +0.106 A 
ATOM      5  C   UNL     1       7.646  -1.867  -0.363  0.00  0.00    +0.045 A 
ATOM      6  C   UNL     1       6.269  -1.806  -0.255  0.00  0.00    +0.041 A 
ATOM      7 BR   UNL     1       5.248  -3.398  -0.261  0.00  0.00    -0.048 Br
ENDROOT
BRANCH   1  10
ATOM      8  C   UNL     1       3.574   0.518  -0.604  0.00  0.00    +0.265 C 
ATOM      9  O   UNL     1       4.185   1.428  -1.131  0.00  0.00    -0.268 OA
ATOM     10  N   UNL     1       4.244  -0.508  -0.042  0.00  0.00    -0.279 N 
ATOM     11  H   UNL     1       3.760  -1.200   0.436  0.00  0.00    +0.155 HD
BRANCH   8  14
ATOM     12  C   UNL     1      -0.026   1.133  -0.867  0.00  0.00    +0.020 A 
ATOM     13  C   UNL     1       1.296   1.516  -1.113  0.00  0.00    +0.032 A 
ATOM     14  C   UNL     1       2.107   0.536  -0.580  0.00  0.00    +0.102 A 
ATOM     15  N   UNL     1       1.290  -0.421  -0.022  0.00  0.00    -0.357 N 
ATOM     16  H   UNL     1       1.589  -1.228   0.426  0.00  0.00    +0.165 HD
ATOM     17  C   UNL     1      -0.000  -0.048  -0.202  0.00  0.00    +0.083 A 
ENDBRANCH   8  14
ENDBRANCH   1  10
BRANCH   4  18
ATOM     18  S   UNL     1      10.149  -0.787  -0.485  0.00  0.00    +0.056 S 
ATOM     19  O   UNL     1      10.450  -2.018  -1.128  0.00  0.00    -0.153 OA
ATOM     20  O   UNL     1      10.576   0.467  -1.000  0.00  0.00    -0.153 OA
BRANCH  18  21
ATOM     21  N   UNL     1      10.751  -0.897   1.054  0.00  0.00    -0.204 NA
ATOM     22  H   UNL     1      11.583  -1.369   1.216  0.00  0.00    +0.144 HD
ATOM     23  H   UNL     1      10.272  -0.490   1.792  0.00  0.00    +0.144 HD
ENDBRANCH  18  21
ENDBRANCH   4  18
TORSDOF 4
