REMARK  Name = ZINC16000673
REMARK  3 active torsions:
REMARK  status: ('A' for Active; 'I' for Inactive)
REMARK    1  A    between atoms: C_1  and  C_2
REMARK    2  A    between atoms: N_23  and  C_26
REMARK    3  A    between atoms: C_31  and  C_32
REMARK                            x       y       z     vdW  Elec       q    Type
REMARK                         _______ _______ _______ _____ _____    ______ ____
ROOT
ATOM      1  C   UNL     1       4.327   2.096  -0.026  0.00  0.00    +0.045 C 
ATOM      2  C   UNL     1       3.550   0.805  -0.027  0.00  0.00    -0.029 A 
ATOM      3  C   UNL     1       4.220  -0.401  -0.041  0.00  0.00    +0.005 A 
ATOM      4  C   UNL     1       3.517  -1.591  -0.042  0.00  0.00    +0.001 A 
ATOM      5  C   UNL     1       2.133  -1.573  -0.028  0.00  0.00    +0.004 A 
ATOM      6  C   UNL     1       1.460  -0.372  -0.015  0.00  0.00    -0.027 A 
ATOM      7  C   UNL     1       2.158   0.832  -0.014  0.00  0.00    +0.039 A 
ATOM      8  N   UNL     1       1.266   1.907   0.000  0.00  0.00    -0.286 N 
ATOM      9  C   UNL     1      -0.018   1.501   0.010  0.00  0.00    +0.212 C 
ATOM     10  O   UNL     1      -1.001   2.212   0.019  0.00  0.00    -0.277 OA
ATOM     11  C   UNL     1       0.002  -0.004   0.002  0.00  0.00    +0.053 C 
ATOM     12  C   UNL     1      -0.785  -0.608  -1.109  0.00  0.00    +0.089 C 
ATOM     13  C   UNL     1      -0.933  -2.076  -0.532  0.00  0.00    +0.074 C 
ATOM     14  C   UNL     1      -1.462  -1.738   0.836  0.00  0.00    -0.054 C 
ATOM     15  C   UNL     1      -1.593   0.451   1.792  0.00  0.00    -0.076 C 
ATOM     16  C   UNL     1      -2.892   0.252   1.001  0.00  0.00    -0.020 C 
ATOM     17  C   UNL     1      -2.928  -1.272   0.755  0.00  0.00    -0.016 C 
ATOM     18  C   UNL     1      -1.663  -2.671  -1.667  0.00  0.00    +0.228 C 
ATOM     19  O   UNL     1      -2.544  -3.502  -1.625  0.00  0.00    -0.275 OA
ATOM     20  N   UNL     1      -1.127  -2.080  -2.782  0.00  0.00    -0.209 N 
ATOM     21  C   UNL     1      -0.400  -0.956  -2.484  0.00  0.00    +0.229 C 
ATOM     22  O   UNL     1       0.389  -0.376  -3.198  0.00  0.00    -0.275 OA
ATOM     23  H   UNL     1       1.540   2.837   0.003  0.00  0.00    +0.155 HD
ATOM     24  N   UNL     1      -0.673  -0.556   1.221  0.00  0.00    +0.395 N 
ATOM     25  H   UNL     1       0.034  -0.817   1.918  0.00  0.00    -0.079 HD
ENDROOT
BRANCH  20  26
ATOM     26  C   UNL     1      -1.302  -2.571  -4.084  0.00  0.00    +0.056 A 
ATOM     27  C   UNL     1      -2.378  -2.142  -4.850  0.00  0.00    +0.024 A 
ATOM     28  C   UNL     1      -2.548  -2.627  -6.132  0.00  0.00    +0.002 A 
ATOM     29  C   UNL     1      -1.648  -3.538  -6.653  0.00  0.00    +0.001 A 
ATOM     30  C   UNL     1      -0.575  -3.966  -5.893  0.00  0.00    +0.014 A 
ATOM     31  C   UNL     1      -0.397  -3.481  -4.612  0.00  0.00    +0.077 A 
BRANCH  31  32
ATOM     32  C   UNL     1       0.776  -3.943  -3.786  0.00  0.00    +0.419 C 
ATOM     33  F   UNL     1       1.539  -4.851  -4.528  0.00  0.00    -0.166 F 
ATOM     34  F   UNL     1       1.567  -2.842  -3.442  0.00  0.00    -0.166 F 
ATOM     35  F   UNL     1       0.311  -4.566  -2.623  0.00  0.00    -0.166 F 
ENDBRANCH  31  32
ENDBRANCH  20  26
TORSDOF 2
