REMARK  Name = ZINC54499251
REMARK  4 active torsions:
REMARK  status: ('A' for Active; 'I' for Inactive)
REMARK    1  A    between atoms: C_1  and  C_2
REMARK    2  A    between atoms: C_4  and  C_8
REMARK    3  A    between atoms: N_5  and  C_7
REMARK    4  A    between atoms: C_10  and  N_16
REMARK                            x       y       z     vdW  Elec       q    Type
REMARK                         _______ _______ _______ _____ _____    ______ ____
ROOT
ATOM      1  C   UNL     1      -0.314  -2.995  -1.854  0.00  0.00    +0.056 A 
ATOM      2  C   UNL     1      -0.446  -2.635  -3.196  0.00  0.00    +0.040 A 
ATOM      3  C   UNL     1      -0.621  -3.616  -4.158  0.00  0.00    +0.061 A 
ATOM      4  C   UNL     1      -0.667  -4.957  -3.786  0.00  0.00    +0.147 A 
ATOM      5  C   UNL     1      -0.538  -5.314  -2.456  0.00  0.00    +0.079 A 
ATOM      6  C   UNL     1      -0.356  -4.342  -1.489  0.00  0.00    +0.137 A 
ATOM      7  F   UNL     1      -0.225  -4.696  -0.192  0.00  0.00    -0.205 F 
ATOM      8  F   UNL     1      -0.839  -5.911  -4.726  0.00  0.00    -0.203 F 
ENDROOT
BRANCH   1  12
ATOM      9  C   UNL     1      -0.848  -0.377   2.357  0.00  0.00    +0.090 C 
ATOM     10  C   UNL     1      -0.346  -0.806   1.002  0.00  0.00    +0.149 A 
ATOM     11  N   UNL     1      -0.771  -1.868   0.324  0.00  0.00    -0.211 NA
ATOM     12  C   UNL     1      -0.126  -1.952  -0.822  0.00  0.00    +0.161 A 
ATOM     13  N   UNL     1       0.740  -0.915  -0.886  0.00  0.00    -0.248 N 
ATOM     14  N   UNL     1       0.572  -0.189   0.304  0.00  0.00    -0.155 NA
ATOM     15  C   UNL     1       1.665  -0.608  -1.980  0.00  0.00    +0.174 C 
ENDBRANCH   1  12
BRANCH   3  16
ATOM     16  N   UNL     1      -0.754  -3.259  -5.505  0.00  0.00    -0.356 N 
ATOM     17  H   UNL     1      -0.722  -2.325  -5.765  0.00  0.00    +0.142 HD
ATOM     18  H   UNL     1      -0.877  -3.946  -6.179  0.00  0.00    +0.142 HD
ENDBRANCH   3  16
TORSDOF 2
