REMARK  Name = ZINC67239545
REMARK  6 active torsions:
REMARK  status: ('A' for Active; 'I' for Inactive)
REMARK    1  A    between atoms: C_2  and  C_3
REMARK    2  A    between atoms: C_3  and  N_4
REMARK    3  A    between atoms: C_9  and  C_11
REMARK    4  A    between atoms: N_13  and  C_14
REMARK    5  A    between atoms: C_17  and  C_20
REMARK    6  A    between atoms: C_20  and  N_21
REMARK                            x       y       z     vdW  Elec       q    Type
REMARK                         _______ _______ _______ _____ _____    ______ ____
ROOT
ATOM      1  C   UNL     1       0.467   3.956   1.154  0.00  0.00    +0.204 C 
ATOM      2  O   UNL     1      -0.061   3.176   1.918  0.00  0.00    -0.277 OA
ATOM      3  N   UNL     1       0.394   5.281   1.386  0.00  0.00    -0.287 N 
ATOM      4  H   UNL     1       0.753   5.908   0.739  0.00  0.00    +0.155 HD
ENDROOT
BRANCH   1  10
ATOM      5  N   UNL     1       0.617   2.168  -0.483  0.00  0.00    +0.395 N 
ATOM      6  C   UNL     1       1.280   1.698  -1.706  0.00  0.00    -0.076 C 
ATOM      7  C   UNL     1       2.757   1.423  -1.416  0.00  0.00    -0.019 C 
ATOM      8  C   UNL     1       3.426   2.713  -0.934  0.00  0.00    -0.003 C 
ATOM      9  C   UNL     1       2.680   3.235   0.298  0.00  0.00    -0.006 C 
ATOM     10  C   UNL     1       1.206   3.442  -0.056  0.00  0.00    +0.021 C 
ATOM     11  H   UNL     1       0.736   1.482   0.247  0.00  0.00    -0.079 HD
BRANCH   5  12
ATOM     12  C   UNL     1      -0.816   2.356  -0.747  0.00  0.00    +0.013 C 
BRANCH  12  14
ATOM     13  C   UNL     1      -1.927   0.018  -1.297  0.00  0.00    +0.002 C 
ATOM     14  C   UNL     1      -1.434   1.055  -1.053  0.00  0.00    -0.124 C 
ENDBRANCH  12  14
ENDBRANCH   5  12
ENDBRANCH   1  10
BRANCH   3  15
ATOM     15  C   UNL     1      -0.199   5.753   2.562  0.00  0.00    +0.033 A 
ATOM     16  C   UNL     1      -0.897   6.954   2.556  0.00  0.00    +0.023 A 
ATOM     17  C   UNL     1      -1.481   7.418   3.718  0.00  0.00    +0.007 A 
ATOM     18  C   UNL     1      -1.373   6.687   4.887  0.00  0.00    -0.030 A 
ATOM     19  C   UNL     1      -0.679   5.492   4.897  0.00  0.00    +0.007 A 
ATOM     20  C   UNL     1      -0.097   5.019   3.737  0.00  0.00    +0.023 A 
BRANCH  18  21
ATOM     21  C   UNL     1      -2.012   7.196   6.154  0.00  0.00    +0.141 C 
BRANCH  21  22
ATOM     22  N   UNL     1      -3.381   6.684   6.249  0.00  0.00    -0.295 N 
ATOM     23  C   UNL     1      -4.151   7.011   7.307  0.00  0.00    +0.297 C 
ATOM     24  O   UNL     1      -3.708   7.730   8.181  0.00  0.00    -0.253 OA
ATOM     25  N   UNL     1      -5.410   6.540   7.394  0.00  0.00    -0.313 N 
ATOM     26  H   UNL     1      -3.734   6.110   5.551  0.00  0.00    +0.151 HD
ATOM     27  H   UNL     1      -5.763   5.966   6.697  0.00  0.00    +0.146 HD
ATOM     28  H   UNL     1      -5.964   6.775   8.156  0.00  0.00    +0.146 HD
ENDBRANCH  21  22
ENDBRANCH  18  21
ENDBRANCH   3  15
TORSDOF 6
