REMARK  Name = ZINC01908416
REMARK  5 active torsions:
REMARK  status: ('A' for Active; 'I' for Inactive)
REMARK    1  A    between atoms: C_6  and  C_27
REMARK    2  A    between atoms: C_7  and  N_9
REMARK    3  A    between atoms: C_10  and  C_12
REMARK    4  A    between atoms: N_14  and  C_15
REMARK    5  A    between atoms: C_16  and  C_24
REMARK                            x       y       z     vdW  Elec       q    Type
REMARK                         _______ _______ _______ _____ _____    ______ ____
ROOT
ATOM      1  N   UNL     1      -2.848   2.103   8.153  0.00  0.00    -0.272 N 
ATOM      2  C   UNL     1      -2.072   1.441   7.272  0.00  0.00    +0.304 C 
ATOM      3  O   UNL     1      -1.377   0.519   7.648  0.00  0.00    -0.265 OA
ATOM      4  H   UNL     1      -3.403   2.840   7.853  0.00  0.00    +0.156 HD
ENDROOT
BRANCH   1  11
ATOM      5  C   UNL     1      -4.063   1.106  14.169  0.00  0.00    +0.005 C 
ATOM      6  C   UNL     1      -2.612   0.658  14.373  0.00  0.00    +0.005 C 
ATOM      7  C   UNL     1      -2.156  -0.120  13.130  0.00  0.00    +0.043 C 
ATOM      8  C   UNL     1      -2.535   0.669  11.914  0.00  0.00    -0.004 A 
ATOM      9  C   UNL     1      -3.402   1.704  11.852  0.00  0.00    -0.023 A 
ATOM     10  C   UNL     1      -3.575   2.288  10.534  0.00  0.00    +0.068 A 
ATOM     11  C   UNL     1      -2.854   1.731   9.486  0.00  0.00    +0.085 A 
ATOM     12  S   UNL     1      -1.958   0.462  10.254  0.00  0.00    -0.077 S 
ATOM     13  C   UNL     1      -4.125   2.198  13.100  0.00  0.00    +0.037 C 
BRANCH  10  14
ATOM     14  C   UNL     1      -4.479   3.422  10.317  0.00  0.00    +0.244 C 
ATOM     15  O   UNL     1      -5.647   3.224  10.038  0.00  0.00    -0.270 OA
ATOM     16  N   UNL     1      -4.017   4.683  10.427  0.00  0.00    -0.325 N 
ATOM     17  H   UNL     1      -3.086   4.841  10.649  0.00  0.00    +0.145 HD
ATOM     18  H   UNL     1      -4.615   5.433  10.283  0.00  0.00    +0.145 HD
ENDBRANCH  10  14
ENDBRANCH   1  11
BRANCH   2  19
ATOM     19  C   UNL     1      -2.066   1.842   5.836  0.00  0.00    +0.304 C 
ATOM     20  O   UNL     1      -2.760   2.764   5.460  0.00  0.00    -0.265 OA
ATOM     21  N   UNL     1      -1.289   1.181   4.955  0.00  0.00    -0.272 N 
ATOM     22  H   UNL     1      -0.734   0.444   5.255  0.00  0.00    +0.156 HD
BRANCH  21  23
ATOM     23  C   UNL     1      -1.283   1.553   3.622  0.00  0.00    +0.085 A 
ATOM     24  C   UNL     1      -0.559   0.999   2.575  0.00  0.00    +0.068 A 
ATOM     25  C   UNL     1      -0.732   1.580   1.257  0.00  0.00    -0.023 A 
ATOM     26  C   UNL     1      -1.602   2.615   1.194  0.00  0.00    -0.004 A 
ATOM     27  S   UNL     1      -2.179   2.822   2.854  0.00  0.00    -0.077 S 
ATOM     28  C   UNL     1      -1.980   3.405  -0.021  0.00  0.00    +0.043 C 
ATOM     29  C   UNL     1      -0.956   3.111  -1.127  0.00  0.00    +0.005 C 
ATOM     30  C   UNL     1      -0.758   1.595  -1.227  0.00  0.00    +0.005 C 
ATOM     31  C   UNL     1      -0.013   1.086   0.008  0.00  0.00    +0.037 C 
BRANCH  24  32
ATOM     32  C   UNL     1       0.351  -0.131   2.793  0.00  0.00    +0.244 C 
ATOM     33  O   UNL     1      -0.061  -1.271   2.693  0.00  0.00    -0.270 OA
ATOM     34  N   UNL     1       1.643   0.095   3.104  0.00  0.00    -0.325 N 
ATOM     35  H   UNL     1       1.971   1.004   3.183  0.00  0.00    +0.145 HD
ATOM     36  H   UNL     1       2.244  -0.652   3.248  0.00  0.00    +0.145 HD
ENDBRANCH  24  32
ENDBRANCH  21  23
ENDBRANCH   2  19
TORSDOF 5
