REMARK  Name = ZINC03445698
REMARK  8 active torsions:
REMARK  status: ('A' for Active; 'I' for Inactive)
REMARK    1  A    between atoms: C_1  and  C_2
REMARK    2  A    between atoms: C_7  and  N_8
REMARK    3  A    between atoms: C_9  and  C_11
REMARK    4  A    between atoms: N_12  and  O_13
REMARK    5  A    between atoms: O_13  and  C_14
REMARK    6  A    between atoms: C_14  and  C_15
REMARK    7  A    between atoms: C_18  and  C_33
REMARK    8  A    between atoms: C_21  and  C_23
REMARK                            x       y       z     vdW  Elec       q    Type
REMARK                         _______ _______ _______ _____ _____    ______ ____
ROOT
ATOM      1  C   UNL     1      -0.536   0.087   9.584  0.00  0.00    +0.273 C 
ATOM      2  O   UNL     1      -0.546   1.296   9.493  0.00  0.00    -0.270 OA
ATOM      3  N   UNL     1      -0.623  -0.499  10.794  0.00  0.00    -0.208 N 
ATOM      4  C   UNL     1      -0.740   0.175  12.098  0.00  0.00    +0.152 C 
ATOM      5  C   UNL     1      -0.801  -0.949  13.108  0.00  0.00    +0.027 C 
ATOM      6  C   UNL     1      -0.727  -2.094  12.434  0.00  0.00    +0.050 C 
ATOM      7  N   UNL     1      -0.626  -1.874  11.067  0.00  0.00    -0.261 N 
ATOM      8  H   UNL     1      -0.565  -2.572  10.396  0.00  0.00    +0.170 HD
ENDROOT
BRANCH   6   9
ATOM      9  C   UNL     1      -0.753  -3.434  13.063  0.00  0.00    -0.002 A 
ATOM     10  C   UNL     1      -0.868  -3.547  14.459  0.00  0.00    +0.010 A 
ATOM     11  C   UNL     1      -0.895  -4.764  15.059  0.00  0.00    +0.009 A 
ATOM     12  C   UNL     1      -0.807  -5.934  14.283  0.00  0.00    -0.018 A 
ATOM     13  C   UNL     1      -0.833  -7.205  14.880  0.00  0.00    +0.008 A 
ATOM     14  C   UNL     1      -0.747  -8.319  14.102  0.00  0.00    +0.001 A 
ATOM     15  C   UNL     1      -0.631  -8.219  12.717  0.00  0.00    +0.001 A 
ATOM     16  C   UNL     1      -0.602  -7.005  12.102  0.00  0.00    +0.008 A 
ATOM     17  C   UNL     1      -0.690  -5.832  12.873  0.00  0.00    -0.017 A 
ATOM     18  C   UNL     1      -0.669  -4.565  12.271  0.00  0.00    +0.018 A 
ENDBRANCH   6   9
BRANCH   4  19
ATOM     19  C   UNL     1       0.465   1.044  12.349  0.00  0.00    -0.021 A 
ATOM     20  C   UNL     1       1.724   0.602  11.987  0.00  0.00    +0.006 A 
ATOM     21  C   UNL     1       2.829   1.400  12.218  0.00  0.00    +0.000 A 
ATOM     22  C   UNL     1       2.676   2.640  12.809  0.00  0.00    +0.000 A 
ATOM     23  C   UNL     1       1.417   3.082  13.169  0.00  0.00    +0.000 A 
ATOM     24  C   UNL     1       0.311   2.287  12.935  0.00  0.00    +0.006 A 
ENDBRANCH   4  19
BRANCH   1  25
ATOM     25  C   UNL     1      -0.428  -0.761   8.342  0.00  0.00    +0.359 C 
BRANCH  25  26
ATOM     26  O   UNL     1      -0.350   0.085   7.193  0.00  0.00    -0.384 OA
BRANCH  26  28
ATOM     27  C   UNL     1      -0.166   0.035   4.854  0.00  0.00    +0.220 C 
ATOM     28  N   UNL     1      -0.245  -0.617   5.968  0.00  0.00    -0.087 NA
BRANCH  27  30
ATOM     29  N   UNL     1       0.025  -0.016   2.416  0.00  0.00    -0.280 N 
ATOM     30  C   UNL     1      -0.057  -0.696   3.577  0.00  0.00    +0.262 C 
ATOM     31  O   UNL     1      -0.040  -1.911   3.572  0.00  0.00    -0.269 OA
ATOM     32  H   UNL     1       0.077   0.953   2.424  0.00  0.00    +0.155 HD
BRANCH  29  39
ATOM     33  C   UNL     1      -1.266   1.182   0.181  0.00  0.00    +0.045 C 
ATOM     34  C   UNL     1      -0.585  -0.158   0.085  0.00  0.00    -0.029 A 
ATOM     35  C   UNL     1      -0.570  -0.841  -1.116  0.00  0.00    +0.005 A 
ATOM     36  C   UNL     1       0.055  -2.071  -1.206  0.00  0.00    +0.000 A 
ATOM     37  C   UNL     1       0.667  -2.622  -0.095  0.00  0.00    +0.002 A 
ATOM     38  C   UNL     1       0.656  -1.945   1.108  0.00  0.00    +0.023 A 
ATOM     39  C   UNL     1       0.033  -0.706   1.201  0.00  0.00    +0.037 A 
ENDBRANCH  29  39
ENDBRANCH  27  30
ENDBRANCH  26  28
ENDBRANCH  25  26
ENDBRANCH   1  25
TORSDOF 7
