REMARK  Name = ZINC11634325
REMARK  10 active torsions:
REMARK  status: ('A' for Active; 'I' for Inactive)
REMARK    1  A    between atoms: C_1  and  C_2
REMARK    2  A    between atoms: C_2  and  N_3
REMARK    3  A    between atoms: N_12  and  C_13
REMARK    4  A    between atoms: C_13  and  C_15
REMARK    5  A    between atoms: C_18  and  S_21
REMARK    6  A    between atoms: S_21  and  N_24
REMARK    7  A    between atoms: N_24  and  C_25
REMARK    8  A    between atoms: N_24  and  C_28
REMARK    9  A    between atoms: C_25  and  C_26
REMARK   10  A    between atoms: C_28  and  C_29
REMARK                            x       y       z     vdW  Elec       q    Type
REMARK                         _______ _______ _______ _____ _____    ______ ____
ROOT
ATOM      1  C   UNL     1      -2.439   2.554   3.830  0.00  0.00    +0.039 A 
ATOM      2  C   UNL     1      -2.652   1.274   3.318  0.00  0.00    +0.015 A 
ATOM      3  C   UNL     1      -1.986   0.870   2.179  0.00  0.00    +0.029 A 
ATOM      4  C   UNL     1      -1.109   1.732   1.546  0.00  0.00    +0.106 A 
ATOM      5  C   UNL     1      -0.889   3.000   2.052  0.00  0.00    +0.029 A 
ATOM      6  C   UNL     1      -1.554   3.418   3.187  0.00  0.00    +0.015 A 
ENDROOT
BRANCH   4   7
ATOM      7  S   UNL     1      -0.262   1.208   0.092  0.00  0.00    +0.061 S 
ATOM      8  O   UNL     1      -0.221  -0.212   0.135  0.00  0.00    -0.153 OA
ATOM      9  O   UNL     1       0.914   2.001  -0.001  0.00  0.00    -0.153 OA
BRANCH   7  10
ATOM     10  N   UNL     1      -1.211   1.616  -1.202  0.00  0.00    -0.169 NA
BRANCH  10  11
ATOM     11  C   UNL     1      -1.053   2.924  -1.843  0.00  0.00    +0.136 C 
BRANCH  11  12
ATOM     12  C   UNL     1      -0.125   2.796  -3.023  0.00  0.00    -0.018 C 
ATOM     13  C   UNL     1      -0.515   3.193  -4.209  0.00  0.00    +0.005 C 
ENDBRANCH  11  12
ENDBRANCH  10  11
BRANCH  10  14
ATOM     14  C   UNL     1      -2.209   0.669  -1.705  0.00  0.00    +0.136 C 
BRANCH  14  15
ATOM     15  C   UNL     1      -3.549   0.974  -1.085  0.00  0.00    -0.018 C 
ATOM     16  C   UNL     1      -4.590   1.191  -1.849  0.00  0.00    +0.005 C 
ENDBRANCH  14  15
ENDBRANCH  10  14
ENDBRANCH   7  10
ENDBRANCH   4   7
BRANCH   1  17
ATOM     17  C   UNL     1      -3.151   2.993   5.053  0.00  0.00    +0.269 C 
ATOM     18  O   UNL     1      -3.924   2.236   5.614  0.00  0.00    -0.268 OA
BRANCH  17  28
ATOM     19  N   UNL     1      -3.502   5.814   7.276  0.00  0.00    -0.321 N 
ATOM     20  C   UNL     1      -4.250   6.043   8.416  0.00  0.00    +0.058 A 
ATOM     21  C   UNL     1      -4.301   7.204   9.205  0.00  0.00    +0.028 A 
ATOM     22  C   UNL     1      -5.108   7.264  10.316  0.00  0.00    +0.017 A 
ATOM     23  C   UNL     1      -5.893   6.186  10.692  0.00  0.00    +0.019 A 
ATOM     24  C   UNL     1      -5.862   5.029   9.933  0.00  0.00    +0.032 A 
ATOM     25  C   UNL     1      -5.055   4.969   8.821  0.00  0.00    +0.040 A 
ATOM     26  S   UNL     1      -4.724   3.728   7.596  0.00  0.00    -0.052 S 
ATOM     27  C   UNL     1      -3.583   4.615   6.638  0.00  0.00    +0.167 A 
ATOM     28  N   UNL     1      -2.945   4.221   5.541  0.00  0.00    -0.152 NA
ATOM     29 BR   UNL     1      -6.995   6.294  12.226  0.00  0.00    -0.050 Br
BRANCH  19  31
ATOM     30  C   UNL     1      -1.348   6.227   6.194  0.00  0.00    +0.027 C 
ATOM     31  C   UNL     1      -2.622   6.862   6.755  0.00  0.00    +0.121 C 
ENDBRANCH  19  31
ENDBRANCH  17  28
ENDBRANCH   1  17
TORSDOF 9
