REMARK  Name = ZINC33367432
REMARK  14 active torsions:
REMARK  status: ('A' for Active; 'I' for Inactive)
REMARK    1  A    between atoms: C_1  and  C_2
REMARK    2  A    between atoms: C_2  and  C_3
REMARK    3  A    between atoms: C_3  and  N_4
REMARK    4  A    between atoms: N_4  and  C_5
REMARK    5  A    between atoms: N_4  and  S_25
REMARK    6  A    between atoms: C_5  and  C_6
REMARK    7  A    between atoms: N_8  and  C_9
REMARK    8  A    between atoms: C_11  and  C_21
REMARK    9  A    between atoms: N_13  and  C_14
REMARK   10  A    between atoms: C_21  and  C_22
REMARK   11  A    between atoms: C_21  and  C_23
REMARK   12  A    between atoms: C_21  and  C_24
REMARK   13  A    between atoms: S_25  and  C_28
REMARK   14  A    between atoms: C_31  and  C_34
REMARK                            x       y       z     vdW  Elec       q    Type
REMARK                         _______ _______ _______ _____ _____    ______ ____
ROOT
ATOM      1  C   UNL     1      -1.532  -0.508  -0.408  0.00  0.00    +0.234 C 
ATOM      2  O   UNL     1      -2.511   0.189  -0.250  0.00  0.00    -0.274 OA
ATOM      3  N   UNL     1      -0.301   0.040  -0.376  0.00  0.00    -0.269 N 
ATOM      4  H   UNL     1       0.587  -0.592  -0.519  0.00  0.00    +0.156 HD
ENDROOT
BRANCH   3   5
ATOM      5  C   UNL     1      -0.154   1.410  -0.161  0.00  0.00    +0.129 A 
ATOM      6  C   UNL     1      -1.158   2.327  -0.089  0.00  0.00    +0.069 A 
ATOM      7  C   UNL     1      -0.581   3.579   0.139  0.00  0.00    +0.071 A 
ATOM      8  N   UNL     1       0.719   3.433   0.194  0.00  0.00    -0.169 NA
ATOM      9  N   UNL     1       1.020   2.077   0.008  0.00  0.00    -0.217 N 
BRANCH   9  10
ATOM     10  C   UNL     1       2.302   1.510  -0.001  0.00  0.00    +0.086 A 
ATOM     11  C   UNL     1       2.563   0.369   0.746  0.00  0.00    +0.029 A 
ATOM     12  C   UNL     1       3.827  -0.188   0.734  0.00  0.00    +0.002 A 
ATOM     13  C   UNL     1       4.832   0.388  -0.022  0.00  0.00    +0.002 A 
ATOM     14  C   UNL     1       4.575   1.523  -0.767  0.00  0.00    +0.022 A 
ATOM     15  C   UNL     1       3.312   2.084  -0.764  0.00  0.00    +0.066 A 
ATOM     16 CL   UNL     1       2.988   3.506  -1.705  0.00  0.00    -0.081 Cl
ENDBRANCH   9  10
BRANCH   7  17
ATOM     17  C   UNL     1      -1.328   4.879   0.289  0.00  0.00    +0.006 C 
ATOM     18  C   UNL     1      -1.986   4.932   1.669  0.00  0.00    +0.017 C 
ATOM     19  C   UNL     1      -0.351   6.048   0.144  0.00  0.00    +0.017 C 
ATOM     20  C   UNL     1      -2.404   4.977  -0.793  0.00  0.00    +0.017 C 
ENDBRANCH   7  17
ENDBRANCH   3   5
BRANCH   1  21
ATOM     21  C   UNL     1      -1.691  -1.989  -0.640  0.00  0.00    +0.205 C 
BRANCH  21  22
ATOM     22  N   UNL     1      -3.114  -2.335  -0.630  0.00  0.00    -0.168 NA
BRANCH  22  23
ATOM     23  S   UNL     1      -3.825  -2.877   0.764  0.00  0.00    +0.061 S 
ATOM     24  O   UNL     1      -4.963  -3.633   0.372  0.00  0.00    -0.153 OA
ATOM     25  O   UNL     1      -2.786  -3.425   1.563  0.00  0.00    -0.153 OA
BRANCH  23  26
ATOM     26  C   UNL     1      -4.431  -1.464   1.624  0.00  0.00    +0.106 A 
ATOM     27  C   UNL     1      -3.623  -0.813   2.539  0.00  0.00    +0.029 A 
ATOM     28  C   UNL     1      -4.097   0.298   3.211  0.00  0.00    +0.005 A 
ATOM     29  C   UNL     1      -5.381   0.753   2.975  0.00  0.00    -0.050 A 
ATOM     30  C   UNL     1      -6.190   0.099   2.064  0.00  0.00    +0.005 A 
ATOM     31  C   UNL     1      -5.715  -1.009   1.389  0.00  0.00    +0.029 A 
ATOM     32  C   UNL     1      -5.899   1.962   3.711  0.00  0.00    +0.044 C 
ENDBRANCH  23  26
ENDBRANCH  22  23
BRANCH  22  33
ATOM     33  C   UNL     1      -3.909  -2.200  -1.853  0.00  0.00    +0.110 C 
BRANCH  33  35
ATOM     34  C   UNL     1      -4.588  -3.324  -3.979  0.00  0.00    +0.005 C 
ATOM     35  C   UNL     1      -3.758  -3.465  -2.701  0.00  0.00    +0.014 C 
ENDBRANCH  33  35
ENDBRANCH  22  33
ENDBRANCH  21  22
ENDBRANCH   1  21
TORSDOF 9
