REMARK  Name = ZINC04645692
REMARK  4 active torsions:
REMARK  status: ('A' for Active; 'I' for Inactive)
REMARK    1  A    between atoms: C_3  and  O_22
REMARK    2  A    between atoms: C_4  and  O_21
REMARK    3  A    between atoms: C_10  and  O_20
REMARK    4  A    between atoms: C_16  and  O_19
REMARK                            x       y       z     vdW  Elec       q    Type
REMARK                         _______ _______ _______ _____ _____    ______ ____
ROOT
ATOM      1  C   UNL     1      -0.017   1.396   0.010  0.00  0.00    +0.016 A 
ATOM      2  C   UNL     1       1.158   2.091   0.002  0.00  0.00    +0.050 A 
ATOM      3  C   UNL     1       2.376   1.413  -0.009  0.00  0.00    +0.162 A 
ATOM      4  C   UNL     1       2.416   0.021  -0.007  0.00  0.00    +0.201 A 
ATOM      5  C   UNL     1       1.235  -0.704   0.002  0.00  0.00    +0.173 A 
ATOM      6  C   UNL     1       0.002  -0.004   0.002  0.00  0.00    +0.027 A 
ATOM      7  C   UNL     1      -1.174  -0.774  -0.049  0.00  0.00    +0.006 C 
ATOM      8  C   UNL     1      -2.483  -0.423  -0.300  0.00  0.00    -0.011 C 
ATOM      9  C   UNL     1      -3.058   0.877  -0.377  0.00  0.00    +0.058 C 
ATOM     10  C   UNL     1      -4.409   0.953  -0.549  0.00  0.00    +0.164 C 
ATOM     11  C   UNL     1      -5.212  -0.203  -0.653  0.00  0.00    +0.220 C 
ATOM     12  O   UNL     1      -6.425  -0.083  -0.761  0.00  0.00    -0.284 OA
ATOM     13  C   UNL     1      -4.642  -1.498  -0.636  0.00  0.00    +0.059 C 
ATOM     14  C   UNL     1      -3.297  -1.580  -0.479  0.00  0.00    -0.033 C 
ATOM     15  C   UNL     1      -2.399  -2.791  -0.498  0.00  0.00    +0.079 C 
ATOM     16  C   UNL     1      -1.123  -2.283   0.196  0.00  0.00    +0.130 C 
ATOM     17  C   UNL     1       0.142  -2.785  -0.505  0.00  0.00    +0.269 C 
ATOM     18  O   UNL     1       1.262  -2.058   0.013  0.00  0.00    -0.484 OA
ENDROOT
BRANCH  16  19
ATOM     19  O   UNL     1      -1.127  -2.592   1.591  0.00  0.00    -0.380 OA
ATOM     20  H   UNL     1      -1.096  -3.539   1.784  0.00  0.00    +0.211 HD
ENDBRANCH  16  19
BRANCH  10  21
ATOM     21  O   UNL     1      -4.998   2.176  -0.622  0.00  0.00    -0.503 OA
ATOM     22  H   UNL     1      -5.957   2.144  -0.744  0.00  0.00    +0.292 HD
ENDBRANCH  10  21
BRANCH   4  23
ATOM     23  O   UNL     1       3.613  -0.626  -0.015  0.00  0.00    -0.501 OA
ATOM     24  H   UNL     1       3.966  -0.811   0.866  0.00  0.00    +0.292 HD
ENDBRANCH   4  23
BRANCH   3  25
ATOM     25  O   UNL     1       3.535   2.117  -0.021  0.00  0.00    -0.503 OA
ATOM     26  H   UNL     1       3.880   2.323   0.858  0.00  0.00    +0.292 HD
ENDBRANCH   3  25
TORSDOF 4
