REMARK  Name = ZINC40960712
REMARK  7 active torsions:
REMARK  status: ('A' for Active; 'I' for Inactive)
REMARK    1  A    between atoms: C_7  and  C_11
REMARK    2  A    between atoms: C_11  and  C_12
REMARK    3  A    between atoms: N_14  and  C_15
REMARK    4  A    between atoms: N_18  and  C_21
REMARK    5  A    between atoms: C_21  and  C_22
REMARK    6  A    between atoms: C_24  and  C_27
REMARK    7  A    between atoms: C_31  and  C_33
REMARK                            x       y       z     vdW  Elec       q    Type
REMARK                         _______ _______ _______ _____ _____    ______ ____
ROOT
ATOM      1  C   UNL     1      -1.013  -4.908  -3.049  0.00  0.00    +0.069 C 
ATOM      2  C   UNL     1      -2.213  -4.034  -3.426  0.00  0.00    +0.003 C 
ATOM      3  C   UNL     1      -2.688  -4.409  -4.832  0.00  0.00    -0.076 C 
ATOM      4  N   UNL     1      -3.082  -5.823  -4.859  0.00  0.00    +0.386 N 
ATOM      5  C   UNL     1      -1.919  -6.670  -4.569  0.00  0.00    -0.076 C 
ATOM      6  C   UNL     1      -1.414  -6.382  -3.153  0.00  0.00    +0.003 C 
ATOM      7  H   UNL     1      -3.796  -5.985  -4.165  0.00  0.00    -0.081 HD
ENDROOT
BRANCH   1  10
ATOM      8  C   UNL     1       0.242  -3.584  -1.434  0.00  0.00    +0.218 C 
ATOM      9  O   UNL     1       0.660  -2.913  -2.353  0.00  0.00    -0.275 OA
ATOM     10  N   UNL     1      -0.601  -4.607  -1.676  0.00  0.00    -0.312 N 
ATOM     11  H   UNL     1      -0.935  -5.145  -0.941  0.00  0.00    +0.149 HD
BRANCH   8  12
ATOM     12  C   UNL     1       0.666  -3.275  -0.021  0.00  0.00    +0.133 C 
BRANCH  12  19
ATOM     13  C   UNL     1      -0.017   1.362   0.009  0.00  0.00    +0.001 A 
ATOM     14  C   UNL     1       1.170   2.083   0.002  0.00  0.00    +0.002 A 
ATOM     15  C   UNL     1       2.386   1.436  -0.013  0.00  0.00    +0.026 A 
ATOM     16  C   UNL     1       2.428   0.046  -0.021  0.00  0.00    +0.047 A 
ATOM     17  C   UNL     1       1.223  -0.681  -0.013  0.00  0.00    +0.003 A 
ATOM     18  C   UNL     1       0.002  -0.004   0.002  0.00  0.00    +0.010 A 
ATOM     19  C   UNL     1       1.604  -2.095  -0.025  0.00  0.00    -0.014 A 
ATOM     20  C   UNL     1       2.945  -2.141  -0.038  0.00  0.00    +0.087 A 
ATOM     21  N   UNL     1       3.455  -0.871  -0.036  0.00  0.00    -0.360 N 
ATOM     22  H   UNL     1       4.399  -0.650  -0.044  0.00  0.00    +0.165 HD
ENDBRANCH  12  19
ENDBRANCH   8  12
ENDBRANCH   1  10
BRANCH   4  23
ATOM     23  C   UNL     1      -3.610  -6.157  -6.188  0.00  0.00    +0.022 C 
BRANCH  23  24
ATOM     24  C   UNL     1      -4.128  -7.572  -6.182  0.00  0.00    +0.211 A 
ATOM     25  N   UNL     1      -5.345  -7.936  -5.893  0.00  0.00    -0.193 NA
ATOM     26  C   UNL     1      -5.460  -9.273  -5.986  0.00  0.00    +0.202 A 
ATOM     27  N   UNL     1      -4.301  -9.770  -6.339  0.00  0.00    -0.056 NA
ATOM     28  O   UNL     1      -3.416  -8.668  -6.477  0.00  0.00    -0.340 OA
BRANCH  26  29
ATOM     29  C   UNL     1      -6.696 -10.055  -5.730  0.00  0.00    +0.023 A 
ATOM     30  C   UNL     1      -7.872  -9.404  -5.364  0.00  0.00    +0.012 A 
ATOM     31  C   UNL     1      -9.018 -10.136  -5.127  0.00  0.00    +0.001 A 
ATOM     32  C   UNL     1      -9.000 -11.513  -5.253  0.00  0.00    +0.012 A 
ATOM     33  C   UNL     1      -7.835 -12.165  -5.617  0.00  0.00    +0.055 A 
ATOM     34  C   UNL     1      -6.685 -11.442  -5.862  0.00  0.00    +0.024 A 
BRANCH  33  35
ATOM     35  C   UNL     1      -7.823 -13.665  -5.752  0.00  0.00    +0.417 C 
ATOM     36  F   UNL     1      -9.095 -14.170  -5.462  0.00  0.00    -0.166 F 
ATOM     37  F   UNL     1      -7.471 -14.013  -7.061  0.00  0.00    -0.166 F 
ATOM     38  F   UNL     1      -6.892 -14.207  -4.859  0.00  0.00    -0.166 F 
ENDBRANCH  33  35
ENDBRANCH  26  29
ENDBRANCH  23  24
ENDBRANCH   4  23
TORSDOF 7
