REMARK  Name = ZINC41001792
REMARK  16 active torsions:
REMARK  status: ('A' for Active; 'I' for Inactive)
REMARK    1  A    between atoms: C_1  and  C_2
REMARK    2  A    between atoms: C_2  and  C_3
REMARK    3  A    between atoms: C_3  and  O_4
REMARK    4  A    between atoms: O_4  and  C_5
REMARK    5  A    between atoms: C_5  and  C_7
REMARK    6  A    between atoms: C_8  and  C_33
REMARK    7  A    between atoms: C_12  and  S_30
REMARK    8  A    between atoms: C_15  and  C_17
REMARK    9  A    between atoms: C_19  and  O_27
REMARK   10  A    between atoms: C_20  and  O_24
REMARK   11  A    between atoms: O_24  and  C_25
REMARK   12  A    between atoms: C_25  and  C_26
REMARK   13  A    between atoms: O_27  and  C_28
REMARK   14  A    between atoms: C_28  and  C_29
REMARK   15  A    between atoms: S_30  and  C_31
REMARK   16  A    between atoms: C_31  and  C_32
REMARK                            x       y       z     vdW  Elec       q    Type
REMARK                         _______ _______ _______ _____ _____    ______ ____
ROOT
ATOM      1  C   UNL     1       1.587  -3.945  -2.311  0.00  0.00    +0.082 C 
ATOM      2  C   UNL     1       1.909  -4.499  -3.490  0.00  0.00    +0.020 C 
ATOM      3  N   UNL     1       1.812  -5.850  -3.714  0.00  0.00    -0.287 N 
ATOM      4  C   UNL     1       1.621  -6.669  -2.610  0.00  0.00    +0.219 A 
ATOM      5  N   UNL     1       1.713  -7.966  -2.501  0.00  0.00    -0.187 NA
ATOM      6  C   UNL     1       1.447  -8.329  -1.237  0.00  0.00    +0.210 A 
ATOM      7  N   UNL     1       1.181  -7.253  -0.529  0.00  0.00    -0.141 NA
ATOM      8  N   UNL     1       1.284  -6.167  -1.396  0.00  0.00    -0.220 N 
ATOM      9  C   UNL     1       1.087  -4.744  -1.137  0.00  0.00    +0.179 C 
ATOM     10  C   UNL     1       2.394  -3.609  -4.605  0.00  0.00    +0.061 C 
ATOM     11  H   UNL     1       1.875  -6.218  -4.609  0.00  0.00    +0.155 HD
ENDROOT
BRANCH   9  12
ATOM     12  C   UNL     1      -0.381  -4.473  -0.934  0.00  0.00    -0.014 A 
ATOM     13  C   UNL     1      -0.825  -3.932   0.259  0.00  0.00    +0.055 A 
ATOM     14  C   UNL     1      -2.174  -3.683   0.448  0.00  0.00    +0.163 A 
ATOM     15  C   UNL     1      -3.082  -3.977  -0.565  0.00  0.00    +0.176 A 
ATOM     16  C   UNL     1      -2.631  -4.519  -1.759  0.00  0.00    +0.063 A 
ATOM     17  C   UNL     1      -1.281  -4.761  -1.942  0.00  0.00    +0.025 A 
ATOM     18 BR   UNL     1      -3.860  -4.921  -3.138  0.00  0.00    -0.046 Br
BRANCH  15  19
ATOM     19  O   UNL     1      -4.408  -3.734  -0.384  0.00  0.00    -0.487 OA
BRANCH  19  20
ATOM     20  C   UNL     1      -4.890  -2.447  -0.773  0.00  0.00    +0.226 C 
ATOM     21  C   UNL     1      -6.393  -2.360  -0.496  0.00  0.00    +0.048 C 
ENDBRANCH  19  20
ENDBRANCH  15  19
BRANCH  14  22
ATOM     22  O   UNL     1      -2.611  -3.151   1.621  0.00  0.00    -0.489 OA
BRANCH  22  23
ATOM     23  C   UNL     1      -1.623  -2.875   2.616  0.00  0.00    +0.226 C 
ATOM     24  C   UNL     1      -2.299  -2.286   3.856  0.00  0.00    +0.048 C 
ENDBRANCH  22  23
ENDBRANCH  14  22
ENDBRANCH   9  12
BRANCH   1  25
ATOM     25  C   UNL     1       1.729  -2.547  -2.163  0.00  0.00    +0.339 C 
ATOM     26  O   UNL     1       2.713  -2.091  -1.611  0.00  0.00    -0.245 OA
BRANCH  25  27
ATOM     27  O   UNL     1       0.773  -1.718  -2.632  0.00  0.00    -0.461 OA
BRANCH  27  28
ATOM     28  C   UNL     1       0.982  -0.317  -2.448  0.00  0.00    +0.232 C 
BRANCH  28  30
ATOM     29  C   UNL     1       0.026   1.957  -2.843  0.00  0.00    +0.007 C 
ATOM     30  C   UNL     1      -0.198   0.457  -3.041  0.00  0.00    +0.038 C 
ENDBRANCH  28  30
ENDBRANCH  27  28
ENDBRANCH  25  27
ENDBRANCH   1  25
BRANCH   6  31
ATOM     31  S   UNL     1       1.454  -9.981  -0.624  0.00  0.00    -0.085 S 
BRANCH  31  32
ATOM     32  C   UNL     1       1.888 -10.985  -2.072  0.00  0.00    +0.074 C 
ATOM     33  C   UNL     1       1.929 -12.462  -1.675  0.00  0.00    +0.016 C 
ENDBRANCH  31  32
ENDBRANCH   6  31
TORSDOF 11
