REMARK  Name = ZINC40157121
REMARK  4 active torsions:
REMARK  status: ('A' for Active; 'I' for Inactive)
REMARK    1  A    between atoms: C_1  and  N_2
REMARK    2  A    between atoms: N_2  and  C_3
REMARK    3  A    between atoms: C_6  and  C_17
REMARK    4  A    between atoms: N_8  and  C_9
REMARK                            x       y       z     vdW  Elec       q    Type
REMARK                         _______ _______ _______ _____ _____    ______ ____
ROOT
ATOM      1  C   UNL     1      -0.922   0.448   0.729  0.00  0.00    +0.131 C 
ATOM      2  N   UNL     1       0.078   0.237  -0.320  0.00  0.00    -0.308 N 
ATOM      3  C   UNL     1       1.357   0.949  -0.268  0.00  0.00    +0.131 C 
ATOM      4  C   UNL     1      -0.186  -0.636  -1.360  0.00  0.00    +0.183 A 
ATOM      5  N   UNL     1       0.000  -1.929  -1.326  0.00  0.00    -0.324 N 
ATOM      6  C   UNL     1      -0.367  -2.466  -2.527  0.00  0.00    +0.108 A 
ATOM      7  C   UNL     1      -0.803  -1.416  -3.334  0.00  0.00    +0.282 A 
ATOM      8  N   UNL     1      -0.688  -0.279  -2.585  0.00  0.00    -0.249 N 
ATOM      9  O   UNL     1      -1.256  -1.506  -4.605  0.00  0.00    -0.265 OA
ATOM     10  H   UNL     1       0.344  -2.428  -0.569  0.00  0.00    +0.169 HD
ENDROOT
BRANCH   6  11
ATOM     11  C   UNL     1      -0.315  -3.825  -2.884  0.00  0.00    +0.044 C 
ATOM     12  C   UNL     1      -0.745  -4.795  -1.988  0.00  0.00    +0.047 C 
ATOM     13  C   UNL     1      -1.713  -4.469  -0.924  0.00  0.00    -0.001 A 
ATOM     14  C   UNL     1      -2.232  -3.187  -0.772  0.00  0.00    +0.009 A 
ATOM     15  C   UNL     1      -3.135  -2.933   0.239  0.00  0.00    +0.001 A 
ATOM     16  C   UNL     1      -3.527  -3.945   1.105  0.00  0.00    +0.001 A 
ATOM     17  C   UNL     1      -3.024  -5.221   0.972  0.00  0.00    +0.013 A 
ATOM     18  C   UNL     1      -2.111  -5.500  -0.045  0.00  0.00    +0.045 A 
ATOM     19  C   UNL     1      -1.551  -6.845  -0.223  0.00  0.00    +0.251 C 
ATOM     20  O   UNL     1      -1.889  -7.739   0.530  0.00  0.00    -0.270 OA
ATOM     21  N   UNL     1      -0.672  -7.106  -1.205  0.00  0.00    -0.248 N 
ATOM     22  C   UNL     1      -0.256  -6.173  -2.077  0.00  0.00    +0.251 C 
ATOM     23  O   UNL     1       0.540  -6.475  -2.948  0.00  0.00    -0.270 OA
ATOM     24  H   UNL     1      -0.325  -8.008  -1.289  0.00  0.00    +0.158 HD
ENDBRANCH   6  11
BRANCH   8  25
ATOM     25  C   UNL     1      -1.021   1.020  -2.996  0.00  0.00    +0.053 A 
ATOM     26  C   UNL     1      -2.137   1.653  -2.464  0.00  0.00    +0.027 A 
ATOM     27  C   UNL     1      -2.463   2.932  -2.871  0.00  0.00    +0.017 A 
ATOM     28  C   UNL     1      -1.679   3.582  -3.807  0.00  0.00    +0.018 A 
ATOM     29  C   UNL     1      -0.567   2.953  -4.339  0.00  0.00    +0.017 A 
ATOM     30  C   UNL     1      -0.233   1.677  -3.931  0.00  0.00    +0.027 A 
ATOM     31 BR   UNL     1      -2.129   5.333  -4.363  0.00  0.00    -0.050 Br
ENDBRANCH   8  25
TORSDOF 2
