REMARK  Name = ZINC22309219
REMARK  3 active torsions:
REMARK  status: ('A' for Active; 'I' for Inactive)
REMARK    1  A    between atoms: C_1  and  C_2
REMARK    2  A    between atoms: N_9  and  C_12
REMARK    3  A    between atoms: C_19  and  C_20
REMARK                            x       y       z     vdW  Elec       q    Type
REMARK                         _______ _______ _______ _____ _____    ______ ____
ROOT
ATOM      1  C   UNL     1      -2.260  -0.395  -1.076  0.00  0.00    +0.046 C 
ATOM      2  C   UNL     1      -0.900  -0.880  -0.644  0.00  0.00    -0.021 A 
ATOM      3  C   UNL     1       0.185   0.012  -0.548  0.00  0.00    +0.074 A 
ATOM      4  C   UNL     1       1.399  -0.551  -0.138  0.00  0.00    +0.095 A 
ATOM      5  N   UNL     1       2.527   0.209  -0.004  0.00  0.00    -0.301 N 
ATOM      6  H   UNL     1       3.469  -0.257   0.320  0.00  0.00    +0.171 HD
ATOM      7  C   UNL     1       2.499   1.530  -0.267  0.00  0.00    +0.335 A 
ATOM      8  O   UNL     1       3.517   2.184  -0.141  0.00  0.00    -0.246 OA
ATOM      9  N   UNL     1       1.371   2.139  -0.667  0.00  0.00    -0.229 N 
ATOM     10  C   UNL     1       0.218   1.467  -0.823  0.00  0.00    +0.270 A 
ATOM     11  O   UNL     1      -0.788   2.047  -1.190  0.00  0.00    -0.266 OA
ATOM     12  S   UNL     1       1.036  -2.219   0.096  0.00  0.00    -0.070 S 
ATOM     13  C   UNL     1      -0.693  -2.186  -0.339  0.00  0.00    +0.025 A 
ENDROOT
BRANCH   9  14
ATOM     14  C   UNL     1       1.397   3.516  -0.928  0.00  0.00    +0.054 A 
ATOM     15  C   UNL     1       2.068   3.999  -2.044  0.00  0.00    +0.026 A 
ATOM     16  C   UNL     1       2.086   5.356  -2.303  0.00  0.00    +0.002 A 
ATOM     17  C   UNL     1       1.448   6.233  -1.445  0.00  0.00    +0.000 A 
ATOM     18  C   UNL     1       0.785   5.755  -0.330  0.00  0.00    +0.002 A 
ATOM     19  C   UNL     1       0.758   4.399  -0.069  0.00  0.00    +0.026 A 
ENDBRANCH   9  14
BRANCH  13  20
ATOM     20  C   UNL     1      -1.661  -3.303  -0.362  0.00  0.00    -0.011 A 
ATOM     21  C   UNL     1      -1.739  -4.184   0.718  0.00  0.00    +0.009 A 
ATOM     22  C   UNL     1      -2.649  -5.221   0.693  0.00  0.00    +0.001 A 
ATOM     23  C   UNL     1      -3.474  -5.396  -0.404  0.00  0.00    +0.000 A 
ATOM     24  C   UNL     1      -3.397  -4.529  -1.480  0.00  0.00    +0.001 A 
ATOM     25  C   UNL     1      -2.496  -3.485  -1.465  0.00  0.00    +0.009 A 
ENDBRANCH  13  20
TORSDOF 2
