REMARK  Name = ZINC13064881
REMARK  11 active torsions:
REMARK  status: ('A' for Active; 'I' for Inactive)
REMARK    1  A    between atoms: C_1  and  C_2
REMARK    2  A    between atoms: C_2  and  C_3
REMARK    3  A    between atoms: C_3  and  C_5
REMARK    4  A    between atoms: C_3  and  N_72
REMARK    5  A    between atoms: N_9  and  C_10
REMARK    6  A    between atoms: C_10  and  C_11
REMARK    7  A    between atoms: C_17  and  C_18
REMARK    8  A    between atoms: C_17  and  N_72
REMARK    9  A    between atoms: C_21  and  C_31
REMARK   10  A    between atoms: C_23  and  C_30
REMARK   11  A    between atoms: C_32  and  N_72
REMARK                            x       y       z     vdW  Elec       q    Type
REMARK                         _______ _______ _______ _____ _____    ______ ____
ROOT
ATOM      1  N   UNL     1       2.116   7.697  -2.366  0.00  0.00    +0.391 N 
ATOM      2  H   UNL     1       3.105   7.973  -2.331  0.00  0.00    -0.080 HD
ENDROOT
BRANCH   1   3
ATOM      3  C   UNL     1       1.770   7.333  -3.756  0.00  0.00    -0.067 C 
ATOM      4  C   UNL     1       0.372   6.713  -3.816  0.00  0.00    -0.015 C 
ATOM      5  C   UNL     1       0.040   6.342  -5.263  0.00  0.00    -0.002 C 
ATOM      6  C   UNL     1       1.068   5.334  -5.780  0.00  0.00    -0.000 C 
ATOM      7  C   UNL     1       2.466   5.954  -5.720  0.00  0.00    -0.002 C 
ATOM      8  C   UNL     1       2.798   6.324  -4.273  0.00  0.00    -0.015 C 
ENDBRANCH   1   3
BRANCH   1   9
ATOM      9  C   UNL     1       1.910   6.537  -1.474  0.00  0.00    +0.003 C 
BRANCH   9  10
ATOM     10  C   UNL     1       0.442   6.345  -1.190  0.00  0.00    +0.138 A 
ATOM     11  N   UNL     1      -0.411   7.269  -0.821  0.00  0.00    -0.115 NA
ATOM     12  N   UNL     1      -1.563   6.713  -0.676  0.00  0.00    -0.023 NA
ATOM     13  N   UNL     1      -1.469   5.458  -0.949  0.00  0.00    -0.044 NA
ATOM     14  N   UNL     1      -0.247   5.191  -1.264  0.00  0.00    -0.226 N 
BRANCH  14  15
ATOM     15  C   UNL     1       0.289   3.881  -1.640  0.00  0.00    +0.182 C 
BRANCH  15  16
ATOM     16  C   UNL     1       0.772   3.163  -0.406  0.00  0.00    -0.026 A 
ATOM     17  C   UNL     1      -0.091   2.350   0.304  0.00  0.00    +0.005 A 
ATOM     18  C   UNL     1       0.352   1.693   1.437  0.00  0.00    +0.000 A 
ATOM     19  C   UNL     1       1.658   1.853   1.862  0.00  0.00    +0.000 A 
ATOM     20  C   UNL     1       2.523   2.663   1.150  0.00  0.00    +0.000 A 
ATOM     21  C   UNL     1       2.079   3.320   0.017  0.00  0.00    +0.005 A 
ENDBRANCH  15  16
ENDBRANCH  14  15
ENDBRANCH   9  10
BRANCH   9  23
ATOM     22  C   UNL     1       4.158   6.863  -0.436  0.00  0.00    +0.002 C 
ATOM     23  C   UNL     1       2.655   6.788  -0.162  0.00  0.00    -0.011 C 
ENDBRANCH   9  23
ENDBRANCH   1   9
BRANCH   1  24
ATOM     24  C   UNL     1       1.284   8.833  -1.919  0.00  0.00    -0.036 C 
BRANCH  24  25
ATOM     25  C   UNL     1       1.785  10.090  -2.581  0.00  0.00    +0.001 A 
ATOM     26  C   UNL     1       1.179  10.550  -3.705  0.00  0.00    +0.017 A 
ATOM     27  C   UNL     1       1.688  11.776  -4.321  0.00  0.00    +0.002 A 
ATOM     28  C   UNL     1       1.101  12.301  -5.478  0.00  0.00    -0.041 A 
ATOM     29  C   UNL     1       1.602  13.445  -6.031  0.00  0.00    +0.007 A 
ATOM     30  C   UNL     1       2.688  14.092  -5.456  0.00  0.00    -0.048 A 
ATOM     31  C   UNL     1       3.282  13.592  -4.317  0.00  0.00    +0.029 A 
ATOM     32  C   UNL     1       2.789  12.429  -3.736  0.00  0.00    +0.050 A 
ATOM     33  N   UNL     1       3.363  11.907  -2.596  0.00  0.00    -0.322 N 
ATOM     34  H   UNL     1       4.122  12.358  -2.193  0.00  0.00    +0.169 HD
ATOM     35  C   UNL     1       2.886  10.783  -2.034  0.00  0.00    +0.251 A 
ATOM     36  O   UNL     1       3.418  10.350  -1.026  0.00  0.00    -0.268 OA
ATOM     37  C   UNL     1       3.224  15.353  -6.085  0.00  0.00    +0.044 C 
ATOM     38  C   UNL     1      -0.077  11.608  -6.111  0.00  0.00    +0.044 C 
ENDBRANCH  24  25
ENDBRANCH   1  24
TORSDOF 8
