REMARK  Name = ZINC24705043
REMARK  13 active torsions:
REMARK  status: ('A' for Active; 'I' for Inactive)
REMARK    1  A    between atoms: C_1  and  C_2
REMARK    2  A    between atoms: C_2  and  C_3
REMARK    3  A    between atoms: C_6  and  N_9
REMARK    4  A    between atoms: C_10  and  C_12
REMARK    5  A    between atoms: C_12  and  O_13
REMARK    6  A    between atoms: O_13  and  C_14
REMARK    7  A    between atoms: C_14  and  C_16
REMARK    8  A    between atoms: C_19  and  O_35
REMARK    9  A    between atoms: C_20  and  S_22
REMARK   10  A    between atoms: S_22  and  N_25
REMARK   11  A    between atoms: C_27  and  C_34
REMARK   12  A    between atoms: C_30  and  C_33
REMARK   13  A    between atoms: O_35  and  C_36
REMARK                            x       y       z     vdW  Elec       q    Type
REMARK                         _______ _______ _______ _____ _____    ______ ____
ROOT
ATOM      1  C   UNL     1      -0.734   1.481  -3.633  0.00  0.00    +0.061 A 
ATOM      2  C   UNL     1      -1.926   2.188  -3.448  0.00  0.00    +0.018 A 
ATOM      3  C   UNL     1      -2.628   2.647  -4.540  0.00  0.00    +0.048 A 
ATOM      4  C   UNL     1      -2.158   2.400  -5.825  0.00  0.00    +0.146 A 
ATOM      5  C   UNL     1      -0.977   1.693  -6.013  0.00  0.00    +0.148 A 
ATOM      6  C   UNL     1      -0.265   1.235  -4.927  0.00  0.00    +0.047 A 
ENDROOT
BRANCH   5   7
ATOM      7  S   UNL     1      -0.388   1.383  -7.645  0.00  0.00    +0.064 S 
ATOM      8  O   UNL     1      -0.452   2.619  -8.342  0.00  0.00    -0.153 OA
ATOM      9  O   UNL     1       0.821   0.648  -7.507  0.00  0.00    -0.153 OA
BRANCH   7  10
ATOM     10  N   UNL     1      -1.476   0.370  -8.374  0.00  0.00    -0.176 NA
ATOM     11  C   UNL     1      -2.671   0.909  -9.039  0.00  0.00    +0.112 C 
ATOM     12  C   UNL     1      -2.715   0.370 -10.477  0.00  0.00    +0.002 C 
ATOM     13  C   UNL     1      -2.650  -1.158 -10.444  0.00  0.00    +0.009 C 
ATOM     14  C   UNL     1      -1.332  -1.601  -9.805  0.00  0.00    +0.002 C 
ATOM     15  C   UNL     1      -1.270  -1.084  -8.364  0.00  0.00    +0.112 C 
ATOM     16  C   UNL     1      -0.159  -1.030 -10.604  0.00  0.00    +0.009 C 
ATOM     17  C   UNL     1      -4.018   0.812 -11.146  0.00  0.00    +0.009 C 
ENDBRANCH   7  10
ENDBRANCH   5   7
BRANCH   1  18
ATOM     18  C   UNL     1       0.025   0.992  -2.467  0.00  0.00    +0.340 C 
ATOM     19  O   UNL     1       1.058   0.374  -2.629  0.00  0.00    -0.245 OA
BRANCH  18  20
ATOM     20  O   UNL     1      -0.429   1.231  -1.220  0.00  0.00    -0.452 OA
BRANCH  20  21
ATOM     21  C   UNL     1       0.369   0.720  -0.120  0.00  0.00    +0.328 C 
BRANCH  21  23
ATOM     22  N   UNL     1       0.277   0.707   2.352  0.00  0.00    -0.283 N 
ATOM     23  C   UNL     1      -0.289   1.081   1.187  0.00  0.00    +0.255 C 
ATOM     24  O   UNL     1      -1.328   1.707   1.191  0.00  0.00    -0.272 OA
ATOM     25  H   UNL     1       1.260   0.215   2.353  0.00  0.00    +0.155 HD
BRANCH  22  29
ATOM     26  C   UNL     1      -1.699   1.419   5.950  0.00  0.00    -0.048 A 
ATOM     27  C   UNL     1      -2.425   1.111   4.814  0.00  0.00    +0.005 A 
ATOM     28  C   UNL     1      -1.772   0.874   3.620  0.00  0.00    +0.023 A 
ATOM     29  C   UNL     1      -0.387   0.946   3.561  0.00  0.00    +0.034 A 
ATOM     30  C   UNL     1       0.339   1.251   4.705  0.00  0.00    +0.023 A 
ATOM     31  C   UNL     1      -0.319   1.492   5.894  0.00  0.00    +0.005 A 
BRANCH  26  33
ATOM     32  C   UNL     1      -2.569   0.361   8.017  0.00  0.00    +0.009 C 
ATOM     33  C   UNL     1      -2.414   1.677   7.252  0.00  0.00    +0.032 C 
ENDBRANCH  26  33
ENDBRANCH  22  29
ENDBRANCH  21  23
ENDBRANCH  20  21
ENDBRANCH  18  20
ENDBRANCH   1  18
BRANCH   4  34
ATOM     34  O   UNL     1      -2.856   2.850  -6.898  0.00  0.00    -0.493 OA
ATOM     35  C   UNL     1      -4.001   3.663  -6.633  0.00  0.00    +0.277 C 
ENDBRANCH   4  34
TORSDOF 9
