REMARK  Name = ZINC41657458
REMARK  6 active torsions:
REMARK  status: ('A' for Active; 'I' for Inactive)
REMARK    1  A    between atoms: C_1  and  C_2
REMARK    2  A    between atoms: C_5  and  C_11
REMARK    3  A    between atoms: C_5  and  N_14
REMARK    4  A    between atoms: C_7  and  C_9
REMARK    5  A    between atoms: C_7  and  C_10
REMARK    6  A    between atoms: N_14  and  C_15
REMARK                            x       y       z     vdW  Elec       q    Type
REMARK                         _______ _______ _______ _____ _____    ______ ____
ROOT
ATOM      1  C   UNL     1      -0.409   1.472  -0.238  0.00  0.00    +0.007 C 
ATOM      2  C   UNL     1      -0.151  -0.030  -0.107  0.00  0.00    -0.011 C 
ATOM      3  C   UNL     1      -1.483  -0.762   0.073  0.00  0.00    +0.040 C 
ATOM      4  C   UNL     1      -1.226  -2.265   0.204  0.00  0.00    +0.135 C 
ATOM      5  C   UNL     1      -0.333  -2.525   1.418  0.00  0.00    +0.043 C 
ATOM      6  C   UNL     1       0.999  -1.794   1.239  0.00  0.00    -0.032 C 
ATOM      7  C   UNL     1       0.742  -0.291   1.108  0.00  0.00    +0.009 C 
ATOM      8  C   UNL     1       1.892  -2.054   2.453  0.00  0.00    +0.011 C 
ATOM      9  C   UNL     1       1.695  -2.304  -0.025  0.00  0.00    +0.011 C 
ENDROOT
BRANCH   4  10
ATOM     10  C   UNL     1      -2.537  -2.985   0.381  0.00  0.00    +0.379 C 
ATOM     11  O   UNL     1      -2.884  -3.829  -0.429  0.00  0.00    -0.244 OA
ATOM     12  O   UNL     1      -3.252  -2.725   1.333  0.00  0.00    -0.244 OA
ENDBRANCH   4  10
BRANCH   4  13
ATOM     13  N   UNL     1      -0.559  -2.753  -1.006  0.00  0.00    -0.328 N 
ATOM     14  H   UNL     1      -0.359  -2.140  -1.731  0.00  0.00    +0.147 HD
BRANCH  13  15
ATOM     15  C   UNL     1      -0.213  -4.102  -1.117  0.00  0.00    +0.042 A 
ATOM     16  C   UNL     1      -0.600  -5.003  -0.133  0.00  0.00    +0.024 A 
ATOM     17  C   UNL     1      -0.256  -6.336  -0.245  0.00  0.00    +0.002 A 
ATOM     18  C   UNL     1       0.473  -6.775  -1.335  0.00  0.00    +0.001 A 
ATOM     19  C   UNL     1       0.860  -5.881  -2.317  0.00  0.00    +0.017 A 
ATOM     20  C   UNL     1       0.515  -4.547  -2.214  0.00  0.00    +0.039 A 
ATOM     21 BR   UNL     1       1.038  -3.327  -3.560  0.00  0.00    -0.048 Br
ENDBRANCH  13  15
ENDBRANCH   4  13
TORSDOF 3
