REMARK  Name = ZINC00503603
REMARK  5 active torsions:
REMARK  status: ('A' for Active; 'I' for Inactive)
REMARK    1  A    between atoms: C_1  and  C_2
REMARK    2  A    between atoms: C_2  and  C_24
REMARK    3  A    between atoms: C_9  and  C_17
REMARK    4  A    between atoms: C_11  and  C_15
REMARK    5  A    between atoms: C_12  and  N_14
REMARK                            x       y       z     vdW  Elec       q    Type
REMARK                         _______ _______ _______ _____ _____    ______ ____
ROOT
ATOM      1  C   UNL     1       0.455  -1.587  -4.627  0.00  0.00    +0.019 C 
ATOM      2  C   UNL     1      -0.626  -0.986  -3.726  0.00  0.00    +0.028 C 
ATOM      3  C   UNL     1      -1.659  -2.063  -3.375  0.00  0.00    +0.022 C 
ATOM      4  C   UNL     1      -2.675  -1.462  -2.403  0.00  0.00    +0.076 C 
ATOM      5  C   UNL     1      -1.964  -0.970  -1.164  0.00  0.00    +0.115 C 
ATOM      6  C   UNL     1      -0.702  -0.508  -1.235  0.00  0.00    +0.046 C 
ATOM      7  C   UNL     1       0.000  -0.481  -2.455  0.00  0.00    +0.169 C 
ATOM      8  O   UNL     1       1.133  -0.042  -2.482  0.00  0.00    -0.292 OA
ATOM      9  C   UNL     1       0.002  -0.004   0.002  0.00  0.00    +0.101 C 
ATOM     10  C   UNL     1      -0.688  -0.519   1.234  0.00  0.00    +0.098 C 
ATOM     11  C   UNL     1      -1.958  -0.988   1.163  0.00  0.00    +0.198 C 
ATOM     12  O   UNL     1      -2.634  -1.003   0.003  0.00  0.00    -0.445 OA
ATOM     13  C   UNL     1      -1.318   0.170  -4.451  0.00  0.00    +0.019 C 
ENDROOT
BRANCH   9  14
ATOM     14  C   UNL     1      -0.018   1.503   0.010  0.00  0.00    -0.034 A 
ATOM     15  C   UNL     1      -1.225   2.177   0.020  0.00  0.00    +0.007 A 
ATOM     16  C   UNL     1      -1.245   3.559   0.033  0.00  0.00    +0.038 A 
ATOM     17  C   UNL     1      -0.056   4.268   0.025  0.00  0.00    +0.123 A 
ATOM     18  C   UNL     1       1.152   3.591   0.010  0.00  0.00    +0.038 A 
ATOM     19  C   UNL     1       1.170   2.210   0.003  0.00  0.00    +0.007 A 
ATOM     20  F   UNL     1      -0.074   5.619   0.032  0.00  0.00    -0.205 F 
ENDBRANCH   9  14
BRANCH  11  21
ATOM     21  N   UNL     1      -2.565  -1.458   2.300  0.00  0.00    -0.328 N 
ATOM     22  H   UNL     1      -2.086  -1.452   3.144  0.00  0.00    +0.145 HD
ATOM     23  H   UNL     1      -3.473  -1.797   2.261  0.00  0.00    +0.145 HD
ENDBRANCH  11  21
BRANCH  10  24
ATOM     24  C   UNL     1      -0.001  -0.513   2.490  0.00  0.00    +0.101 C 
ATOM     25  N   UNL     1       0.544  -0.508   3.487  0.00  0.00    -0.191 NA
ENDBRANCH  10  24
TORSDOF 3
