REMARK  Name = ZINC56761740
REMARK  10 active torsions:
REMARK  status: ('A' for Active; 'I' for Inactive)
REMARK    1  A    between atoms: C_1  and  C_2
REMARK    2  A    between atoms: C_2  and  C_4
REMARK    3  A    between atoms: C_2  and  N_12
REMARK    4  A    between atoms: C_4  and  C_5
REMARK    5  A    between atoms: C_8  and  O_11
REMARK    6  A    between atoms: N_15  and  C_16
REMARK    7  A    between atoms: C_16  and  C_17
REMARK    8  A    between atoms: C_17  and  C_18
REMARK    9  A    between atoms: C_18  and  N_19
REMARK   10  A    between atoms: N_19  and  C_20
REMARK                            x       y       z     vdW  Elec       q    Type
REMARK                         _______ _______ _______ _____ _____    ______ ____
ROOT
ATOM      1  N   UNL     1       0.688  -0.476  -1.203  0.00  0.00    -0.297 N 
ATOM      2  C   UNL     1       0.006  -0.608  -2.358  0.00  0.00    +0.300 C 
ATOM      3  O   UNL     1      -1.178  -0.335  -2.400  0.00  0.00    -0.253 OA
ATOM      4  N   UNL     1       0.637  -1.043  -3.467  0.00  0.00    -0.299 N 
ATOM      5  H   UNL     1       1.632  -0.695  -1.170  0.00  0.00    +0.151 HD
ATOM      6  H   UNL     1       1.582  -1.261  -3.434  0.00  0.00    +0.150 HD
ENDROOT
BRANCH   1   8
ATOM      7  C   UNL     1      -0.019   1.526   0.010  0.00  0.00    +0.028 C 
ATOM      8  C   UNL     1       0.002  -0.004   0.002  0.00  0.00    +0.076 C 
BRANCH   8   9
ATOM      9  C   UNL     1       0.742  -0.511   1.242  0.00  0.00    +0.057 C 
BRANCH   9  10
ATOM     10  C   UNL     1       0.657  -2.014   1.298  0.00  0.00    -0.045 A 
ATOM     11  C   UNL     1      -0.397  -2.622   1.956  0.00  0.00    +0.007 A 
ATOM     12  C   UNL     1      -0.477  -4.000   2.009  0.00  0.00    +0.045 A 
ATOM     13  C   UNL     1       0.500  -4.774   1.401  0.00  0.00    +0.117 A 
ATOM     14  C   UNL     1       1.556  -4.163   0.741  0.00  0.00    +0.045 A 
ATOM     15  C   UNL     1       1.629  -2.784   0.686  0.00  0.00    +0.007 A 
BRANCH  13  16
ATOM     16  O   UNL     1       0.424  -6.130   1.453  0.00  0.00    -0.507 OA
ATOM     17  H   UNL     1      -0.066  -6.525   0.718  0.00  0.00    +0.292 HD
ENDBRANCH  13  16
ENDBRANCH   9  10
ENDBRANCH   8   9
ENDBRANCH   1   8
BRANCH   4  18
ATOM     18  C   UNL     1      -0.104  -1.186  -4.723  0.00  0.00    +0.104 C 
BRANCH  18  19
ATOM     19  C   UNL     1       0.839  -1.692  -5.817  0.00  0.00    -0.000 C 
BRANCH  19  20
ATOM     20  C   UNL     1       0.065  -1.841  -7.128  0.00  0.00    -0.081 C 
BRANCH  20  21
ATOM     21  N   UNL     1       0.971  -2.326  -8.178  0.00  0.00    +0.381 N 
ATOM     22  H   UNL     1       1.723  -1.666  -8.305  0.00  0.00    -0.086 HD
ATOM     23  H   UNL     1       1.350  -3.221  -7.908  0.00  0.00    -0.086 HD
BRANCH  21  24
ATOM     24  C   UNL     1       0.228  -2.470  -9.438  0.00  0.00    -0.072 C 
ATOM     25  C   UNL     1      -0.834  -3.561  -9.282  0.00  0.00    -0.016 C 
ATOM     26  C   UNL     1      -1.607  -3.710 -10.593  0.00  0.00    -0.002 C 
ATOM     27  C   UNL     1      -0.641  -4.096 -11.715  0.00  0.00    -0.000 C 
ATOM     28  C   UNL     1       0.421  -3.005 -11.870  0.00  0.00    -0.002 C 
ATOM     29  C   UNL     1       1.194  -2.855 -10.559  0.00  0.00    -0.016 C 
ENDBRANCH  21  24
ENDBRANCH  20  21
ENDBRANCH  19  20
ENDBRANCH  18  19
ENDBRANCH   4  18
TORSDOF 9
