REMARK  Name = ZINC26161719
REMARK  13 active torsions:
REMARK  status: ('A' for Active; 'I' for Inactive)
REMARK    1  A    between atoms: C_1  and  C_2
REMARK    2  A    between atoms: C_2  and  C_3
REMARK    3  A    between atoms: C_3  and  C_4
REMARK    4  A    between atoms: C_4  and  O_5
REMARK    5  A    between atoms: O_5  and  C_6
REMARK    6  A    between atoms: C_6  and  C_8
REMARK    7  A    between atoms: C_11  and  N_14
REMARK    8  A    between atoms: C_15  and  C_17
REMARK    9  A    between atoms: C_17  and  C_19
REMARK   10  A    between atoms: C_17  and  N_20
REMARK   11  A    between atoms: N_23  and  C_26
REMARK   12  A    between atoms: C_29  and  C_32
REMARK   13  A    between atoms: C_32  and  C_34
REMARK                            x       y       z     vdW  Elec       q    Type
REMARK                         _______ _______ _______ _____ _____    ______ ____
ROOT
ATOM      1  C   UNL     1       0.345  -0.237  -0.102  0.00  0.00    +0.017 C 
ATOM      2  C   UNL     1       1.013  -0.227   1.274  0.00  0.00    -0.004 C 
ENDROOT
BRANCH   1   3
ATOM      3  N   UNL     1       0.123   1.145  -0.549  0.00  0.00    +0.389 N 
ATOM      4  C   UNL     1       1.380   1.764  -0.991  0.00  0.00    -0.059 C 
ATOM      5  C   UNL     1       1.093   3.171  -1.521  0.00  0.00    +0.086 C 
ATOM      6  N   UNL     1       0.459   3.971  -0.463  0.00  0.00    -0.333 N 
ATOM      7  C   UNL     1      -0.798   3.351  -0.021  0.00  0.00    +0.086 C 
ATOM      8  C   UNL     1      -0.511   1.944   0.509  0.00  0.00    -0.059 C 
ATOM      9  H   UNL     1      -0.562   1.115  -1.409  0.00  0.00    -0.081 HD
BRANCH   6  10
ATOM     10  C   UNL     1       0.248   5.277  -0.885  0.00  0.00    +0.030 A 
ATOM     11  C   UNL     1      -1.035   5.819  -0.853  0.00  0.00    +0.024 A 
ATOM     12  C   UNL     1      -1.246   7.105  -1.262  0.00  0.00    +0.013 A 
ATOM     13  C   UNL     1      -0.171   7.875  -1.725  0.00  0.00    +0.017 A 
ATOM     14  C   UNL     1       1.117   7.324  -1.761  0.00  0.00    +0.013 A 
ATOM     15  C   UNL     1       1.319   6.040  -1.345  0.00  0.00    +0.024 A 
BRANCH  13  16
ATOM     16  C   UNL     1      -0.394   9.256  -2.170  0.00  0.00    +0.160 C 
ATOM     17  O   UNL     1       0.518   9.890  -2.658  0.00  0.00    -0.292 OA
ATOM     18  C   UNL     1      -1.755   9.885  -2.022  0.00  0.00    +0.091 C 
ENDBRANCH  13  16
ENDBRANCH   6  10
ENDBRANCH   1   3
BRANCH   1  20
ATOM     19  N   UNL     1      -1.007  -2.300   0.073  0.00  0.00    -0.287 N 
ATOM     20  C   UNL     1      -0.976  -0.956  -0.015  0.00  0.00    +0.203 C 
ATOM     21  O   UNL     1      -2.011  -0.324  -0.023  0.00  0.00    -0.277 OA
ATOM     22  H   UNL     1      -0.069  -2.868   0.154  0.00  0.00    +0.155 HD
BRANCH  19  26
ATOM     23  C   UNL     1      -4.658  -4.305   0.037  0.00  0.00    +0.059 A 
ATOM     24  C   UNL     1      -3.540  -4.874  -0.581  0.00  0.00    +0.017 A 
ATOM     25  C   UNL     1      -2.336  -4.208  -0.567  0.00  0.00    +0.024 A 
ATOM     26  C   UNL     1      -2.229  -2.971   0.061  0.00  0.00    +0.033 A 
ATOM     27  C   UNL     1      -3.338  -2.405   0.682  0.00  0.00    +0.024 A 
ATOM     28  C   UNL     1      -4.548  -3.062   0.667  0.00  0.00    +0.017 A 
BRANCH  23  29
ATOM     29  C   UNL     1      -5.951  -5.015   0.023  0.00  0.00    +0.339 C 
ATOM     30  O   UNL     1      -6.045  -6.095  -0.525  0.00  0.00    -0.245 OA
BRANCH  29  31
ATOM     31  O   UNL     1      -7.027  -4.465   0.620  0.00  0.00    -0.461 OA
BRANCH  31  32
ATOM     32  C   UNL     1      -8.267  -5.220   0.567  0.00  0.00    +0.232 C 
BRANCH  32  33
ATOM     33  C   UNL     1      -9.368  -4.443   1.292  0.00  0.00    +0.041 C 
BRANCH  33  35
ATOM     34  C   UNL     1     -11.775  -4.461   1.961  0.00  0.00    +0.004 C 
ATOM     35  C   UNL     1     -10.674  -5.238   1.237  0.00  0.00    -0.000 C 
ENDBRANCH  33  35
ENDBRANCH  32  33
ENDBRANCH  31  32
ENDBRANCH  29  31
ENDBRANCH  23  29
ENDBRANCH  19  26
ENDBRANCH   1  20
TORSDOF 10
