REMARK  Name = ZINC12641191
REMARK  8 active torsions:
REMARK  status: ('A' for Active; 'I' for Inactive)
REMARK    1  A    between atoms: C_1  and  C_2
REMARK    2  A    between atoms: C_4  and  C_25
REMARK    3  A    between atoms: C_8  and  C_24
REMARK    4  A    between atoms: N_11  and  C_12
REMARK    5  A    between atoms: C_12  and  C_13
REMARK    6  A    between atoms: C_13  and  C_14
REMARK    7  A    between atoms: C_17  and  S_20
REMARK    8  A    between atoms: S_20  and  N_23
REMARK                            x       y       z     vdW  Elec       q    Type
REMARK                         _______ _______ _______ _____ _____    ______ ____
ROOT
ATOM      1  C   UNL     1       1.130  10.497   7.452  0.00  0.00    +0.044 C 
ATOM      2  C   UNL     1       1.128   9.700   6.174  0.00  0.00    -0.050 A 
ATOM      3  C   UNL     1       1.107  10.364   4.949  0.00  0.00    +0.008 A 
ATOM      4  C   UNL     1       1.104   9.673   3.776  0.00  0.00    -0.026 A 
ATOM      5  C   UNL     1       1.122   8.268   3.794  0.00  0.00    +0.051 A 
ATOM      6  C   UNL     1       1.143   7.595   5.040  0.00  0.00    +0.002 A 
ATOM      7  C   UNL     1       1.145   8.339   6.230  0.00  0.00    +0.013 A 
ATOM      8  C   UNL     1       1.161   6.185   5.059  0.00  0.00    -0.038 A 
ATOM      9  C   UNL     1       1.154   5.524   3.868  0.00  0.00    +0.045 A 
ATOM     10  C   UNL     1       1.139   6.247   2.667  0.00  0.00    +0.097 A 
ATOM     11  N   UNL     1       1.137   5.560   1.463  0.00  0.00    -0.330 N 
ATOM     12  C   UNL     1       1.183   5.430   6.363  0.00  0.00    +0.044 C 
ATOM     13  C   UNL     1       1.082  10.412   2.463  0.00  0.00    +0.046 C 
ATOM     14  H   UNL     1       1.123   6.049   0.625  0.00  0.00    +0.147 HD
ATOM     15  N   UNL     1       1.120   7.601   2.589  0.00  0.00    -0.343 N 
ATOM     16  H   UNL     1       1.105   8.097   1.690  0.00  0.00    +0.167 HD
ENDROOT
BRANCH  11  17
ATOM     17  C   UNL     1       1.157   4.095   1.455  0.00  0.00    +0.107 C 
BRANCH  17  18
ATOM     18  C   UNL     1       1.151   3.592   0.010  0.00  0.00    +0.054 C 
BRANCH  18  19
ATOM     19  C   UNL     1       1.171   2.086   0.002  0.00  0.00    -0.046 A 
ATOM     20  C   UNL     1      -0.017   1.378   0.010  0.00  0.00    +0.005 A 
ATOM     21  C   UNL     1       0.002  -0.004   0.002  0.00  0.00    +0.029 A 
ATOM     22  C   UNL     1       1.208  -0.679  -0.013  0.00  0.00    +0.105 A 
ATOM     23  C   UNL     1       2.396   0.029  -0.021  0.00  0.00    +0.029 A 
ATOM     24  C   UNL     1       2.377   1.411  -0.015  0.00  0.00    +0.005 A 
BRANCH  22  25
ATOM     25  S   UNL     1       1.232  -2.441  -0.022  0.00  0.00    +0.056 S 
ATOM     26  O   UNL     1       2.489  -2.832   0.515  0.00  0.00    -0.153 OA
ATOM     27  O   UNL     1      -0.002  -2.866   0.539  0.00  0.00    -0.153 OA
BRANCH  25  28
ATOM     28  N   UNL     1       1.223  -2.923  -1.606  0.00  0.00    -0.204 NA
ATOM     29  H   UNL     1       1.207  -2.260  -2.314  0.00  0.00    +0.144 HD
ATOM     30  H   UNL     1       1.234  -3.868  -1.825  0.00  0.00    +0.144 HD
ENDBRANCH  25  28
ENDBRANCH  22  25
ENDBRANCH  18  19
ENDBRANCH  17  18
ENDBRANCH  11  17
TORSDOF 5
