REMARK  Name = ZINC35577291
REMARK  3 active torsions:
REMARK  status: ('A' for Active; 'I' for Inactive)
REMARK    1  A    between atoms: C_1  and  N_2
REMARK    2  A    between atoms: C_3  and  N_25
REMARK    3  A    between atoms: C_5  and  C_18
REMARK                            x       y       z     vdW  Elec       q    Type
REMARK                         _______ _______ _______ _____ _____    ______ ____
ROOT
ATOM      1  C   UNL     1      -1.048   1.181  -0.100  0.00  0.00    +0.174 C 
ATOM      2  N   UNL     1      -0.468  -0.164  -0.059  0.00  0.00    -0.251 N 
ATOM      3  C   UNL     1      -0.031  -0.850  -1.130  0.00  0.00    +0.126 A 
ATOM      4  C   UNL     1       0.444  -2.075  -0.677  0.00  0.00    +0.086 A 
ATOM      5  C   UNL     1       1.019  -3.220  -1.272  0.00  0.00    +0.089 A 
ATOM      6  N   UNL     1       1.358  -4.234  -0.486  0.00  0.00    -0.214 NA
ATOM      7  C   UNL     1       1.174  -4.200   0.830  0.00  0.00    +0.220 A 
ATOM      8  N   UNL     1       0.646  -3.175   1.466  0.00  0.00    -0.193 NA
ATOM      9  C   UNL     1       0.258  -2.079   0.785  0.00  0.00    +0.188 A 
ATOM     10  N   UNL     1      -0.280  -0.923   1.102  0.00  0.00    -0.149 NA
ATOM     11  N   UNL     1       1.558  -5.303   1.572  0.00  0.00    -0.301 N 
ATOM     12  C   UNL     1       2.157  -6.458   0.873  0.00  0.00    +0.106 C 
ATOM     13  C   UNL     1       3.347  -7.029   1.666  0.00  0.00    -0.000 C 
ATOM     14  C   UNL     1       4.152  -5.891   2.253  0.00  0.00    -0.081 C 
ATOM     15  N   UNL     1       3.686  -5.621   3.612  0.00  0.00    +0.380 N 
ATOM     16  C   UNL     1       2.614  -4.706   3.703  0.00  0.00    -0.063 C 
ATOM     17  C   UNL     1       1.364  -5.281   3.007  0.00  0.00    +0.089 C 
ATOM     18  H   UNL     1       3.397  -6.493   4.028  0.00  0.00    -0.086 HD
ATOM     19  H   UNL     1       4.460  -5.258   4.147  0.00  0.00    -0.086 HD
ENDROOT
BRANCH   5  20
ATOM     20  C   UNL     1       1.236  -3.288  -2.735  0.00  0.00    +0.001 A 
ATOM     21  C   UNL     1       1.798  -2.204  -3.410  0.00  0.00    +0.011 A 
ATOM     22  C   UNL     1       1.998  -2.272  -4.773  0.00  0.00    +0.020 A 
ATOM     23  C   UNL     1       1.642  -3.414  -5.471  0.00  0.00    +0.041 A 
ATOM     24  C   UNL     1       1.084  -4.494  -4.806  0.00  0.00    +0.020 A 
ATOM     25  C   UNL     1       0.885  -4.438  -3.442  0.00  0.00    +0.011 A 
ATOM     26 CL   UNL     1       1.896  -3.494  -7.187  0.00  0.00    -0.084 Cl
ENDBRANCH   5  20
BRANCH   3  27
ATOM     27  N   UNL     1      -0.052  -0.415  -2.442  0.00  0.00    -0.343 N 
ATOM     28  H   UNL     1      -0.146   0.530  -2.638  0.00  0.00    +0.144 HD
ATOM     29  H   UNL     1       0.027  -1.056  -3.166  0.00  0.00    +0.144 HD
ENDBRANCH   3  27
TORSDOF 2
