REMARK  Name = ZINC33435679
REMARK  10 active torsions:
REMARK  status: ('A' for Active; 'I' for Inactive)
REMARK    1  A    between atoms: C_1  and  C_2
REMARK    2  A    between atoms: N_4  and  C_5
REMARK    3  A    between atoms: N_4  and  C_18
REMARK    4  A    between atoms: C_5  and  C_6
REMARK    5  A    between atoms: C_18  and  C_24
REMARK    6  A    between atoms: N_26  and  C_27
REMARK    7  A    between atoms: C_29  and  O_35
REMARK    8  A    between atoms: C_31  and  O_33
REMARK    9  A    between atoms: O_33  and  C_34
REMARK   10  A    between atoms: O_35  and  C_36
REMARK                            x       y       z     vdW  Elec       q    Type
REMARK                         _______ _______ _______ _____ _____    ______ ____
ROOT
ATOM      1  C   UNL     1      -1.863   6.057   2.136  0.00  0.00    +0.114 C 
ATOM      2  C   UNL     1      -1.315   4.960   3.050  0.00  0.00    +0.035 C 
ATOM      3  C   UNL     1      -2.372   3.867   3.224  0.00  0.00    +0.003 C 
ATOM      4  C   UNL     1      -3.632   4.470   3.849  0.00  0.00    +0.000 C 
ATOM      5  C   UNL     1      -4.179   5.567   2.934  0.00  0.00    +0.003 C 
ATOM      6  C   UNL     1      -3.122   6.660   2.760  0.00  0.00    +0.035 C 
ENDROOT
BRANCH   1  10
ATOM      7  C   UNL     1      -1.756   3.913  -1.032  0.00  0.00    +0.109 C 
ATOM      8  C   UNL     1      -1.363   4.587   0.258  0.00  0.00    +0.213 C 
ATOM      9  O   UNL     1      -0.302   4.322   0.782  0.00  0.00    -0.276 OA
ATOM     10  N   UNL     1      -2.192   5.484   0.828  0.00  0.00    -0.287 N 
BRANCH  10  11
ATOM     11  C   UNL     1      -3.421   5.886   0.141  0.00  0.00    +0.110 C 
BRANCH  11  12
ATOM     12  C   UNL     1      -3.100   6.977  -0.883  0.00  0.00    -0.007 C 
ATOM     13  C   UNL     1      -2.640   8.239  -0.153  0.00  0.00    +0.002 C 
ATOM     14  C   UNL     1      -2.365   9.332  -1.192  0.00  0.00    -0.018 C 
ATOM     15  C   UNL     1      -3.645   9.590  -1.986  0.00  0.00    -0.078 C 
ATOM     16  N   UNL     1      -4.072   8.359  -2.668  0.00  0.00    +0.382 N 
ATOM     17  C   UNL     1      -4.352   7.282  -1.712  0.00  0.00    -0.064 C 
ATOM     18  C   UNL     1      -4.750   6.005  -2.460  0.00  0.00    -0.015 C 
ATOM     19  C   UNL     1      -5.972   6.277  -3.338  0.00  0.00    -0.003 C 
ATOM     20  C   UNL     1      -5.635   7.410  -4.313  0.00  0.00    -0.019 C 
ATOM     21  C   UNL     1      -5.242   8.651  -3.511  0.00  0.00    -0.078 C 
ATOM     22  H   UNL     1      -3.251   8.000  -3.307  0.00  0.00    -0.081 HD
ENDBRANCH  11  12
ENDBRANCH  10  11
ENDBRANCH   1  10
BRANCH   1  23
ATOM     23  C   UNL     1      -0.822   7.134   1.965  0.00  0.00    +0.241 C 
ATOM     24  O   UNL     1      -0.843   8.116   2.676  0.00  0.00    -0.273 OA
ATOM     25  N   UNL     1       0.132   7.005   1.021  0.00  0.00    -0.283 N 
ATOM     26  H   UNL     1       0.088   6.171   0.305  0.00  0.00    +0.155 HD
BRANCH  25  27
ATOM     27  C   UNL     1       1.178   7.931   0.953  0.00  0.00    +0.040 A 
ATOM     28  C   UNL     1       1.656   8.526   2.113  0.00  0.00    +0.069 A 
ATOM     29  C   UNL     1       2.696   9.440   2.046  0.00  0.00    +0.125 A 
ATOM     30  C   UNL     1       3.252   9.768   0.818  0.00  0.00    +0.091 A 
ATOM     31  C   UNL     1       2.772   9.179  -0.341  0.00  0.00    +0.125 A 
ATOM     32  C   UNL     1       1.735   8.261  -0.275  0.00  0.00    +0.069 A 
BRANCH  31  33
ATOM     33  O   UNL     1       3.317   9.502  -1.544  0.00  0.00    -0.495 OA
ATOM     34  C   UNL     1       4.382  10.455  -1.538  0.00  0.00    +0.277 C 
ENDBRANCH  31  33
BRANCH  29  35
ATOM     35  O   UNL     1       3.168  10.018   3.182  0.00  0.00    -0.495 OA
ATOM     36  C   UNL     1       4.238  10.954   3.038  0.00  0.00    +0.277 C 
ENDBRANCH  29  35
ENDBRANCH  25  27
ENDBRANCH   1  23
TORSDOF 7
