REMARK  Name = ZINC08038416
REMARK  6 active torsions:
REMARK  status: ('A' for Active; 'I' for Inactive)
REMARK    1  A    between atoms: C_4  and  C_7
REMARK    2  A    between atoms: C_9  and  C_21
REMARK    3  A    between atoms: C_10  and  N_12
REMARK    4  A    between atoms: C_13  and  C_15
REMARK    5  A    between atoms: C_15  and  N_44
REMARK    6  A    between atoms: C_16  and  N_44
REMARK                            x       y       z     vdW  Elec       q    Type
REMARK                         _______ _______ _______ _____ _____    ______ ____
ROOT
ATOM      1  C   UNL     1      -2.548   2.823  -5.417  0.00  0.00    +0.022 A 
ATOM      2  C   UNL     1      -1.489   2.094  -5.862  0.00  0.00    +0.031 A 
ATOM      3  C   UNL     1      -0.648   1.523  -4.907  0.00  0.00    +0.066 A 
ATOM      4  C   UNL     1      -0.958   1.731  -3.565  0.00  0.00    +0.084 A 
ATOM      5  S   UNL     1      -2.385   2.712  -3.646  0.00  0.00    -0.073 S 
ENDROOT
BRANCH   1   9
ATOM      6  C   UNL     1      -5.508   4.857  -7.685  0.00  0.00    +0.000 A 
ATOM      7  C   UNL     1      -5.556   4.890  -6.303  0.00  0.00    +0.001 A 
ATOM      8  C   UNL     1      -4.598   4.232  -5.560  0.00  0.00    +0.009 A 
ATOM      9  C   UNL     1      -3.579   3.530  -6.206  0.00  0.00    -0.011 A 
ATOM     10  C   UNL     1      -3.533   3.505  -7.601  0.00  0.00    +0.009 A 
ATOM     11  C   UNL     1      -4.501   4.163  -8.332  0.00  0.00    +0.001 A 
ENDBRANCH   1   9
BRANCH   3  12
ATOM     12  C   UNL     1       0.521   0.729  -5.302  0.00  0.00    +0.244 C 
ATOM     13  O   UNL     1       1.238   0.237  -4.450  0.00  0.00    -0.270 OA
ATOM     14  N   UNL     1       0.799   0.542  -6.607  0.00  0.00    -0.325 N 
ATOM     15  H   UNL     1       0.227   0.934  -7.286  0.00  0.00    +0.145 HD
ATOM     16  H   UNL     1       1.572   0.017  -6.868  0.00  0.00    +0.145 HD
ENDBRANCH   3  12
BRANCH   4  17
ATOM     17  N   UNL     1      -0.288   1.272  -2.443  0.00  0.00    -0.281 N 
ATOM     18  C   UNL     1      -0.742   1.585  -1.213  0.00  0.00    +0.201 C 
ATOM     19  O   UNL     1      -1.736   2.268  -1.088  0.00  0.00    -0.278 OA
ATOM     20  H   UNL     1       0.507   0.726  -2.543  0.00  0.00    +0.155 HD
BRANCH  18  21
ATOM     21  C   UNL     1      -0.013   1.086   0.008  0.00  0.00    +0.016 C 
BRANCH  21  22
ATOM     22  N   UNL     1      -0.709   1.566   1.217  0.00  0.00    +0.387 N 
ATOM     23  H   UNL     1      -1.672   1.210   1.216  0.00  0.00    -0.085 HD
ATOM     24  H   UNL     1      -0.723   2.592   1.214  0.00  0.00    -0.085 HD
BRANCH  22  25
ATOM     25  C   UNL     1      -0.016   1.091   2.429  0.00  0.00    -0.071 C 
ATOM     26  C   UNL     1      -0.553  -0.297   2.836  0.00  0.00    -0.016 C 
ATOM     27  C   UNL     1      -0.575  -0.257   4.384  0.00  0.00    -0.002 C 
ATOM     28  C   UNL     1      -1.024   1.195   4.683  0.00  0.00    -0.002 C 
ATOM     29  C   UNL     1      -0.316   2.040   3.603  0.00  0.00    -0.016 C 
ENDBRANCH  22  25
ENDBRANCH  21  22
ENDBRANCH  18  21
ENDBRANCH   4  17
TORSDOF 6
