REMARK  Name = ZINC52860653
REMARK  6 active torsions:
REMARK  status: ('A' for Active; 'I' for Inactive)
REMARK    1  A    between atoms: C_1  and  N_2
REMARK    2  A    between atoms: N_2  and  C_3
REMARK    3  A    between atoms: N_2  and  C_10
REMARK    4  A    between atoms: C_3  and  C_4
REMARK    5  A    between atoms: C_15  and  C_16
REMARK    6  A    between atoms: N_17  and  O_18
REMARK                            x       y       z     vdW  Elec       q    Type
REMARK                         _______ _______ _______ _____ _____    ______ ____
ROOT
ATOM      1  C   UNL     1       0.087  -0.577  -1.110  0.00  0.00    +0.040 A 
ATOM      2  C   UNL     1       1.287  -1.036  -1.637  0.00  0.00    +0.025 A 
ATOM      3  C   UNL     1       1.297  -1.737  -2.826  0.00  0.00    +0.022 A 
ATOM      4  C   UNL     1       0.113  -1.987  -3.502  0.00  0.00    +0.042 A 
ATOM      5  C   UNL     1      -1.088  -1.538  -2.992  0.00  0.00    +0.033 A 
ATOM      6  C   UNL     1      -1.112  -0.833  -1.788  0.00  0.00    +0.040 A 
ATOM      7 CL   UNL     1       0.141  -2.868  -4.997  0.00  0.00    -0.084 Cl
ENDROOT
BRANCH   6   8
ATOM      8  C   UNL     1      -2.396  -0.354  -1.233  0.00  0.00    +0.164 C 
ATOM      9  N   UNL     1      -2.428   0.211  -0.061  0.00  0.00    -0.071 NA
ATOM     10  N   UNL     1      -3.565  -0.506  -1.961  0.00  0.00    -0.340 N 
ATOM     11  H   UNL     1      -3.541  -0.926  -2.835  0.00  0.00    +0.144 HD
ATOM     12  H   UNL     1      -4.407  -0.192  -1.597  0.00  0.00    +0.144 HD
BRANCH   9  13
ATOM     13  O   UNL     1      -3.670   0.572   0.517  0.00  0.00    -0.408 OA
ATOM     14  H   UNL     1      -3.589   1.053   1.353  0.00  0.00    +0.328 HD
ENDBRANCH   9  13
ENDBRANCH   6   8
BRANCH   1  16
ATOM     15  C   UNL     1       0.042  -0.592   1.365  0.00  0.00    +0.129 C 
ATOM     16  N   UNL     1       0.075   0.129   0.090  0.00  0.00    -0.328 N 
BRANCH  16  17
ATOM     17  C   UNL     1       0.096   1.594   0.078  0.00  0.00    +0.140 C 
BRANCH  17  18
ATOM     18  C   UNL     1       1.516   2.078   0.218  0.00  0.00    -0.022 A 
ATOM     19  C   UNL     1       2.091   2.215   1.468  0.00  0.00    +0.028 A 
ATOM     20  C   UNL     1       3.371   2.652   1.558  0.00  0.00    +0.055 A 
ATOM     21  S   UNL     1       3.803   2.886  -0.158  0.00  0.00    -0.090 S 
ATOM     22  C   UNL     1       2.251   2.380  -0.880  0.00  0.00    +0.051 A 
ATOM     23 BR   UNL     1       4.425   2.941   3.102  0.00  0.00    -0.043 Br
ENDBRANCH  17  18
ENDBRANCH  16  17
ENDBRANCH   1  16
TORSDOF 5
