REMARK  Name = ZINC03300402
REMARK  9 active torsions:
REMARK  status: ('A' for Active; 'I' for Inactive)
REMARK    1  A    between atoms: C_4  and  C_7
REMARK    2  A    between atoms: C_12  and  N_22
REMARK    3  A    between atoms: C_14  and  C_16
REMARK    4  A    between atoms: C_16  and  N_64
REMARK    5  A    between atoms: N_22  and  C_23
REMARK    6  A    between atoms: C_23  and  C_24
REMARK    7  A    between atoms: C_24  and  C_25
REMARK    8  A    between atoms: C_28  and  S_31
REMARK    9  A    between atoms: S_31  and  N_34
REMARK                            x       y       z     vdW  Elec       q    Type
REMARK                         _______ _______ _______ _____ _____    ______ ____
ROOT
ATOM      1  C   UNL     1       1.323   8.604   1.572  0.00  0.00    +0.002 A 
ATOM      2  C   UNL     1       1.685   9.875   1.867  0.00  0.00    +0.056 A 
ATOM      3  S   UNL     1       1.500   9.961   3.637  0.00  0.00    -0.076 S 
ATOM      4  C   UNL     1       0.945   8.305   3.942  0.00  0.00    +0.114 A 
ATOM      5  C   UNL     1       0.921   7.719   2.660  0.00  0.00    +0.055 A 
ATOM      6  C   UNL     1       0.497   6.364   2.616  0.00  0.00    +0.131 A 
ATOM      7  N   UNL     1       0.170   5.753   3.743  0.00  0.00    -0.219 NA
ATOM      8  C   UNL     1       0.220   6.363   4.913  0.00  0.00    +0.116 A 
ATOM      9  N   UNL     1       0.602   7.621   5.017  0.00  0.00    -0.227 NA
ENDROOT
BRANCH   1  13
ATOM     10  C   UNL     1       1.370   7.216  -2.445  0.00  0.00    +0.000 A 
ATOM     11  C   UNL     1       0.575   8.293  -2.098  0.00  0.00    +0.001 A 
ATOM     12  C   UNL     1       0.556   8.748  -0.796  0.00  0.00    +0.008 A 
ATOM     13  C   UNL     1       1.339   8.120   0.171  0.00  0.00    -0.017 A 
ATOM     14  C   UNL     1       2.143   7.038  -0.186  0.00  0.00    +0.008 A 
ATOM     15  C   UNL     1       2.150   6.588  -1.490  0.00  0.00    +0.001 A 
ENDBRANCH   1  13
BRANCH   6  16
ATOM     16  N   UNL     1       0.431   5.690   1.409  0.00  0.00    -0.328 N 
ATOM     17  H   UNL     1       0.590   6.165   0.579  0.00  0.00    +0.147 HD
BRANCH  16  18
ATOM     18  C   UNL     1       0.123   4.258   1.386  0.00  0.00    +0.107 C 
BRANCH  18  19
ATOM     19  C   UNL     1       0.113   3.762  -0.061  0.00  0.00    +0.054 C 
BRANCH  19  20
ATOM     20  C   UNL     1      -0.204   2.289  -0.085  0.00  0.00    -0.046 A 
ATOM     21  C   UNL     1      -1.518   1.866  -0.174  0.00  0.00    +0.005 A 
ATOM     22  C   UNL     1      -1.808   0.514  -0.196  0.00  0.00    +0.029 A 
ATOM     23  C   UNL     1      -0.786  -0.414  -0.130  0.00  0.00    +0.105 A 
ATOM     24  C   UNL     1       0.527   0.009  -0.041  0.00  0.00    +0.029 A 
ATOM     25  C   UNL     1       0.818   1.361  -0.020  0.00  0.00    +0.005 A 
BRANCH  23  26
ATOM     26  S   UNL     1      -1.157  -2.136  -0.157  0.00  0.00    +0.056 S 
ATOM     27  O   UNL     1      -0.064  -2.797   0.467  0.00  0.00    -0.153 OA
ATOM     28  O   UNL     1      -2.493  -2.271   0.306  0.00  0.00    -0.153 OA
BRANCH  26  29
ATOM     29  N   UNL     1      -1.155  -2.612  -1.743  0.00  0.00    -0.204 NA
ATOM     30  H   UNL     1      -0.969  -1.967  -2.443  0.00  0.00    +0.144 HD
ATOM     31  H   UNL     1      -1.340  -3.537  -1.972  0.00  0.00    +0.144 HD
ENDBRANCH  26  29
ENDBRANCH  23  26
ENDBRANCH  19  20
ENDBRANCH  18  19
ENDBRANCH  16  18
ENDBRANCH   6  16
BRANCH   8  32
ATOM     32  C   UNL     1      -0.167   5.605   6.157  0.00  0.00    -0.001 C 
BRANCH  32  38
ATOM     33  C   UNL     1       1.525   3.908   5.813  0.00  0.00    -0.078 C 
ATOM     34  C   UNL     1       2.839   3.347   6.360  0.00  0.00    -0.019 C 
ATOM     35  C   UNL     1       2.598   2.762   7.755  0.00  0.00    -0.004 C 
ATOM     36  C   UNL     1       2.028   3.853   8.665  0.00  0.00    -0.019 C 
ATOM     37  C   UNL     1       0.737   4.399   8.052  0.00  0.00    -0.078 C 
ATOM     38  N   UNL     1       1.041   4.969   6.722  0.00  0.00    +0.384 N 
ATOM     39  H   UNL     1       1.775   5.680   6.825  0.00  0.00    -0.081 HD
ENDBRANCH  32  38
ENDBRANCH   8  32
TORSDOF 9
