REMARK  Name = ZINC59804511
REMARK  10 active torsions:
REMARK  status: ('A' for Active; 'I' for Inactive)
REMARK    1  A    between atoms: C_1  and  C_2
REMARK    2  A    between atoms: C_6  and  N_8
REMARK    3  A    between atoms: N_8  and  S_9
REMARK    4  A    between atoms: S_9  and  C_12
REMARK    5  A    between atoms: C_15  and  N_18
REMARK    6  A    between atoms: C_19  and  C_21
REMARK    7  A    between atoms: C_21  and  S_22
REMARK    8  A    between atoms: S_22  and  C_23
REMARK    9  A    between atoms: C_26  and  C_29
REMARK   10  A    between atoms: N_27  and  N_28
REMARK                            x       y       z     vdW  Elec       q    Type
REMARK                         _______ _______ _______ _____ _____    ______ ____
ROOT
ATOM      1  N   UNL     1       6.603  -1.923   2.393  0.00  0.00    -0.285 N 
ATOM      2  C   UNL     1       7.069  -1.364   1.259  0.00  0.00    +0.227 C 
ATOM      3  O   UNL     1       6.332  -1.218   0.307  0.00  0.00    -0.275 OA
ATOM      4  H   UNL     1       7.170  -1.970   3.179  0.00  0.00    +0.155 HD
ENDROOT
BRANCH   1   8
ATOM      5  C   UNL     1       2.730  -3.452   2.523  0.00  0.00    +0.109 A 
ATOM      6  C   UNL     1       3.458  -3.516   1.349  0.00  0.00    +0.030 A 
ATOM      7  C   UNL     1       4.742  -3.010   1.303  0.00  0.00    +0.025 A 
ATOM      8  C   UNL     1       5.302  -2.436   2.437  0.00  0.00    +0.034 A 
ATOM      9  C   UNL     1       4.568  -2.373   3.614  0.00  0.00    +0.025 A 
ATOM     10  C   UNL     1       3.283  -2.877   3.653  0.00  0.00    +0.030 A 
BRANCH   5  11
ATOM     11  S   UNL     1       1.092  -4.099   2.579  0.00  0.00    +0.072 S 
ATOM     12  O   UNL     1       0.821  -4.403   3.940  0.00  0.00    -0.150 OA
ATOM     13  O   UNL     1       1.005  -5.073   1.548  0.00  0.00    -0.150 OA
BRANCH  11  14
ATOM     14  N   UNL     1       0.066  -2.869   2.155  0.00  0.00    -0.216 N 
ATOM     15  H   UNL     1      -0.568  -2.523   2.802  0.00  0.00    +0.174 HD
BRANCH  14  21
ATOM     16  C   UNL     1       0.106   1.066  -0.787  0.00  0.00    +0.044 C 
ATOM     17  C   UNL     1       0.135  -0.427  -0.590  0.00  0.00    -0.049 A 
ATOM     18  C   UNL     1       0.208  -1.268  -1.685  0.00  0.00    +0.003 A 
ATOM     19  C   UNL     1       0.234  -2.639  -1.508  0.00  0.00    +0.002 A 
ATOM     20  C   UNL     1       0.187  -3.174  -0.236  0.00  0.00    +0.024 A 
ATOM     21  C   UNL     1       0.113  -2.332   0.867  0.00  0.00    +0.048 A 
ATOM     22  C   UNL     1       0.093  -0.955   0.686  0.00  0.00    +0.027 A 
ENDBRANCH  14  21
ENDBRANCH  11  14
ENDBRANCH   5  11
ENDBRANCH   1   8
BRANCH   2  23
ATOM     23  C   UNL     1       8.507  -0.919   1.173  0.00  0.00    +0.173 C 
BRANCH  23  24
ATOM     24  S   UNL     1       8.824  -0.212  -0.467  0.00  0.00    -0.075 S 
BRANCH  24  25
ATOM     25  C   UNL     1      10.523   0.254  -0.409  0.00  0.00    +0.209 A 
ATOM     26  N   UNL     1      11.339   0.099   0.610  0.00  0.00    -0.121 NA
ATOM     27  N   UNL     1      12.506   0.547   0.312  0.00  0.00    -0.127 NA
ATOM     28  C   UNL     1      12.507   1.015  -0.915  0.00  0.00    +0.182 A 
ATOM     29  N   UNL     1      11.238   0.837  -1.416  0.00  0.00    -0.224 N 
BRANCH  28  30
ATOM     30  C   UNL     1      13.656   1.615  -1.625  0.00  0.00    +0.021 A 
ATOM     31  C   UNL     1      13.450   2.354  -2.791  0.00  0.00    +0.014 A 
ATOM     32  C   UNL     1      14.525   2.913  -3.450  0.00  0.00    +0.039 A 
ATOM     33  C   UNL     1      15.808   2.741  -2.956  0.00  0.00    +0.123 A 
ATOM     34  C   UNL     1      16.019   2.009  -1.799  0.00  0.00    +0.039 A 
ATOM     35  C   UNL     1      14.950   1.450  -1.129  0.00  0.00    +0.014 A 
ATOM     36  F   UNL     1      16.858   3.290  -3.605  0.00  0.00    -0.205 F 
ENDBRANCH  28  30
BRANCH  29  37
ATOM     37  N   UNL     1      10.787   1.175  -2.660  0.00  0.00    -0.295 N 
ATOM     38  H   UNL     1      10.423   2.116  -2.670  0.00  0.00    +0.163 HD
ATOM     39  H   UNL     1      11.513   1.060  -3.351  0.00  0.00    +0.163 HD
ENDBRANCH  29  37
ENDBRANCH  24  25
ENDBRANCH  23  24
ENDBRANCH   2  23
TORSDOF 9
