REMARK  Name = ZINC50910673
REMARK  6 active torsions:
REMARK  status: ('A' for Active; 'I' for Inactive)
REMARK    1  A    between atoms: C_1  and  C_2
REMARK    2  A    between atoms: C_5  and  C_11
REMARK    3  A    between atoms: C_5  and  N_13
REMARK    4  A    between atoms: C_7  and  C_9
REMARK    5  A    between atoms: C_7  and  C_10
REMARK    6  A    between atoms: C_11  and  N_12
REMARK                            x       y       z     vdW  Elec       q    Type
REMARK                         _______ _______ _______ _____ _____    ______ ____
ROOT
ATOM      1  C   UNL     1       0.950   1.492  -2.973  0.00  0.00    +0.007 C 
ATOM      2  C   UNL     1       0.660   0.362  -1.982  0.00  0.00    -0.015 C 
ATOM      3  C   UNL     1       1.341  -0.922  -2.459  0.00  0.00    -0.011 C 
ATOM      4  C   UNL     1       1.050  -2.052  -1.469  0.00  0.00    -0.080 C 
ATOM      5  C   UNL     1       1.589  -1.671  -0.089  0.00  0.00    -0.008 C 
ATOM      6  C   UNL     1       0.908  -0.387   0.388  0.00  0.00    -0.036 C 
ATOM      7  C   UNL     1       1.198   0.743  -0.602  0.00  0.00    +0.009 C 
ATOM      8  C   UNL     1       1.447  -0.006   1.769  0.00  0.00    +0.011 C 
ATOM      9  C   UNL     1      -0.603  -0.613   0.475  0.00  0.00    +0.011 C 
ENDROOT
BRANCH   4  10
ATOM     10  N   UNL     1      -0.400  -2.269  -1.386  0.00  0.00    +0.388 N 
ATOM     11  C   UNL     1      -0.698  -3.696  -1.126  0.00  0.00    -0.042 C 
ATOM     12  C   UNL     1      -1.989  -3.984  -1.858  0.00  0.00    -0.063 A 
ATOM     13  C   UNL     1      -2.905  -5.011  -1.738  0.00  0.00    +0.002 A 
ATOM     14  C   UNL     1      -4.025  -5.036  -2.548  0.00  0.00    +0.000 A 
ATOM     15  C   UNL     1      -4.229  -4.034  -3.478  0.00  0.00    +0.000 A 
ATOM     16  C   UNL     1      -3.312  -3.007  -3.599  0.00  0.00    +0.002 A 
ATOM     17  C   UNL     1      -2.192  -2.980  -2.789  0.00  0.00    -0.063 A 
ATOM     18  C   UNL     1      -1.041  -2.005  -2.694  0.00  0.00    -0.042 C 
ATOM     19  H   UNL     1      -0.805  -1.685  -0.670  0.00  0.00    -0.080 HD
ENDBRANCH   4  10
BRANCH   4  20
ATOM     20  C   UNL     1       1.732  -3.336  -1.946  0.00  0.00    -0.099 C 
BRANCH  20  21
ATOM     21  N   UNL     1       1.152  -3.749  -3.231  0.00  0.00    +0.377 N 
ATOM     22  H   UNL     1       1.040  -2.941  -3.825  0.00  0.00    -0.090 HD
ATOM     23  H   UNL     1       1.766  -4.413  -3.679  0.00  0.00    -0.090 HD
ATOM     24  H   UNL     1       0.253  -4.178  -3.072  0.00  0.00    -0.090 HD
ENDBRANCH  20  21
ENDBRANCH   4  20
TORSDOF 3
