REMARK  Name = ZINC01797016
REMARK  8 active torsions:
REMARK  status: ('A' for Active; 'I' for Inactive)
REMARK    1  A    between atoms: C_1  and  C_2
REMARK    2  A    between atoms: C_5  and  N_8
REMARK    3  A    between atoms: C_9  and  C_11
REMARK    4  A    between atoms: C_11  and  C_12
REMARK    5  A    between atoms: C_17  and  N_19
REMARK    6  A    between atoms: N_19  and  C_20
REMARK    7  A    between atoms: C_23  and  S_26
REMARK    8  A    between atoms: S_26  and  N_29
REMARK                            x       y       z     vdW  Elec       q    Type
REMARK                         _______ _______ _______ _____ _____    ______ ____
ROOT
ATOM      1  C   UNL     1       0.440  -6.867   2.581  0.00  0.00    +0.150 C 
ATOM      2  C   UNL     1       0.528  -8.387   2.507  0.00  0.00    +0.252 C 
ATOM      3  O   UNL     1       1.423  -8.983   1.940  0.00  0.00    -0.272 OA
ATOM      4  N   UNL     1      -0.463  -8.983   3.121  0.00  0.00    -0.156 NA
ATOM      5  C   UNL     1      -1.440  -8.348   3.741  0.00  0.00    +0.171 C 
ATOM      6  S   UNL     1      -1.112  -6.706   3.556  0.00  0.00    -0.078 S 
ENDROOT
BRANCH   1   7
ATOM      7  C   UNL     1       0.293  -6.248   1.189  0.00  0.00    +0.120 C 
BRANCH   7   9
ATOM      8  N   UNL     1       0.096  -3.986   0.208  0.00  0.00    -0.285 N 
ATOM      9  C   UNL     1       0.226  -4.747   1.312  0.00  0.00    +0.219 C 
ATOM     10  O   UNL     1       0.290  -4.225   2.405  0.00  0.00    -0.275 OA
ATOM     11  H   UNL     1      -0.031  -4.405  -0.658  0.00  0.00    +0.155 HD
BRANCH   8  16
ATOM     12  C   UNL     1       0.288   1.669   0.620  0.00  0.00    +0.044 C 
ATOM     13  C   UNL     1       0.237   0.167   0.511  0.00  0.00    -0.050 A 
ATOM     14  C   UNL     1       0.992  -0.614   1.367  0.00  0.00    +0.005 A 
ATOM     15  C   UNL     1       0.947  -1.990   1.269  0.00  0.00    +0.023 A 
ATOM     16  C   UNL     1       0.143  -2.591   0.310  0.00  0.00    +0.033 A 
ATOM     17  C   UNL     1      -0.614  -1.805  -0.549  0.00  0.00    +0.023 A 
ATOM     18  C   UNL     1      -0.569  -0.428  -0.443  0.00  0.00    +0.005 A 
ENDBRANCH   8  16
ENDBRANCH   7   9
ENDBRANCH   1   7
BRANCH   5  19
ATOM     19  N   UNL     1      -2.499  -8.907   4.397  0.00  0.00    -0.192 NA
BRANCH  19  20
ATOM     20  C   UNL     1      -2.522 -10.284   4.644  0.00  0.00    +0.056 A 
ATOM     21  C   UNL     1      -1.332 -10.995   4.726  0.00  0.00    +0.027 A 
ATOM     22  C   UNL     1      -1.358 -12.355   4.970  0.00  0.00    +0.030 A 
ATOM     23  C   UNL     1      -2.567 -13.007   5.131  0.00  0.00    +0.105 A 
ATOM     24  C   UNL     1      -3.753 -12.301   5.050  0.00  0.00    +0.030 A 
ATOM     25  C   UNL     1      -3.734 -10.941   4.812  0.00  0.00    +0.027 A 
BRANCH  23  26
ATOM     26  S   UNL     1      -2.595 -14.741   5.441  0.00  0.00    +0.056 S 
ATOM     27  O   UNL     1      -3.866 -15.210   5.012  0.00  0.00    -0.153 OA
ATOM     28  O   UNL     1      -1.377 -15.265   4.928  0.00  0.00    -0.153 OA
BRANCH  26  29
ATOM     29  N   UNL     1      -2.544 -14.946   7.083  0.00  0.00    -0.204 NA
ATOM     30  H   UNL     1      -2.507 -14.173   7.667  0.00  0.00    +0.144 HD
ATOM     31  H   UNL     1      -2.552 -15.840   7.461  0.00  0.00    +0.144 HD
ENDBRANCH  26  29
ENDBRANCH  23  26
ENDBRANCH  19  20
ENDBRANCH   5  19
TORSDOF 7
