REMARK  Name = ZINC14986607
REMARK  14 active torsions:
REMARK  status: ('A' for Active; 'I' for Inactive)
REMARK    1  A    between atoms: C_1  and  C_2
REMARK    2  A    between atoms: C_2  and  C_4
REMARK    3  A    between atoms: C_2  and  C_10
REMARK    4  A    between atoms: C_4  and  C_5
REMARK    5  A    between atoms: C_5  and  C_6
REMARK    6  A    between atoms: C_7  and  C_8
REMARK    7  A    between atoms: C_7  and  C_9
REMARK    8  A    between atoms: C_10  and  N_72
REMARK    9  A    between atoms: C_13  and  C_16
REMARK   10  A    between atoms: C_13  and  O_35
REMARK   11  A    between atoms: C_23  and  C_25
REMARK   12  A    between atoms: N_27  and  C_28
REMARK   13  A    between atoms: N_27  and  C_29
REMARK   14  A    between atoms: C_29  and  C_30
REMARK                            x       y       z     vdW  Elec       q    Type
REMARK                         _______ _______ _______ _____ _____    ______ ____
ROOT
ATOM      1  C   UNL     1       7.833   2.780   0.549  0.00  0.00    -0.015 A 
ATOM      2  C   UNL     1       6.944   3.840   0.439  0.00  0.00    +0.010 A 
ATOM      3  C   UNL     1       5.597   3.656   0.665  0.00  0.00    +0.047 A 
ATOM      4  C   UNL     1       5.118   2.397   1.008  0.00  0.00    +0.136 A 
ATOM      5  C   UNL     1       6.025   1.326   1.119  0.00  0.00    +0.021 A 
ATOM      6  C   UNL     1       7.386   1.534   0.885  0.00  0.00    +0.018 A 
ATOM      7  C   UNL     1       5.220   0.162   1.486  0.00  0.00    +0.063 A 
ATOM      8  C   UNL     1       3.937   0.601   1.566  0.00  0.00    +0.191 A 
ATOM      9  O   UNL     1       3.888   1.918   1.277  0.00  0.00    -0.450 OA
ENDROOT
BRANCH   1  12
ATOM     10  C   UNL     1      10.971   4.404  -0.925  0.00  0.00    -0.076 C 
ATOM     11  C   UNL     1       9.478   4.138  -0.719  0.00  0.00    +0.021 C 
ATOM     12  C   UNL     1       9.302   3.006   0.297  0.00  0.00    +0.088 C 
ATOM     13  C   UNL     1       9.992   3.393   1.608  0.00  0.00    +0.021 C 
ATOM     14  C   UNL     1      11.470   3.682   1.334  0.00  0.00    -0.076 C 
ATOM     15  N   UNL     1      11.572   4.796   0.368  0.00  0.00    +0.380 N 
ATOM     16  H   UNL     1      11.062   5.606   0.740  0.00  0.00    -0.082 HD
BRANCH  12  17
ATOM     17  O   UNL     1       9.888   1.808  -0.216  0.00  0.00    -0.384 OA
ATOM     18  H   UNL     1       9.814   1.049   0.378  0.00  0.00    +0.211 HD
ENDBRANCH  12  17
BRANCH  15  19
ATOM     19  C   UNL     1      12.988   5.169   0.174  0.00  0.00    -0.076 C 
BRANCH  19  21
ATOM     20  C   UNL     1      15.082   5.863   1.349  0.00  0.00    +0.005 C 
ATOM     21  C   UNL     1      13.617   5.463   1.538  0.00  0.00    -0.030 C 
BRANCH  21  22
ATOM     22  C   UNL     1      12.859   6.608   2.212  0.00  0.00    +0.005 C 
BRANCH  22  23
ATOM     23  C   UNL     1      13.407   6.820   3.625  0.00  0.00    +0.027 C 
BRANCH  23  24
ATOM     24  C   UNL     1      12.660   7.948   4.290  0.00  0.00    -0.028 C 
ATOM     25  C   UNL     1      11.991   7.730   5.394  0.00  0.00    -0.080 C 
ATOM     26  C   UNL     1      11.949   6.346   5.989  0.00  0.00    +0.038 C 
ATOM     27  C   UNL     1      11.263   8.863   6.071  0.00  0.00    +0.038 C 
ENDBRANCH  23  24
ENDBRANCH  22  23
ENDBRANCH  21  22
ENDBRANCH  19  21
ENDBRANCH  15  19
ENDBRANCH   1  12
BRANCH   8  28
ATOM     28  C   UNL     1       2.777  -0.233   1.910  0.00  0.00    +0.282 C 
ATOM     29  O   UNL     1       2.911  -1.434   2.048  0.00  0.00    -0.267 OA
ATOM     30  N   UNL     1       1.563   0.332   2.066  0.00  0.00    -0.292 N 
ATOM     31  C   UNL     1       1.378   1.758   1.787  0.00  0.00    +0.133 C 
BRANCH  30  32
ATOM     32  C   UNL     1       0.429  -0.480   2.515  0.00  0.00    +0.163 C 
BRANCH  32  33
ATOM     33  C   UNL     1       0.357  -0.453   4.020  0.00  0.00    +0.066 A 
ATOM     34  C   UNL     1      -0.443   0.436   4.662  0.00  0.00    +0.071 A 
ATOM     35  S   UNL     1      -0.120  -0.001   6.364  0.00  0.00    -0.084 S 
ATOM     36  C   UNL     1       1.018  -1.276   6.056  0.00  0.00    +0.156 A 
ATOM     37  N   UNL     1       1.072  -1.288   4.744  0.00  0.00    -0.251 NA
ENDBRANCH  32  33
ENDBRANCH  30  32
ENDBRANCH   8  28
TORSDOF 10
