REMARK  Name = ZINC67300399
REMARK  7 active torsions:
REMARK  status: ('A' for Active; 'I' for Inactive)
REMARK    1  A    between atoms: C_1  and  C_2
REMARK    2  A    between atoms: C_2  and  N_3
REMARK    3  A    between atoms: N_6  and  C_7
REMARK    4  A    between atoms: C_11  and  N_13
REMARK    5  A    between atoms: C_14  and  C_16
REMARK    6  A    between atoms: C_20  and  N_23
REMARK    7  A    between atoms: C_21  and  N_22
REMARK                            x       y       z     vdW  Elec       q    Type
REMARK                         _______ _______ _______ _____ _____    ______ ____
ROOT
ATOM      1  N   UNL     1      -5.844  -6.044   0.240  0.00  0.00    -0.281 N 
ATOM      2  C   UNL     1      -6.090  -7.161   0.954  0.00  0.00    +0.250 C 
ATOM      3  O   UNL     1      -5.184  -7.717   1.545  0.00  0.00    -0.270 OA
ATOM      4  H   UNL     1      -6.554  -5.634  -0.278  0.00  0.00    +0.155 HD
ENDROOT
BRANCH   2   5
ATOM      5  C   UNL     1      -7.457  -7.708   1.019  0.00  0.00    +0.063 A 
ATOM      6  C   UNL     1      -8.481  -7.135   0.259  0.00  0.00    +0.053 A 
ATOM      7  C   UNL     1      -9.758  -7.652   0.324  0.00  0.00    +0.126 A 
ATOM      8  C   UNL     1     -10.032  -8.739   1.142  0.00  0.00    +0.073 A 
ATOM      9  C   UNL     1      -9.032  -9.314   1.899  0.00  0.00    +0.150 A 
ATOM     10  C   UNL     1      -7.738  -8.810   1.841  0.00  0.00    +0.068 A 
ATOM     11  F   UNL     1     -10.746  -7.097  -0.411  0.00  0.00    -0.205 F 
BRANCH  10  12
ATOM     12  N   UNL     1      -6.728  -9.393   2.597  0.00  0.00    -0.356 N 
ATOM     13  H   UNL     1      -6.946  -9.861   3.418  0.00  0.00    +0.142 HD
ATOM     14  H   UNL     1      -5.805  -9.331   2.304  0.00  0.00    +0.142 HD
ENDBRANCH  10  12
BRANCH   9  15
ATOM     15  N   UNL     1      -9.336 -10.473   2.768  0.00  0.00    +0.058 N 
ATOM     16  O   UNL     1     -10.438 -10.970   2.749  0.00  0.00    -0.126 OA
ATOM     17  O   UNL     1      -8.482 -10.922   3.497  0.00  0.00    -0.126 OA
ENDBRANCH   9  15
ENDBRANCH   2   5
BRANCH   1  22
ATOM     18  C   UNL     1      -3.147  -3.540   0.202  0.00  0.00    +0.037 A 
ATOM     19  C   UNL     1      -2.029  -4.363   0.260  0.00  0.00    +0.023 A 
ATOM     20  C   UNL     1      -2.180  -5.735   0.312  0.00  0.00    +0.004 A 
ATOM     21  C   UNL     1      -3.443  -6.294   0.306  0.00  0.00    +0.023 A 
ATOM     22  C   UNL     1      -4.566  -5.478   0.247  0.00  0.00    +0.035 A 
ATOM     23  C   UNL     1      -4.417  -4.098   0.201  0.00  0.00    +0.046 A 
BRANCH  18  27
ATOM     24  N   UNL     1      -3.685  -0.016   0.794  0.00  0.00    -0.299 N 
ATOM     25  C   UNL     1      -3.878  -1.350   0.776  0.00  0.00    +0.304 C 
ATOM     26  O   UNL     1      -4.851  -1.831   1.324  0.00  0.00    -0.253 OA
ATOM     27  N   UNL     1      -2.993  -2.151   0.149  0.00  0.00    -0.269 N 
ATOM     28  H   UNL     1      -2.909   0.367   0.357  0.00  0.00    +0.150 HD
ATOM     29  H   UNL     1      -2.249  -1.763  -0.338  0.00  0.00    +0.156 HD
BRANCH  24  31
ATOM     30  C   UNL     1      -4.196   2.310   1.348  0.00  0.00    +0.024 C 
ATOM     31  C   UNL     1      -4.647   0.854   1.475  0.00  0.00    +0.102 C 
ENDBRANCH  24  31
ENDBRANCH  18  27
ENDBRANCH   1  22
TORSDOF 6
