REMARK  Name = ZINC39914275
REMARK  13 active torsions:
REMARK  status: ('A' for Active; 'I' for Inactive)
REMARK    1  A    between atoms: C_1  and  C_2
REMARK    2  A    between atoms: C_2  and  C_3
REMARK    3  A    between atoms: C_3  and  N_4
REMARK    4  A    between atoms: C_5  and  C_24
REMARK    5  A    between atoms: C_8  and  C_15
REMARK    6  A    between atoms: C_18  and  C_22
REMARK    7  A    between atoms: C_20  and  O_21
REMARK    8  A    between atoms: C_27  and  O_33
REMARK    9  A    between atoms: C_28  and  O_30
REMARK   10  A    between atoms: O_30  and  C_31
REMARK   11  A    between atoms: C_31  and  C_32
REMARK   12  A    between atoms: O_33  and  C_34
REMARK   13  A    between atoms: C_34  and  C_35
REMARK                            x       y       z     vdW  Elec       q    Type
REMARK                         _______ _______ _______ _____ _____    ______ ____
ROOT
ATOM      1  N   UNL     1      -0.371  -2.284  -0.024  0.00  0.00    -0.285 N 
ATOM      2  C   UNL     1      -0.754  -2.969  -1.265  0.00  0.00    +0.141 C 
ATOM      3  C   UNL     1      -1.135  -4.369  -0.868  0.00  0.00    +0.035 A 
ATOM      4  C   UNL     1      -1.583  -5.630  -1.276  0.00  0.00    +0.102 A 
ATOM      5  N   UNL     1      -1.669  -6.386  -0.199  0.00  0.00    -0.173 NA
ATOM      6  N   UNL     1      -1.320  -5.727   0.848  0.00  0.00    -0.272 N 
ATOM      7  H   UNL     1      -1.306  -6.082   1.751  0.00  0.00    +0.189 HD
ATOM      8  C   UNL     1      -0.972  -4.452   0.501  0.00  0.00    +0.126 A 
ATOM      9  C   UNL     1      -0.495  -3.155   0.994  0.00  0.00    +0.265 C 
ATOM     10  O   UNL     1      -0.250  -2.902   2.158  0.00  0.00    -0.268 OA
ENDROOT
BRANCH   4  11
ATOM     11  C   UNL     1      -1.902  -6.042  -2.666  0.00  0.00    +0.045 A 
ATOM     12  C   UNL     1      -1.880  -5.104  -3.695  0.00  0.00    +0.034 A 
ATOM     13  C   UNL     1      -2.177  -5.492  -4.987  0.00  0.00    +0.045 A 
ATOM     14  C   UNL     1      -2.499  -6.811  -5.262  0.00  0.00    -0.029 A 
ATOM     15  C   UNL     1      -2.523  -7.748  -4.247  0.00  0.00    +0.050 A 
ATOM     16  C   UNL     1      -2.221  -7.373  -2.948  0.00  0.00    +0.126 A 
ATOM     17  C   UNL     1      -2.823  -7.226  -6.674  0.00  0.00    +0.045 C 
ATOM     18 CL   UNL     1      -2.149  -4.323  -6.270  0.00  0.00    -0.083 Cl
BRANCH  16  19
ATOM     19  O   UNL     1      -2.240  -8.295  -1.950  0.00  0.00    -0.506 OA
ATOM     20  H   UNL     1      -3.099  -8.388  -1.516  0.00  0.00    +0.292 HD
ENDBRANCH  16  19
ENDBRANCH   4  11
BRANCH   2  21
ATOM     21  C   UNL     1       0.409  -2.998  -2.222  0.00  0.00    -0.019 A 
ATOM     22  C   UNL     1       0.224  -2.640  -3.545  0.00  0.00    +0.009 A 
ATOM     23  C   UNL     1       1.288  -2.665  -4.427  0.00  0.00    +0.050 A 
ATOM     24  C   UNL     1       2.544  -3.048  -3.986  0.00  0.00    +0.162 A 
ATOM     25  C   UNL     1       2.731  -3.408  -2.655  0.00  0.00    +0.162 A 
ATOM     26  C   UNL     1       1.661  -3.377  -1.775  0.00  0.00    +0.055 A 
BRANCH  25  27
ATOM     27  O   UNL     1       3.962  -3.785  -2.217  0.00  0.00    -0.489 OA
BRANCH  27  28
ATOM     28  C   UNL     1       4.057  -4.255  -0.871  0.00  0.00    +0.226 C 
ATOM     29  C   UNL     1       5.484  -4.734  -0.596  0.00  0.00    +0.048 C 
ENDBRANCH  27  28
ENDBRANCH  25  27
BRANCH  24  30
ATOM     30  O   UNL     1       3.592  -3.074  -4.852  0.00  0.00    -0.489 OA
BRANCH  30  31
ATOM     31  C   UNL     1       3.326  -2.692  -6.203  0.00  0.00    +0.226 C 
ATOM     32  C   UNL     1       4.615  -2.782  -7.022  0.00  0.00    +0.048 C 
ENDBRANCH  30  31
ENDBRANCH  24  30
ENDBRANCH   2  21
BRANCH   1  33
ATOM     33  C   UNL     1       0.077  -0.894   0.087  0.00  0.00    +0.109 C 
BRANCH  33  35
ATOM     34  C   UNL     1       2.064   0.619   0.045  0.00  0.00    +0.005 C 
ATOM     35  C   UNL     1       1.597  -0.833  -0.070  0.00  0.00    +0.016 C 
ENDBRANCH  33  35
ENDBRANCH   1  33
TORSDOF 9
