REMARK  Name = ZINC32388127
REMARK  5 active torsions:
REMARK  status: ('A' for Active; 'I' for Inactive)
REMARK    1  A    between atoms: C_1  and  C_2
REMARK    2  A    between atoms: C_4  and  C_7
REMARK    3  A    between atoms: C_7  and  S_8
REMARK    4  A    between atoms: S_8  and  C_9
REMARK    5  A    between atoms: C_16  and  C_19
REMARK                            x       y       z     vdW  Elec       q    Type
REMARK                         _______ _______ _______ _____ _____    ______ ____
ROOT
ATOM      1  C   UNL     1       2.766   5.309   1.420  0.00  0.00    +0.127 A 
ATOM      2  C   UNL     1       2.931   6.212   2.496  0.00  0.00    +0.018 A 
ATOM      3  C   UNL     1       2.619   5.882   3.819  0.00  0.00    +0.011 A 
ATOM      4  C   UNL     1       2.805   6.810   4.802  0.00  0.00    +0.001 A 
ATOM      5  C   UNL     1       3.301   8.077   4.509  0.00  0.00    +0.001 A 
ATOM      6  C   UNL     1       3.615   8.431   3.228  0.00  0.00    +0.011 A 
ATOM      7  C   UNL     1       3.435   7.504   2.199  0.00  0.00    +0.012 A 
ATOM      8  C   UNL     1       3.745   7.799   0.802  0.00  0.00    +0.101 A 
ATOM      9  N   UNL     1       3.538   6.851  -0.099  0.00  0.00    -0.148 NA
ATOM     10  N   UNL     1       3.087   5.690   0.197  0.00  0.00    -0.142 NA
ENDROOT
BRANCH   8  11
ATOM     11  C   UNL     1       4.275   9.122   0.405  0.00  0.00    +0.003 A 
ATOM     12  C   UNL     1       3.779   9.762  -0.732  0.00  0.00    +0.013 A 
ATOM     13  C   UNL     1       4.273  10.998  -1.095  0.00  0.00    +0.039 A 
ATOM     14  C   UNL     1       5.267  11.599  -0.340  0.00  0.00    +0.123 A 
ATOM     15  C   UNL     1       5.767  10.965   0.787  0.00  0.00    +0.039 A 
ATOM     16  C   UNL     1       5.276   9.732   1.161  0.00  0.00    +0.013 A 
ATOM     17  F   UNL     1       5.752  12.807  -0.703  0.00  0.00    -0.205 F 
ENDBRANCH   8  11
BRANCH   1  18
ATOM     18  S   UNL     1       2.144   3.686   1.710  0.00  0.00    -0.096 S 
BRANCH  18  19
ATOM     19  C   UNL     1       2.160   3.037   0.021  0.00  0.00    +0.153 C 
BRANCH  19  23
ATOM     20  C   UNL     1      -0.708  -1.165  -0.150  0.00  0.00    +0.069 C 
ATOM     21  C   UNL     1       0.441  -0.195  -0.048  0.00  0.00    +0.081 A 
ATOM     22  C   UNL     1       0.368   1.215  -0.123  0.00  0.00    +0.071 A 
ATOM     23  C   UNL     1       1.653   1.618   0.023  0.00  0.00    +0.148 A 
ATOM     24  O   UNL     1       2.385   0.504   0.170  0.00  0.00    -0.359 OA
ATOM     25  N   UNL     1       1.696  -0.489   0.129  0.00  0.00    -0.083 NA
ENDBRANCH  19  23
ENDBRANCH  18  19
ENDBRANCH   1  18
TORSDOF 4
