REMARK  Name = ZINC39656744
REMARK  5 active torsions:
REMARK  status: ('A' for Active; 'I' for Inactive)
REMARK    1  A    between atoms: C_1  and  C_2
REMARK    2  A    between atoms: C_2  and  C_4
REMARK    3  A    between atoms: C_2  and  N_11
REMARK    4  A    between atoms: C_12  and  C_14
REMARK    5  A    between atoms: C_25  and  C_27
REMARK                            x       y       z     vdW  Elec       q    Type
REMARK                         _______ _______ _______ _____ _____    ______ ____
ROOT
ATOM      1  C   UNL     1      -3.465  -1.164  -1.134  0.00  0.00    +0.100 C 
ATOM      2  C   UNL     1      -3.486  -2.652  -0.717  0.00  0.00    +0.121 C 
ATOM      3  N   UNL     1      -4.545  -3.261  -1.556  0.00  0.00    -0.300 N 
ATOM      4  C   UNL     1      -4.383  -2.614  -2.881  0.00  0.00    +0.115 C 
ATOM      5  C   UNL     1      -4.054  -1.143  -2.554  0.00  0.00    -0.004 C 
ATOM      6  C   UNL     1      -5.324  -0.298  -2.587  0.00  0.00    -0.010 C 
ATOM      7  C   UNL     1      -5.859  -0.246  -4.021  0.00  0.00    -0.082 C 
ATOM      8  N   UNL     1      -4.840   0.331  -4.905  0.00  0.00    +0.379 N 
ATOM      9  C   UNL     1      -3.656  -0.537  -4.939  0.00  0.00    -0.082 C 
ATOM     10  C   UNL     1      -3.028  -0.601  -3.545  0.00  0.00    -0.010 C 
ATOM     11  C   UNL     1      -5.450  -4.192  -1.197  0.00  0.00    +0.212 C 
ATOM     12  O   UNL     1      -6.260  -4.595  -2.006  0.00  0.00    -0.276 OA
ATOM     13  C   UNL     1      -5.457  -4.734   0.209  0.00  0.00    +0.109 C 
ATOM     14  H   UNL     1      -5.216   0.421  -5.837  0.00  0.00    -0.086 HD
ATOM     15  H   UNL     1      -4.576   1.243  -4.563  0.00  0.00    -0.086 HD
ENDROOT
BRANCH   1  17
ATOM     16  N   UNL     1      -1.812   0.661  -0.903  0.00  0.00    -0.308 N 
ATOM     17  C   UNL     1      -2.051  -0.643  -1.145  0.00  0.00    +0.219 C 
ATOM     18  O   UNL     1      -1.128  -1.397  -1.371  0.00  0.00    -0.275 OA
ATOM     19  H   UNL     1      -2.550   1.264  -0.722  0.00  0.00    +0.149 HD
BRANCH  16  21
ATOM     20  C   UNL     1      -0.031   1.511  -2.348  0.00  0.00    +0.033 C 
ATOM     21  C   UNL     1      -0.438   1.169  -0.913  0.00  0.00    +0.100 C 
BRANCH  21  22
ATOM     22  C   UNL     1      -0.352   2.406  -0.058  0.00  0.00    -0.027 A 
ATOM     23  C   UNL     1      -1.375   3.336  -0.084  0.00  0.00    +0.006 A 
ATOM     24  C   UNL     1      -1.298   4.471   0.701  0.00  0.00    +0.015 A 
ATOM     25  C   UNL     1      -0.196   4.677   1.512  0.00  0.00    +0.018 A 
ATOM     26  C   UNL     1       0.827   3.747   1.537  0.00  0.00    +0.015 A 
ATOM     27  C   UNL     1       0.746   2.609   0.756  0.00  0.00    +0.006 A 
ATOM     28 BR   UNL     1      -0.089   6.230   2.585  0.00  0.00    -0.050 Br
ENDBRANCH  21  22
ENDBRANCH  16  21
ENDBRANCH   1  17
TORSDOF 3
