REMARK  Name = ZINC34747584
REMARK  8 active torsions:
REMARK  status: ('A' for Active; 'I' for Inactive)
REMARK    1  A    between atoms: C_1  and  C_2
REMARK    2  A    between atoms: C_2  and  C_3
REMARK    3  A    between atoms: C_3  and  C_4
REMARK    4  A    between atoms: C_4  and  N_5
REMARK    5  A    between atoms: N_18  and  C_21
REMARK    6  A    between atoms: C_21  and  C_22
REMARK    7  A    between atoms: N_24  and  C_25
REMARK    8  A    between atoms: C_30  and  C_31
REMARK                            x       y       z     vdW  Elec       q    Type
REMARK                         _______ _______ _______ _____ _____    ______ ____
ROOT
ATOM      1  N   UNL     1       1.080  -4.186   3.137  0.00  0.00    -0.280 N 
ATOM      2  C   UNL     1       2.386  -4.507   3.184  0.00  0.00    +0.264 A 
ATOM      3  O   UNL     1       2.747  -5.657   2.998  0.00  0.00    -0.267 OA
ATOM      4  C   UNL     1       3.345  -3.480   3.455  0.00  0.00    +0.076 A 
ATOM      5  C   UNL     1       4.801  -3.601   3.553  0.00  0.00    -0.023 A 
ATOM      6  C   UNL     1       5.492  -2.474   3.820  0.00  0.00    -0.004 A 
ATOM      7  S   UNL     1       4.264  -1.203   3.954  0.00  0.00    -0.073 S 
ATOM      8  C   UNL     1       2.822  -2.192   3.652  0.00  0.00    +0.117 A 
ATOM      9  N   UNL     1       1.519  -1.942   3.592  0.00  0.00    -0.208 NA
ATOM     10  C   UNL     1       0.658  -2.905   3.336  0.00  0.00    +0.202 A 
ATOM     11  N   UNL     1      -0.682  -2.616   3.274  0.00  0.00    -0.304 N 
ATOM     12  C   UNL     1      -1.317  -2.241   2.001  0.00  0.00    +0.089 C 
ATOM     13  C   UNL     1      -2.120  -0.954   2.219  0.00  0.00    -0.059 C 
ATOM     14  N   UNL     1      -3.059  -1.146   3.331  0.00  0.00    +0.387 N 
ATOM     15  C   UNL     1      -2.317  -1.366   4.580  0.00  0.00    -0.059 C 
ATOM     16  C   UNL     1      -1.526  -2.679   4.477  0.00  0.00    +0.089 C 
ATOM     17  C   UNL     1       6.976  -2.334   3.970  0.00  0.00    +0.043 C 
ATOM     18  C   UNL     1       7.580  -3.734   4.144  0.00  0.00    +0.005 C 
ATOM     19  C   UNL     1       6.998  -4.657   3.070  0.00  0.00    +0.005 C 
ATOM     20  C   UNL     1       5.523  -4.933   3.365  0.00  0.00    +0.037 C 
ATOM     21  H   UNL     1      -3.642  -1.948   3.143  0.00  0.00    -0.081 HD
ENDROOT
BRANCH   1  22
ATOM     22  C   UNL     1       0.093  -5.233   2.860  0.00  0.00    +0.128 C 
BRANCH  22  23
ATOM     23  C   UNL     1      -0.073  -5.391   1.347  0.00  0.00    +0.021 C 
BRANCH  23  25
ATOM     24  C   UNL     1      -1.269  -6.641  -0.454  0.00  0.00    +0.004 C 
ATOM     25  C   UNL     1      -1.104  -6.483   1.058  0.00  0.00    -0.002 C 
ENDBRANCH  23  25
ENDBRANCH  22  23
ENDBRANCH   1  22
BRANCH  14  26
ATOM     26  C   UNL     1      -3.903   0.048   3.469  0.00  0.00    +0.019 C 
BRANCH  26  27
ATOM     27  C   UNL     1      -4.948  -0.195   4.528  0.00  0.00    +0.201 C 
ATOM     28  O   UNL     1      -4.985  -1.258   5.110  0.00  0.00    -0.278 OA
ATOM     29  N   UNL     1      -5.840   0.770   4.827  0.00  0.00    -0.287 N 
ATOM     30  H   UNL     1      -5.857   1.592   4.312  0.00  0.00    +0.155 HD
BRANCH  29  31
ATOM     31  C   UNL     1      -6.742   0.586   5.881  0.00  0.00    +0.036 A 
ATOM     32  C   UNL     1      -7.218  -0.685   6.176  0.00  0.00    +0.023 A 
ATOM     33  C   UNL     1      -8.108  -0.864   7.217  0.00  0.00    +0.002 A 
ATOM     34  C   UNL     1      -8.525   0.222   7.965  0.00  0.00    +0.000 A 
ATOM     35  C   UNL     1      -8.053   1.488   7.674  0.00  0.00    +0.005 A 
ATOM     36  C   UNL     1      -7.158   1.673   6.639  0.00  0.00    -0.029 A 
ATOM     37  C   UNL     1      -6.639   3.053   6.327  0.00  0.00    +0.045 C 
ENDBRANCH  29  31
ENDBRANCH  26  27
ENDBRANCH  14  26
TORSDOF 6
