REMARK  Name = ZINC09637349
REMARK  11 active torsions:
REMARK  status: ('A' for Active; 'I' for Inactive)
REMARK    1  A    between atoms: C_1  and  C_2
REMARK    2  A    between atoms: C_2  and  C_4
REMARK    3  A    between atoms: C_2  and  O_16
REMARK    4  A    between atoms: C_4  and  C_6
REMARK    5  A    between atoms: O_16  and  C_17
REMARK    6  A    between atoms: C_17  and  C_19
REMARK    7  A    between atoms: C_19  and  C_20
REMARK    8  A    between atoms: C_20  and  C_21
REMARK    9  A    between atoms: N_24  and  C_32
REMARK   10  A    between atoms: C_35  and  O_38
REMARK   11  A    between atoms: O_38  and  C_39
REMARK                            x       y       z     vdW  Elec       q    Type
REMARK                         _______ _______ _______ _____ _____    ______ ____
ROOT
ATOM      1  C   UNL     1      -0.759   0.364  -0.078  0.00  0.00    +0.072 C 
ENDROOT
BRANCH   1   2
ATOM      2  C   UNL     1      -1.090   1.248  -1.253  0.00  0.00    +0.107 A 
ATOM      3  C   UNL     1      -0.605   0.896  -2.591  0.00  0.00    +0.278 A 
ATOM      4  O   UNL     1       0.065  -0.107  -2.759  0.00  0.00    -0.265 OA
ATOM      5  N   UNL     1      -0.910   1.698  -3.635  0.00  0.00    -0.274 N 
ATOM      6  C   UNL     1      -1.672   2.828  -3.410  0.00  0.00    +0.075 A 
ATOM      7  C   UNL     1      -2.003   3.674  -4.464  0.00  0.00    +0.028 A 
ATOM      8  C   UNL     1      -2.763   4.798  -4.227  0.00  0.00    +0.002 A 
ATOM      9  C   UNL     1      -3.202   5.095  -2.943  0.00  0.00    +0.002 A 
ATOM     10  C   UNL     1      -2.890   4.280  -1.895  0.00  0.00    +0.030 A 
ATOM     11  C   UNL     1      -2.117   3.128  -2.109  0.00  0.00    +0.088 A 
ATOM     12  N   UNL     1      -1.811   2.319  -1.077  0.00  0.00    -0.245 NA
BRANCH   5  13
ATOM     13  C   UNL     1      -0.462   1.387  -4.924  0.00  0.00    +0.050 A 
ATOM     14  C   UNL     1      -1.240   0.595  -5.759  0.00  0.00    +0.030 A 
ATOM     15  C   UNL     1      -0.799   0.294  -7.032  0.00  0.00    +0.047 A 
ATOM     16  C   UNL     1       0.425   0.773  -7.474  0.00  0.00    +0.120 A 
ATOM     17  C   UNL     1       1.206   1.561  -6.639  0.00  0.00    +0.047 A 
ATOM     18  C   UNL     1       0.764   1.867  -5.368  0.00  0.00    +0.030 A 
BRANCH  16  19
ATOM     19  O   UNL     1       0.861   0.472  -8.726  0.00  0.00    -0.495 OA
ATOM     20  C   UNL     1       0.007  -0.343  -9.531  0.00  0.00    +0.277 C 
ENDBRANCH  16  19
ENDBRANCH   5  13
ENDBRANCH   1   2
BRANCH   1  21
ATOM     21  C   UNL     1      -1.380   0.951   1.192  0.00  0.00    +0.127 C 
BRANCH  21  22
ATOM     22  C   UNL     1      -1.049   0.067   2.367  0.00  0.00    +0.308 C 
ATOM     23  O   UNL     1      -0.385  -0.929   2.205  0.00  0.00    -0.251 OA
BRANCH  22  24
ATOM     24  O   UNL     1      -1.492   0.387   3.593  0.00  0.00    -0.454 OA
BRANCH  24  26
ATOM     25  C   UNL     1      -2.211  -1.588   4.823  0.00  0.00    +0.061 C 
ATOM     26  C   UNL     1      -1.134  -0.510   4.677  0.00  0.00    +0.244 C 
BRANCH  26  27
ATOM     27  C   UNL     1      -1.029   0.272   5.962  0.00  0.00    +0.205 C 
ATOM     28  O   UNL     1      -1.568   1.355   6.059  0.00  0.00    -0.288 OA
BRANCH  27  29
ATOM     29  C   UNL     1      -0.300  -0.258   7.056  0.00  0.00    +0.046 A 
ATOM     30  C   UNL     1       0.359  -1.468   7.104  0.00  0.00    +0.095 A 
ATOM     31  N   UNL     1       0.938  -1.620   8.310  0.00  0.00    -0.360 N 
ATOM     32  H   UNL     1       1.460  -2.393   8.577  0.00  0.00    +0.165 HD
ATOM     33  C   UNL     1       0.683  -0.528   9.115  0.00  0.00    +0.047 A 
ATOM     34  C   UNL     1      -0.099   0.372   8.375  0.00  0.00    +0.010 A 
ATOM     35  C   UNL     1      -0.508   1.574   8.945  0.00  0.00    +0.011 A 
ATOM     36  C   UNL     1      -0.141   1.876  10.239  0.00  0.00    +0.001 A 
ATOM     37  C   UNL     1       0.631   0.987  10.972  0.00  0.00    +0.002 A 
ATOM     38  C   UNL     1       1.043  -0.206  10.419  0.00  0.00    +0.026 A 
ENDBRANCH  27  29
ENDBRANCH  26  27
ENDBRANCH  24  26
ENDBRANCH  22  24
ENDBRANCH  21  22
ENDBRANCH   1  21
TORSDOF 9
