REMARK  Name = ZINC50441321
REMARK  7 active torsions:
REMARK  status: ('A' for Active; 'I' for Inactive)
REMARK    1  A    between atoms: C_2  and  N_16
REMARK    2  A    between atoms: C_5  and  O_8
REMARK    3  A    between atoms: O_8  and  C_9
REMARK    4  A    between atoms: C_9  and  C_10
REMARK    5  A    between atoms: C_10  and  C_12
REMARK    6  A    between atoms: C_10  and  O_14
REMARK    7  A    between atoms: C_12  and  N_13
REMARK                            x       y       z     vdW  Elec       q    Type
REMARK                         _______ _______ _______ _____ _____    ______ ____
ROOT
ATOM      1  C   UNL     1      -0.017   1.378   0.010  0.00  0.00    +0.051 A 
ATOM      2  C   UNL     1       1.170   2.087   0.002  0.00  0.00    +0.129 A 
ATOM      3  C   UNL     1       2.379   1.416  -0.013  0.00  0.00    +0.051 A 
ATOM      4  C   UNL     1       2.404   0.034  -0.021  0.00  0.00    +0.063 A 
ATOM      5  C   UNL     1       1.214  -0.680  -0.013  0.00  0.00    +0.149 A 
ATOM      6  C   UNL     1       0.002  -0.004   0.002  0.00  0.00    +0.063 A 
ATOM      7 BR   UNL     1      -1.622  -0.973   0.013  0.00  0.00    -0.046 Br
ATOM      8 BR   UNL     1       4.058  -0.883  -0.044  0.00  0.00    -0.046 Br
ENDROOT
BRANCH   2   9
ATOM      9  N   UNL     1       1.147   3.567   0.010  0.00  0.00    +0.056 N 
ATOM     10  O   UNL     1       0.091   4.155   0.023  0.00  0.00    -0.126 OA
ATOM     11  O   UNL     1       2.184   4.188   0.004  0.00  0.00    -0.126 OA
ENDBRANCH   2   9
BRANCH   5  12
ATOM     12  O   UNL     1       1.235  -2.039  -0.022  0.00  0.00    -0.487 OA
BRANCH  12  13
ATOM     13  C   UNL     1       1.259  -2.696   1.247  0.00  0.00    +0.258 C 
BRANCH  13  14
ATOM     14  C   UNL     1       1.280  -4.211   1.038  0.00  0.00    +0.134 C 
BRANCH  14  15
ATOM     15  O   UNL     1       2.501  -4.586   0.396  0.00  0.00    -0.390 OA
ATOM     16  H   UNL     1       3.295  -4.355   0.897  0.00  0.00    +0.210 HD
ENDBRANCH  14  15
BRANCH  14  17
ATOM     17  C   UNL     1       1.179  -4.915   2.392  0.00  0.00    -0.051 C 
BRANCH  17  18
ATOM     18  N   UNL     1       1.200  -6.370   2.191  0.00  0.00    +0.380 N 
ATOM     19  H   UNL     1       0.419  -6.641   1.612  0.00  0.00    -0.090 HD
ATOM     20  H   UNL     1       2.062  -6.634   1.738  0.00  0.00    -0.090 HD
ATOM     21  H   UNL     1       1.134  -6.834   3.084  0.00  0.00    -0.090 HD
ENDBRANCH  17  18
ENDBRANCH  14  17
ENDBRANCH  13  14
ENDBRANCH  12  13
ENDBRANCH   5  12
TORSDOF 7
