REMARK  Name = ZINC10612648
REMARK  7 active torsions:
REMARK  status: ('A' for Active; 'I' for Inactive)
REMARK    1  A    between atoms: C_1  and  C_2
REMARK    2  A    between atoms: C_10  and  N_15
REMARK    3  A    between atoms: C_11  and  C_12
REMARK    4  A    between atoms: C_16  and  C_18
REMARK    5  A    between atoms: C_18  and  S_19
REMARK    6  A    between atoms: S_19  and  C_20
REMARK    7  A    between atoms: C_20  and  C_21
REMARK                            x       y       z     vdW  Elec       q    Type
REMARK                         _______ _______ _______ _____ _____    ______ ____
ROOT
ATOM      1  C   UNL     1       7.101  -3.031  -1.849  0.00  0.00    +0.109 C 
ATOM      2  C   UNL     1       7.536  -1.777  -1.136  0.00  0.00    +0.213 C 
ATOM      3  O   UNL     1       8.649  -1.331  -1.317  0.00  0.00    -0.276 OA
ATOM      4  N   UNL     1       6.687  -1.151  -0.296  0.00  0.00    -0.297 N 
ATOM      5  C   UNL     1       7.082   0.075   0.413  0.00  0.00    +0.113 C 
ATOM      6  C   UNL     1       6.211   1.242  -0.056  0.00  0.00    +0.056 C 
ATOM      7  C   UNL     1       4.750   0.814  -0.040  0.00  0.00    -0.020 A 
ATOM      8  C   UNL     1       4.400  -0.491  -0.043  0.00  0.00    +0.013 A 
ATOM      9  S   UNL     1       2.631  -0.489  -0.026  0.00  0.00    -0.076 S 
ATOM     10  C   UNL     1       2.354   1.221  -0.014  0.00  0.00    +0.084 A 
ATOM     11  C   UNL     1       3.637   1.749  -0.029  0.00  0.00    +0.068 A 
ATOM     12  C   UNL     1       5.326  -1.669  -0.055  0.00  0.00    +0.150 C 
ENDROOT
BRANCH  11  13
ATOM     13  C   UNL     1       3.862   3.198  -0.029  0.00  0.00    +0.244 C 
ATOM     14  O   UNL     1       3.969   3.798   1.024  0.00  0.00    -0.270 OA
ATOM     15  N   UNL     1       3.951   3.866  -1.197  0.00  0.00    -0.325 N 
ATOM     16  H   UNL     1       3.865   3.388  -2.037  0.00  0.00    +0.145 HD
ATOM     17  H   UNL     1       4.100   4.824  -1.197  0.00  0.00    +0.145 HD
ENDBRANCH  11  13
BRANCH  10  18
ATOM     18  N   UNL     1       1.143   1.898   0.001  0.00  0.00    -0.279 N 
ATOM     19  C   UNL     1      -0.014   1.209   0.009  0.00  0.00    +0.227 C 
ATOM     20  O   UNL     1       0.002  -0.004   0.002  0.00  0.00    -0.275 OA
ATOM     21  H   UNL     1       1.130   2.868   0.007  0.00  0.00    +0.155 HD
BRANCH  19  22
ATOM     22  C   UNL     1      -1.330   1.944   0.019  0.00  0.00    +0.165 C 
BRANCH  22  23
ATOM     23  S   UNL     1      -2.692   0.747   0.019  0.00  0.00    -0.147 S 
BRANCH  23  24
ATOM     24  C   UNL     1      -4.184   1.779   0.032  0.00  0.00    +0.104 C 
BRANCH  24  25
ATOM     25  C   UNL     1      -5.405   0.897   0.033  0.00  0.00    -0.038 A 
ATOM     26  C   UNL     1      -5.975   0.503  -1.164  0.00  0.00    +0.004 A 
ATOM     27  C   UNL     1      -7.093  -0.310  -1.163  0.00  0.00    +0.000 A 
ATOM     28  C   UNL     1      -7.647  -0.721   0.034  0.00  0.00    +0.000 A 
ATOM     29  C   UNL     1      -7.081  -0.323   1.231  0.00  0.00    +0.000 A 
ATOM     30  C   UNL     1      -5.960   0.486   1.230  0.00  0.00    +0.004 A 
ENDBRANCH  24  25
ENDBRANCH  23  24
ENDBRANCH  22  23
ENDBRANCH  19  22
ENDBRANCH  10  18
TORSDOF 6
