REMARK  Name = ZINC12766217
REMARK  14 active torsions:
REMARK  status: ('A' for Active; 'I' for Inactive)
REMARK    1  A    between atoms: C_1  and  C_2
REMARK    2  A    between atoms: C_2  and  C_3
REMARK    3  A    between atoms: C_12  and  C_13
REMARK    4  A    between atoms: C_13  and  C_15
REMARK    5  A    between atoms: C_15  and  S_16
REMARK    6  A    between atoms: S_16  and  C_17
REMARK    7  A    between atoms: C_21  and  C_33
REMARK    8  A    between atoms: N_27  and  C_28
REMARK    9  A    between atoms: C_28  and  C_29
REMARK   10  A    between atoms: C_29  and  C_30
REMARK   11  A    between atoms: C_30  and  O_31
REMARK   12  A    between atoms: O_31  and  C_32
REMARK   13  A    between atoms: C_33  and  O_35
REMARK   14  A    between atoms: O_35  and  C_36
REMARK                            x       y       z     vdW  Elec       q    Type
REMARK                         _______ _______ _______ _____ _____    ______ ____
ROOT
ATOM      1  C   UNL     1       6.506   3.784  -0.041  0.00  0.00    +0.173 A 
ATOM      2  N   UNL     1       5.576   4.707  -0.026  0.00  0.00    -0.223 NA
ATOM      3  C   UNL     1       5.886   6.024  -0.022  0.00  0.00    +0.080 A 
ATOM      4  C   UNL     1       4.893   7.007  -0.006  0.00  0.00    +0.043 A 
ATOM      5  C   UNL     1       5.258   8.348  -0.002  0.00  0.00    +0.061 A 
ATOM      6  C   UNL     1       6.610   8.716  -0.013  0.00  0.00    +0.016 A 
ATOM      7  C   UNL     1       7.589   7.764  -0.028  0.00  0.00    +0.016 A 
ATOM      8  C   UNL     1       7.245   6.413  -0.033  0.00  0.00    +0.065 A 
ATOM      9  C   UNL     1       8.268   5.355  -0.049  0.00  0.00    +0.262 A 
ATOM     10  O   UNL     1       9.454   5.625  -0.059  0.00  0.00    -0.267 OA
ATOM     11  N   UNL     1       7.841   4.071  -0.046  0.00  0.00    -0.287 N 
ENDROOT
BRANCH   5  12
ATOM     12  C   UNL     1       4.212   9.394   0.015  0.00  0.00    +0.339 C 
ATOM     13  O   UNL     1       3.039   9.080   0.025  0.00  0.00    -0.245 OA
BRANCH  12  14
ATOM     14  O   UNL     1       4.561  10.695   0.019  0.00  0.00    -0.464 OA
ATOM     15  C   UNL     1       3.482  11.667   0.035  0.00  0.00    +0.280 C 
ENDBRANCH  12  14
ENDBRANCH   5  12
BRANCH   1  16
ATOM     16  S   UNL     1       6.011   2.093  -0.045  0.00  0.00    -0.080 S 
BRANCH  16  17
ATOM     17  C   UNL     1       4.212   2.292  -0.026  0.00  0.00    +0.157 C 
BRANCH  17  18
ATOM     18  C   UNL     1       3.556   0.935  -0.027  0.00  0.00    +0.175 C 
ATOM     19  O   UNL     1       4.239  -0.069  -0.040  0.00  0.00    -0.291 OA
BRANCH  18  29
ATOM     20  C   UNL     1      -1.002  -0.967   0.006  0.00  0.00    -0.024 A 
ATOM     21  C   UNL     1      -0.671  -2.305  -0.004  0.00  0.00    +0.005 A 
ATOM     22  C   UNL     1       0.657  -2.705  -0.019  0.00  0.00    +0.001 A 
ATOM     23  C   UNL     1       1.665  -1.766  -0.023  0.00  0.00    +0.011 A 
ATOM     24  C   UNL     1       1.345  -0.411  -0.013  0.00  0.00    +0.010 A 
ATOM     25  C   UNL     1       0.002  -0.004   0.002  0.00  0.00    +0.050 A 
ATOM     26  N   UNL     1      -0.017   1.376   0.010  0.00  0.00    -0.360 N 
ATOM     27  H   UNL     1      -0.822   1.917   0.017  0.00  0.00    +0.165 HD
ATOM     28  C   UNL     1       1.236   1.869   0.000  0.00  0.00    +0.095 A 
ATOM     29  C   UNL     1       2.143   0.831  -0.014  0.00  0.00    +0.043 A 
BRANCH  20  31
ATOM     30  C   UNL     1      -2.917  -0.278  -1.409  0.00  0.00    +0.009 C 
ATOM     31  C   UNL     1      -2.449  -0.548   0.022  0.00  0.00    +0.034 C 
ENDBRANCH  20  31
ENDBRANCH  18  29
ENDBRANCH  17  18
ENDBRANCH  16  17
ENDBRANCH   1  16
BRANCH  11  32
ATOM     32  C   UNL     1       8.819   2.980  -0.057  0.00  0.00    +0.129 C 
BRANCH  32  33
ATOM     33  C   UNL     1       9.152   2.607  -1.502  0.00  0.00    +0.050 C 
BRANCH  33  34
ATOM     34  C   UNL     1      10.173   1.468  -1.513  0.00  0.00    +0.161 C 
BRANCH  34  35
ATOM     35  O   UNL     1      10.484   1.119  -2.863  0.00  0.00    -0.383 OA
ATOM     36  C   UNL     1      11.434   0.059  -2.986  0.00  0.00    +0.193 C 
ENDBRANCH  34  35
ENDBRANCH  33  34
ENDBRANCH  32  33
ENDBRANCH  11  32
TORSDOF 11
