REMARK  Name = ZINC04175584
REMARK  7 active torsions:
REMARK  status: ('A' for Active; 'I' for Inactive)
REMARK    1  A    between atoms: C_1  and  C_2
REMARK    2  A    between atoms: C_5  and  O_31
REMARK    3  A    between atoms: C_19  and  C_30
REMARK    4  A    between atoms: C_24  and  C_25
REMARK    5  A    between atoms: C_24  and  O_29
REMARK    6  A    between atoms: C_25  and  C_27
REMARK    7  A    between atoms: C_27  and  O_28
REMARK                            x       y       z     vdW  Elec       q    Type
REMARK                         _______ _______ _______ _____ _____    ______ ____
ROOT
ATOM      1  C   UNL     1       0.362   0.868   0.470  0.00  0.00    +0.012 C 
ATOM      2  C   UNL     1       0.292  -0.639   0.219  0.00  0.00    -0.019 C 
ATOM      3  C   UNL     1      -1.171  -1.086   0.203  0.00  0.00    +0.010 C 
ATOM      4  C   UNL     1      -1.243  -2.594  -0.042  0.00  0.00    +0.032 C 
ATOM      5  C   UNL     1      -0.498  -3.328   1.076  0.00  0.00    +0.115 C 
ATOM      6  C   UNL     1       0.966  -2.885   1.087  0.00  0.00    +0.035 C 
ATOM      7  C   UNL     1       1.041  -1.377   1.332  0.00  0.00    -0.002 C 
ATOM      8  C   UNL     1       2.506  -0.936   1.349  0.00  0.00    +0.004 C 
ATOM      9  C   UNL     1       3.155  -1.243  -0.004  0.00  0.00    +0.005 C 
ATOM     10  C   UNL     1       2.400  -0.495  -1.102  0.00  0.00    +0.003 C 
ATOM     11  C   UNL     1       0.944  -0.963  -1.125  0.00  0.00    +0.065 C 
ATOM     12  C   UNL     1       0.247  -0.205  -2.234  0.00  0.00    +0.138 C 
ATOM     13  O   UNL     1      -0.743   0.452  -2.021  0.00  0.00    -0.297 OA
ATOM     14  C   UNL     1       0.841  -0.306  -3.617  0.00  0.00    +0.084 C 
ATOM     15  C   UNL     1       2.328   0.065  -3.592  0.00  0.00    +0.013 C 
ATOM     16  C   UNL     1       3.049  -0.670  -2.447  0.00  0.00    +0.002 C 
ATOM     17  C   UNL     1       3.098  -2.134  -2.916  0.00  0.00    +0.008 C 
ATOM     18  C   UNL     1       3.398  -2.014  -4.428  0.00  0.00    +0.043 C 
ATOM     19  C   UNL     1       2.958  -0.582  -4.856  0.00  0.00    +0.132 C 
ATOM     20  C   UNL     1       2.537   1.580  -3.556  0.00  0.00    +0.015 C 
ENDROOT
BRANCH  19  21
ATOM     21  C   UNL     1       4.130   0.239  -5.329  0.00  0.00    +0.190 C 
ATOM     22  O   UNL     1       5.233   0.029  -4.884  0.00  0.00    -0.292 OA
BRANCH  21  23
ATOM     23  C   UNL     1       3.925   1.322  -6.356  0.00  0.00    +0.233 C 
BRANCH  23  24
ATOM     24  O   UNL     1       5.176   1.953  -6.639  0.00  0.00    -0.387 OA
ATOM     25  H   UNL     1       5.120   2.662  -7.294  0.00  0.00    +0.210 HD
ENDBRANCH  23  24
ENDBRANCH  21  23
ENDBRANCH  19  21
BRANCH  19  26
ATOM     26  O   UNL     1       1.980  -0.687  -5.893  0.00  0.00    -0.380 OA
ATOM     27  H   UNL     1       2.314  -1.084  -6.710  0.00  0.00    +0.211 HD
ENDBRANCH  19  26
BRANCH   5  28
ATOM     28  O   UNL     1      -0.568  -4.737   0.850  0.00  0.00    -0.392 OA
ATOM     29  H   UNL     1      -1.469  -5.088   0.830  0.00  0.00    +0.210 HD
ENDBRANCH   5  28
TORSDOF 5
