REMARK  Name = ZINC38971888
REMARK  5 active torsions:
REMARK  status: ('A' for Active; 'I' for Inactive)
REMARK    1  A    between atoms: N_11  and  C_26
REMARK    2  A    between atoms: C_12  and  N_25
REMARK    3  A    between atoms: C_14  and  C_16
REMARK    4  A    between atoms: C_26  and  C_27
REMARK    5  A    between atoms: C_27  and  O_28
REMARK                            x       y       z     vdW  Elec       q    Type
REMARK                         _______ _______ _______ _____ _____    ______ ____
ROOT
ATOM      1  C   UNL     1       0.277   1.808   0.134  0.00  0.00    +0.002 A 
ATOM      2  C   UNL     1       1.516   2.445   0.168  0.00  0.00    +0.002 A 
ATOM      3  C   UNL     1       2.672   1.729   0.140  0.00  0.00    +0.030 A 
ATOM      4  C   UNL     1       2.623   0.325   0.076  0.00  0.00    +0.091 A 
ATOM      5  C   UNL     1       1.363  -0.322   0.042  0.00  0.00    +0.090 A 
ATOM      6  C   UNL     1       0.190   0.451   0.073  0.00  0.00    +0.030 A 
ATOM      7  N   UNL     1       1.310  -1.658  -0.018  0.00  0.00    -0.246 NA
ATOM      8  C   UNL     1       2.420  -2.357  -0.046  0.00  0.00    +0.092 A 
ATOM      9  C   UNL     1       3.675  -1.728  -0.013  0.00  0.00    +0.143 A 
ATOM     10  N   UNL     1       3.743  -0.403   0.047  0.00  0.00    -0.229 NA
ATOM     11  N   UNL     1       4.708  -2.651  -0.051  0.00  0.00    -0.325 N 
ATOM     12  C   UNL     1       4.172  -4.013  -0.115  0.00  0.00    +0.031 C 
ATOM     13  C   UNL     1       2.643  -3.852  -0.113  0.00  0.00    +0.109 C 
ENDROOT
BRANCH  13  14
ATOM     14  C   UNL     1       2.053  -4.415  -1.381  0.00  0.00    +0.117 A 
ATOM     15  N   UNL     1       1.518  -5.596  -1.493  0.00  0.00    -0.232 NA
ATOM     16  C   UNL     1       1.087  -5.783  -2.767  0.00  0.00    +0.089 A 
ATOM     17  C   UNL     1       0.454  -6.840  -3.425  0.00  0.00    +0.030 A 
ATOM     18  C   UNL     1       0.138  -6.726  -4.749  0.00  0.00    +0.002 A 
ATOM     19  C   UNL     1       0.438  -5.568  -5.451  0.00  0.00    +0.002 A 
ATOM     20  C   UNL     1       1.063  -4.512  -4.823  0.00  0.00    +0.028 A 
ATOM     21  C   UNL     1       1.392  -4.610  -3.478  0.00  0.00    +0.066 A 
ATOM     22  N   UNL     1       1.997  -3.761  -2.572  0.00  0.00    -0.341 N 
ATOM     23  H   UNL     1       2.324  -2.866  -2.752  0.00  0.00    +0.167 HD
ENDBRANCH  13  14
BRANCH  12  24
ATOM     24  N   UNL     1       4.605  -4.785   1.057  0.00  0.00    +0.391 N 
ATOM     25  H   UNL     1       4.227  -4.367   1.894  0.00  0.00    -0.087 HD
ATOM     26  H   UNL     1       4.273  -5.734   0.976  0.00  0.00    -0.087 HD
ATOM     27  H   UNL     1       5.613  -4.785   1.106  0.00  0.00    -0.087 HD
ENDBRANCH  12  24
BRANCH  11  28
ATOM     28  C   UNL     1       6.133  -2.314  -0.031  0.00  0.00    +0.132 C 
BRANCH  28  29
ATOM     29  C   UNL     1       6.665  -2.262  -1.464  0.00  0.00    +0.174 C 
BRANCH  29  30
ATOM     30  O   UNL     1       6.040  -1.185  -2.166  0.00  0.00    -0.393 OA
ATOM     31  H   UNL     1       6.331  -1.092  -3.084  0.00  0.00    +0.209 HD
ENDBRANCH  29  30
ENDBRANCH  28  29
ENDBRANCH  11  28
TORSDOF 5
