REMARK  Name = ZINC45809792
REMARK  0 active torsions:
REMARK  status: ('A' for Active; 'I' for Inactive)
REMARK                            x       y       z     vdW  Elec       q    Type
REMARK                         _______ _______ _______ _____ _____    ______ ____
ROOT
ATOM      1  C   UNL     1      -0.019   1.546   0.011  0.00  0.00    +0.002 C 
ATOM      2  C   UNL     1       1.470   1.946  -0.002  0.00  0.00    +0.005 C 
ATOM      3  C   UNL     1       2.254   0.744  -0.568  0.00  0.00    +0.015 C 
ATOM      4  C   UNL     1       3.167   0.207   0.549  0.00  0.00    +0.028 C 
ATOM      5  C   UNL     1       3.566  -1.255   0.217  0.00  0.00    +0.166 C 
ATOM      6  S   UNL     1       1.969  -1.901  -0.437  0.00  0.00    -0.028 S 
ATOM      7  O   UNL     1       2.226  -2.673  -1.602  0.00  0.00    -0.174 OA
ATOM      8  O   UNL     1       1.230  -2.474   0.632  0.00  0.00    -0.174 OA
ATOM      9  C   UNL     1       1.177  -0.312  -0.952  0.00  0.00    +0.134 C 
ATOM     10  C   UNL     1       0.002  -0.004   0.002  0.00  0.00    +0.026 C 
ENDROOT
TORSDOF 0
