REMARK  Name = ZINC38885470
REMARK  8 active torsions:
REMARK  status: ('A' for Active; 'I' for Inactive)
REMARK    1  A    between atoms: C_4  and  C_7
REMARK    2  A    between atoms: C_9  and  C_12
REMARK    3  A    between atoms: C_12  and  N_13
REMARK    4  A    between atoms: C_17  and  C_20
REMARK    5  A    between atoms: N_22  and  C_23
REMARK    6  A    between atoms: C_28  and  S_29
REMARK    7  A    between atoms: S_29  and  C_30
REMARK    8  A    between atoms: C_30  and  C_31
REMARK                            x       y       z     vdW  Elec       q    Type
REMARK                         _______ _______ _______ _____ _____    ______ ____
ROOT
ATOM      1  N   UNL     1       5.832  -4.175  -1.470  0.00  0.00    +0.386 N 
ATOM      2  C   UNL     1       6.828  -3.318  -2.126  0.00  0.00    -0.078 C 
ATOM      3  C   UNL     1       6.959  -3.718  -3.597  0.00  0.00    -0.018 C 
ATOM      4  C   UNL     1       7.404  -5.181  -3.685  0.00  0.00    +0.009 C 
ATOM      5  C   UNL     1       6.398  -6.057  -2.933  0.00  0.00    +0.059 C 
ATOM      6  C   UNL     1       6.287  -5.570  -1.487  0.00  0.00    -0.065 C 
ATOM      7  H   UNL     1       4.954  -4.102  -1.960  0.00  0.00    -0.081 HD
ENDROOT
BRANCH   5   8
ATOM      8  C   UNL     1       6.867  -7.489  -2.949  0.00  0.00    +0.219 C 
ATOM      9  O   UNL     1       7.087  -8.066  -1.906  0.00  0.00    -0.275 OA
ATOM     10  N   UNL     1       7.041  -8.128  -4.123  0.00  0.00    -0.284 N 
ATOM     11  H   UNL     1       6.803  -7.689  -4.955  0.00  0.00    +0.155 HD
BRANCH  10  12
ATOM     12  C   UNL     1       7.566  -9.427  -4.142  0.00  0.00    +0.047 A 
ATOM     13  C   UNL     1       7.261 -10.315  -3.122  0.00  0.00    +0.024 A 
ATOM     14  C   UNL     1       7.780 -11.597  -3.143  0.00  0.00    +0.002 A 
ATOM     15  C   UNL     1       8.603 -11.997  -4.180  0.00  0.00    +0.001 A 
ATOM     16  C   UNL     1       8.912 -11.119  -5.201  0.00  0.00    +0.016 A 
ATOM     17  C   UNL     1       8.391  -9.833  -5.191  0.00  0.00    +0.029 A 
BRANCH  17  18
ATOM     18  S   UNL     1       8.778  -8.713  -6.495  0.00  0.00    -0.119 S 
BRANCH  18  19
ATOM     19  C   UNL     1       9.854  -9.674  -7.595  0.00  0.00    +0.109 C 
BRANCH  19  20
ATOM     20  C   UNL     1      10.264  -8.822  -8.768  0.00  0.00    -0.037 A 
ATOM     21  C   UNL     1       9.489  -8.804  -9.913  0.00  0.00    +0.006 A 
ATOM     22  C   UNL     1       9.864  -8.023 -10.990  0.00  0.00    +0.020 A 
ATOM     23  C   UNL     1      11.014  -7.258 -10.921  0.00  0.00    +0.041 A 
ATOM     24  C   UNL     1      11.789  -7.275  -9.775  0.00  0.00    +0.020 A 
ATOM     25  C   UNL     1      11.410  -8.053  -8.697  0.00  0.00    +0.006 A 
ATOM     26 CL   UNL     1      11.486  -6.276 -12.274  0.00  0.00    -0.084 Cl
ENDBRANCH  19  20
ENDBRANCH  18  19
ENDBRANCH  17  18
ENDBRANCH  10  12
ENDBRANCH   5   8
BRANCH   1  27
ATOM     27  C   UNL     1       5.653  -3.737  -0.079  0.00  0.00    +0.022 C 
BRANCH  27  30
ATOM     28  C   UNL     1       3.636  -0.720  -0.033  0.00  0.00    +0.202 A 
ATOM     29  N   UNL     1       3.801  -2.054  -0.049  0.00  0.00    -0.193 NA
ATOM     30  C   UNL     1       5.070  -2.347  -0.061  0.00  0.00    +0.211 A 
ATOM     31  O   UNL     1       5.769  -1.205  -0.054  0.00  0.00    -0.340 OA
ATOM     32  N   UNL     1       4.817  -0.152  -0.041  0.00  0.00    -0.056 NA
BRANCH  28  36
ATOM     33  C   UNL     1      -0.095   1.319   0.012  0.00  0.00    +0.000 A 
ATOM     34  C   UNL     1       1.085   2.041   0.006  0.00  0.00    +0.001 A 
ATOM     35  C   UNL     1       2.299   1.385  -0.008  0.00  0.00    +0.012 A 
ATOM     36  C   UNL     1       2.334  -0.008  -0.017  0.00  0.00    +0.022 A 
ATOM     37  C   UNL     1       1.143  -0.730  -0.012  0.00  0.00    +0.012 A 
ATOM     38  C   UNL     1      -0.066  -0.064   0.003  0.00  0.00    +0.001 A 
ENDBRANCH  28  36
ENDBRANCH  27  30
ENDBRANCH   1  27
TORSDOF 8
