REMARK  Name = ZINC61881765
REMARK  7 active torsions:
REMARK  status: ('A' for Active; 'I' for Inactive)
REMARK    1  A    between atoms: C_1  and  C_2
REMARK    2  A    between atoms: C_2  and  C_4
REMARK    3  A    between atoms: C_2  and  O_18
REMARK    4  A    between atoms: C_4  and  N_5
REMARK    5  A    between atoms: N_5  and  S_6
REMARK    6  A    between atoms: S_6  and  C_9
REMARK    7  A    between atoms: C_13  and  N_16
REMARK                            x       y       z     vdW  Elec       q    Type
REMARK                         _______ _______ _______ _____ _____    ______ ____
ROOT
ATOM      1  C   UNL     1       1.443  -2.571   3.833  0.00  0.00    +0.122 A 
ATOM      2  C   UNL     1       2.233  -1.787   4.653  0.00  0.00    +0.049 A 
ATOM      3  C   UNL     1       1.893  -1.609   5.982  0.00  0.00    +0.045 A 
ATOM      4  C   UNL     1       0.761  -2.215   6.494  0.00  0.00    +0.044 A 
ATOM      5  C   UNL     1      -0.035  -3.003   5.673  0.00  0.00    +0.042 A 
ATOM      6  C   UNL     1       0.307  -3.175   4.337  0.00  0.00    +0.065 A 
ATOM      7 BR   UNL     1      -0.777  -4.241   3.212  0.00  0.00    -0.046 Br
ATOM      8 CL   UNL     1       2.888  -0.624   7.008  0.00  0.00    -0.083 Cl
ENDROOT
BRANCH   1   9
ATOM      9  S   UNL     1       1.880  -2.794   2.140  0.00  0.00    +0.060 S 
ATOM     10  O   UNL     1       1.838  -4.192   1.891  0.00  0.00    -0.153 OA
ATOM     11  O   UNL     1       3.048  -2.015   1.917  0.00  0.00    -0.153 OA
BRANCH   9  12
ATOM     12  N   UNL     1       0.676  -2.113   1.230  0.00  0.00    -0.187 NA
ATOM     13  H   UNL     1       0.130  -2.671   0.654  0.00  0.00    +0.148 HD
BRANCH  12  14
ATOM     14  C   UNL     1       0.437  -0.669   1.293  0.00  0.00    +0.136 C 
BRANCH  14  16
ATOM     15  C   UNL     1      -0.681   1.264   0.173  0.00  0.00    +0.039 C 
ATOM     16  C   UNL     1      -0.431  -0.244   0.107  0.00  0.00    +0.127 C 
BRANCH  16  17
ATOM     17  O   UNL     1       0.241  -0.562  -1.113  0.00  0.00    -0.391 OA
ATOM     18  H   UNL     1      -0.253  -0.319  -1.909  0.00  0.00    +0.210 HD
ENDBRANCH  16  17
ENDBRANCH  14  16
ENDBRANCH  12  14
ENDBRANCH   9  12
ENDBRANCH   1   9
BRANCH   5  19
ATOM     19  N   UNL     1      -1.179  -3.617   6.188  0.00  0.00    -0.357 N 
ATOM     20  H   UNL     1      -1.419  -3.494   7.119  0.00  0.00    +0.142 HD
ATOM     21  H   UNL     1      -1.734  -4.168   5.613  0.00  0.00    +0.142 HD
ENDBRANCH   5  19
TORSDOF 6
