REMARK  Name = ZINC09524344
REMARK  7 active torsions:
REMARK  status: ('A' for Active; 'I' for Inactive)
REMARK    1  A    between atoms: C_1  and  C_2
REMARK    2  A    between atoms: C_5  and  C_8
REMARK    3  A    between atoms: C_8  and  S_9
REMARK    4  A    between atoms: S_9  and  C_10
REMARK    5  A    between atoms: C_21  and  C_23
REMARK    6  A    between atoms: C_32  and  C_34
REMARK    7  A    between atoms: C_32  and  C_35
REMARK                            x       y       z     vdW  Elec       q    Type
REMARK                         _______ _______ _______ _____ _____    ______ ____
ROOT
ATOM      1  C   UNL     1       0.002  -0.004   0.002  0.00  0.00    +0.171 A 
ATOM      2  N   UNL     1      -1.176  -0.687   0.015  0.00  0.00    -0.302 N 
ATOM      3  H   UNL     1      -2.017  -0.203   0.030  0.00  0.00    +0.171 HD
ATOM      4  C   UNL     1      -1.177  -2.037   0.003  0.00  0.00    +0.258 A 
ATOM      5  O   UNL     1      -2.228  -2.658   0.009  0.00  0.00    -0.267 OA
ATOM      6  C   UNL     1       0.050  -2.711  -0.011  0.00  0.00    +0.069 A 
ATOM      7  C   UNL     1       1.219  -1.970  -0.019  0.00  0.00    +0.135 A 
ATOM      8  N   UNL     1       1.159  -0.634  -0.012  0.00  0.00    -0.208 NA
ATOM      9  N   UNL     1       2.438  -2.616  -0.037  0.00  0.00    -0.302 N 
ATOM     10  C   UNL     1       2.530  -3.923  -0.432  0.00  0.00    +0.017 C 
ATOM     11  C   UNL     1       1.441  -4.720  -0.450  0.00  0.00    +0.024 C 
ATOM     12  C   UNL     1       0.091  -4.210  -0.014  0.00  0.00    +0.092 C 
ATOM     13  C   UNL     1       1.530  -6.058  -0.874  0.00  0.00    +0.162 C 
ATOM     14  O   UNL     1       0.532  -6.751  -0.873  0.00  0.00    -0.292 OA
ATOM     15  C   UNL     1       2.836  -6.649  -1.329  0.00  0.00    +0.086 C 
ATOM     16  C   UNL     1       3.714  -5.534  -1.907  0.00  0.00    -0.023 C 
ATOM     17  C   UNL     1       3.884  -4.450  -0.841  0.00  0.00    +0.058 C 
ATOM     18  C   UNL     1       3.039  -4.938  -3.144  0.00  0.00    +0.011 C 
ATOM     19  C   UNL     1       5.083  -6.098  -2.290  0.00  0.00    +0.011 C 
ATOM     20  H   UNL     1       3.239  -2.139   0.232  0.00  0.00    +0.153 HD
ENDROOT
BRANCH  12  21
ATOM     21  C   UNL     1      -0.200  -4.712   1.377  0.00  0.00    -0.032 A 
ATOM     22  C   UNL     1       0.637  -4.395   2.436  0.00  0.00    +0.024 A 
ATOM     23  C   UNL     1       0.335  -4.870   3.698  0.00  0.00    +0.111 A 
ATOM     24  N   UNL     1      -0.728  -5.624   3.899  0.00  0.00    -0.263 NA
ATOM     25  C   UNL     1      -1.543  -5.950   2.915  0.00  0.00    +0.111 A 
ATOM     26  C   UNL     1      -1.309  -5.507   1.627  0.00  0.00    +0.024 A 
ENDBRANCH  12  21
BRANCH   1  27
ATOM     27  S   UNL     1      -0.022   1.758   0.012  0.00  0.00    -0.083 S 
BRANCH  27  28
ATOM     28  C   UNL     1       1.756   2.096  -0.004  0.00  0.00    +0.112 C 
BRANCH  28  33
ATOM     29  C   UNL     1       2.630   7.808   0.019  0.00  0.00    +0.044 C 
ATOM     30  C   UNL     1       2.403   6.319   0.013  0.00  0.00    -0.050 A 
ATOM     31  C   UNL     1       2.309   5.629   1.208  0.00  0.00    +0.003 A 
ATOM     32  C   UNL     1       2.100   4.263   1.202  0.00  0.00    +0.005 A 
ATOM     33  C   UNL     1       1.984   3.586   0.002  0.00  0.00    -0.037 A 
ATOM     34  C   UNL     1       2.083   4.275  -1.192  0.00  0.00    +0.005 A 
ATOM     35  C   UNL     1       2.287   5.642  -1.187  0.00  0.00    +0.003 A 
ENDBRANCH  28  33
ENDBRANCH  27  28
ENDBRANCH   1  27
TORSDOF 4
