REMARK  Name = ZINC62869732
REMARK  4 active torsions:
REMARK  status: ('A' for Active; 'I' for Inactive)
REMARK    1  A    between atoms: C_1  and  C_2
REMARK    2  A    between atoms: C_2  and  C_3
REMARK    3  A    between atoms: C_3  and  C_18
REMARK    4  A    between atoms: C_9  and  C_11
REMARK                            x       y       z     vdW  Elec       q    Type
REMARK                         _______ _______ _______ _____ _____    ______ ____
ROOT
ATOM      1  C   UNL     1       0.338   0.173  -0.495  0.00  0.00    +0.087 C 
ATOM      2  C   UNL     1       0.198  -1.192   0.182  0.00  0.00    +0.021 C 
ATOM      3  C   UNL     1      -1.270  -1.625   0.163  0.00  0.00    +0.020 C 
ATOM      4  C   UNL     1      -1.741  -1.754  -1.289  0.00  0.00    +0.108 C 
ATOM      5  N   UNL     1      -1.476  -0.489  -1.987  0.00  0.00    -0.295 N 
ATOM      6  C   UNL     1      -0.115   0.064  -1.954  0.00  0.00    +0.126 C 
ATOM      7  C   UNL     1      -2.462   0.152  -2.646  0.00  0.00    +0.263 C 
ATOM      8  O   UNL     1      -2.262   1.257  -3.115  0.00  0.00    -0.268 OA
ENDROOT
BRANCH   7   9
ATOM      9  C   UNL     1      -3.776  -0.482  -2.797  0.00  0.00    +0.103 A 
ATOM     10  C   UNL     1      -4.973   0.166  -3.018  0.00  0.00    +0.047 A 
ATOM     11  C   UNL     1      -5.964  -0.818  -3.098  0.00  0.00    +0.036 A 
ATOM     12  C   UNL     1      -5.368  -2.023  -2.929  0.00  0.00    +0.098 A 
ATOM     13  N   UNL     1      -4.037  -1.833  -2.750  0.00  0.00    -0.356 N 
ATOM     14  H   UNL     1      -3.379  -2.532  -2.611  0.00  0.00    +0.165 HD
ATOM     15 BR   UNL     1      -7.808  -0.519  -3.391  0.00  0.00    -0.049 Br
ENDBRANCH   7   9
BRANCH   1  16
ATOM     16  C   UNL     1       1.778   0.613  -0.447  0.00  0.00    +0.364 C 
ATOM     17  O   UNL     1       2.080   1.650   0.119  0.00  0.00    -0.246 OA
ATOM     18  O   UNL     1       2.642  -0.067  -0.974  0.00  0.00    -0.246 OA
ENDBRANCH   1  16
BRANCH   1  20
ATOM     19  C   UNL     1      -0.396   2.561  -0.445  0.00  0.00    +0.005 C 
ATOM     20  C   UNL     1      -0.534   1.197   0.235  0.00  0.00    +0.016 C 
ENDBRANCH   1  20
TORSDOF 3
