REMARK  Name = ZINC22789297
REMARK  8 active torsions:
REMARK  status: ('A' for Active; 'I' for Inactive)
REMARK    1  A    between atoms: C_1  and  C_2
REMARK    2  A    between atoms: C_2  and  C_4
REMARK    3  A    between atoms: C_2  and  N_18
REMARK    4  A    between atoms: N_6  and  C_7
REMARK    5  A    between atoms: C_8  and  C_15
REMARK    6  A    between atoms: N_21  and  C_24
REMARK    7  A    between atoms: C_24  and  C_25
REMARK    8  A    between atoms: N_27  and  C_28
REMARK                            x       y       z     vdW  Elec       q    Type
REMARK                         _______ _______ _______ _____ _____    ______ ____
ROOT
ATOM      1  C   UNL     1      -1.034   5.048   2.397  0.00  0.00    +0.034 C 
ATOM      2  C   UNL     1      -1.399   3.565   2.482  0.00  0.00    +0.140 C 
ENDROOT
BRANCH   2   3
ATOM      3  N   UNL     1      -0.952   2.880   1.261  0.00  0.00    -0.295 NA
ATOM      4  C   UNL     1      -1.847   3.177   0.134  0.00  0.00    +0.066 C 
ATOM      5  C   UNL     1      -1.394   2.385  -1.095  0.00  0.00    -0.063 C 
ATOM      6  N   UNL     1      -0.006   2.740  -1.420  0.00  0.00    +0.387 N 
ATOM      7  C   UNL     1       0.888   2.443  -0.292  0.00  0.00    -0.063 C 
ATOM      8  C   UNL     1       0.436   3.236   0.936  0.00  0.00    +0.066 C 
ATOM      9  H   UNL     1       0.032   3.824  -1.608  0.00  0.00    -0.081 HD
BRANCH   6  10
ATOM     10  C   UNL     1       0.441   2.056  -2.641  0.00  0.00    +0.019 C 
BRANCH  10  11
ATOM     11  C   UNL     1       1.766   2.624  -3.079  0.00  0.00    +0.197 C 
ATOM     12  O   UNL     1       2.287   3.512  -2.438  0.00  0.00    -0.278 OA
ATOM     13  N   UNL     1       2.372   2.146  -4.184  0.00  0.00    -0.314 N 
ATOM     14  H   UNL     1       1.899   1.341  -4.766  0.00  0.00    +0.149 HD
BRANCH  13  15
ATOM     15  C   UNL     1       3.660   2.698  -4.610  0.00  0.00    +0.073 C 
ATOM     16  C   UNL     1       3.846   2.989  -6.101  0.00  0.00    +0.024 C 
ATOM     17  C   UNL     1       4.567   1.803  -5.456  0.00  0.00    +0.024 C 
ENDBRANCH  13  15
ENDBRANCH  10  11
ENDBRANCH   6  10
ENDBRANCH   2   3
BRANCH   2  18
ATOM     18  C   UNL     1      -0.722   2.949   3.679  0.00  0.00    +0.235 C 
ATOM     19  O   UNL     1       0.242   2.229   3.527  0.00  0.00    -0.274 OA
ATOM     20  N   UNL     1      -1.188   3.199   4.919  0.00  0.00    -0.278 N 
ATOM     21  H   UNL     1      -2.062   3.852   5.057  0.00  0.00    +0.155 HD
BRANCH  20  22
ATOM     22  C   UNL     1      -0.565   2.632   6.021  0.00  0.00    +0.084 A 
ATOM     23  C   UNL     1      -0.890   2.773   7.359  0.00  0.00    +0.068 A 
ATOM     24  C   UNL     1      -0.067   2.058   8.335  0.00  0.00    -0.023 A 
ATOM     25  C   UNL     1       0.940   1.335   7.811  0.00  0.00    -0.004 A 
ATOM     26  S   UNL     1       0.811   1.583   6.058  0.00  0.00    -0.077 S 
ATOM     27  C   UNL     1       1.742   0.633   8.874  0.00  0.00    +0.043 C 
ATOM     28  C   UNL     1       0.838   0.663  10.126  0.00  0.00    +0.010 C 
ATOM     29  C   UNL     1      -0.033   1.906   9.856  0.00  0.00    +0.037 C 
BRANCH  23  30
ATOM     30  C   UNL     1      -2.019   3.605   7.784  0.00  0.00    +0.244 C 
ATOM     31  O   UNL     1      -3.129   3.116   7.893  0.00  0.00    -0.270 OA
ATOM     32  N   UNL     1      -1.830   4.912   8.053  0.00  0.00    -0.325 N 
ATOM     33  H   UNL     1      -2.678   5.537   8.372  0.00  0.00    +0.145 HD
ATOM     34  H   UNL     1      -0.828   5.354   7.954  0.00  0.00    +0.145 HD
ENDBRANCH  23  30
ENDBRANCH  20  22
ENDBRANCH   2  18
TORSDOF 7
