REMARK  Name = ZINC39692638
REMARK  10 active torsions:
REMARK  status: ('A' for Active; 'I' for Inactive)
REMARK    1  A    between atoms: C_1  and  C_2
REMARK    2  A    between atoms: C_5  and  N_9
REMARK    3  A    between atoms: C_7  and  C_8
REMARK    4  A    between atoms: C_10  and  S_15
REMARK    5  A    between atoms: S_15  and  C_16
REMARK    6  A    between atoms: C_16  and  C_17
REMARK    7  A    between atoms: N_19  and  CA_20
REMARK    8  A    between atoms: CA_20  and  CB_22
REMARK    9  A    between atoms: CA_20  and  C_32
REMARK   10  A    between atoms: CB_22  and  CG_23
REMARK                            x       y       z     vdW  Elec       q    Type
REMARK                         _______ _______ _______ _____ _____    ______ ____
ROOT
ATOM      1  C   UNK A   0       2.920  -5.159  -1.035  0.00  0.00    +0.167 C 
ENDROOT
BRANCH   1   2
ATOM      2  C   UNK A   0       4.247  -4.960  -1.721  0.00  0.00    +0.224 C 
ATOM      3  O   UNK A   0       4.284  -4.573  -2.869  0.00  0.00    -0.275 OA
ATOM      4  N   TRP A   1       5.393  -5.212  -1.057  0.00  0.00    -0.301 N 
ATOM      5  H   TRP A   1       5.363  -5.521  -0.138  0.00  0.00    +0.150 HD
BRANCH   4   6
ATOM      6  CA  TRP A   1       6.683  -5.018  -1.724  0.00  0.00    +0.191 C 
BRANCH   6   7
ATOM      7  C   TRP A   1       7.034  -6.256  -2.508  0.00  0.00    +0.376 C 
ATOM      8  O   TRP A   1       7.707  -6.167  -3.520  0.00  0.00    -0.244 OA
ATOM      9  OXT TRP A   1       6.645  -7.348  -2.129  0.00  0.00    -0.244 OA
ENDBRANCH   6   7
BRANCH   6  10
ATOM     10  CB  TRP A   1       7.765  -4.755  -0.674  0.00  0.00    +0.071 C 
BRANCH  10  11
ATOM     11  CG  TRP A   1       7.479  -3.452   0.026  0.00  0.00    -0.020 A 
ATOM     12  CD2 TRP A   1       6.591  -3.257   1.175  0.00  0.00    +0.003 A 
ATOM     13  CE3 TRP A   1       5.790  -4.109   1.938  0.00  0.00    +0.010 A 
ATOM     14  CZ3 TRP A   1       5.059  -3.603   2.977  0.00  0.00    +0.001 A 
ATOM     15  CH2 TRP A   1       5.106  -2.249   3.279  0.00  0.00    +0.002 A 
ATOM     16  CZ2 TRP A   1       5.890  -1.391   2.538  0.00  0.00    +0.026 A 
ATOM     17  CE2 TRP A   1       6.642  -1.884   1.478  0.00  0.00    +0.047 A 
ATOM     18  NE1 TRP A   1       7.501  -1.301   0.573  0.00  0.00    -0.360 N 
ATOM     19  CD1 TRP A   1       7.994  -2.251  -0.280  0.00  0.00    +0.087 A 
ATOM     20  HE1 TRP A   1       7.726  -0.358   0.546  0.00  0.00    +0.165 HD
ENDBRANCH  10  11
ENDBRANCH   6  10
ENDBRANCH   4   6
ENDBRANCH   1   2
BRANCH   1  21
ATOM     21  S   UNK A   0       1.578  -4.739  -2.181  0.00  0.00    -0.114 S 
BRANCH  21  23
ATOM     22  N   UNK A   0       0.058  -4.167  -0.021  0.00  0.00    -0.254 N 
ATOM     23  C   UNK A   0       0.070  -5.028  -1.216  0.00  0.00    +0.203 C 
ATOM     24  N   UNK A   0       0.043  -6.422  -0.708  0.00  0.00    -0.320 NA
ATOM     25  N   UNK A   0      -0.508  -6.261   0.648  0.00  0.00    +0.411 N 
ATOM     26  N   UNK A   0       0.075  -4.983   1.086  0.00  0.00    -0.265 NA
ATOM     27  H   UNK A   0      -0.556  -7.002  -1.276  0.00  0.00    +0.106 HD
ATOM     28  H   UNK A   0      -1.515  -6.208   0.621  0.00  0.00    -0.031 HD
ATOM     29  H   UNK A   0       1.016  -5.109   1.427  0.00  0.00    +0.125 HD
ATOM     30  H   UNK A   0      -0.205  -7.014   1.249  0.00  0.00    -0.031 HD
BRANCH  22  35
ATOM     31  C   UNK A   0      -0.018   1.503   0.010  0.00  0.00    +0.044 C 
ATOM     32  C   UNK A   0       0.002  -0.004   0.002  0.00  0.00    -0.047 A 
ATOM     33  C   UNK A   0       0.006  -0.687  -1.200  0.00  0.00    +0.005 A 
ATOM     34  C   UNK A   0       0.024  -2.068  -1.212  0.00  0.00    +0.025 A 
ATOM     35  C   UNK A   0       0.040  -2.771  -0.013  0.00  0.00    +0.046 A 
ATOM     36  C   UNK A   0       0.036  -2.081   1.192  0.00  0.00    +0.028 A 
ATOM     37  C   UNK A   0       0.023  -0.700   1.196  0.00  0.00    -0.046 A 
ATOM     38  C   UNK A   0       0.025   0.049   2.504  0.00  0.00    +0.044 C 
ENDBRANCH  22  35
ENDBRANCH  21  23
ENDBRANCH   1  21
TORSDOF 8
