REMARK  Name = ZINC41585117
REMARK  8 active torsions:
REMARK  status: ('A' for Active; 'I' for Inactive)
REMARK    1  A    between atoms: C_1  and  C_2
REMARK    2  A    between atoms: C_2  and  N_3
REMARK    3  A    between atoms: C_5  and  C_12
REMARK    4  A    between atoms: C_17  and  C_37
REMARK    5  A    between atoms: C_19  and  O_36
REMARK    6  A    between atoms: C_20  and  C_23
REMARK    7  A    between atoms: C_23  and  N_24
REMARK    8  A    between atoms: N_27  and  C_30
REMARK                            x       y       z     vdW  Elec       q    Type
REMARK                         _______ _______ _______ _____ _____    ______ ____
ROOT
ATOM      1  C   UNL     1       0.750  -1.656  -4.647  0.00  0.00    +0.060 C 
ATOM      2  C   UNL     1      -0.526  -1.824  -5.093  0.00  0.00    +0.176 C 
ATOM      3  C   UNL     1      -1.707  -1.499  -4.373  0.00  0.00    +0.232 C 
ATOM      4  O   UNL     1      -1.784  -1.024  -3.252  0.00  0.00    -0.283 OA
ATOM      5  C   UNL     1      -2.818  -1.860  -5.271  0.00  0.00    +0.071 A 
ATOM      6  C   UNL     1      -4.206  -1.788  -5.158  0.00  0.00    -0.033 A 
ATOM      7  C   UNL     1      -4.995  -2.211  -6.190  0.00  0.00    +0.050 A 
ATOM      8  C   UNL     1      -4.418  -2.713  -7.354  0.00  0.00    +0.122 A 
ATOM      9  C   UNL     1      -3.041  -2.790  -7.481  0.00  0.00    +0.020 A 
ATOM     10  C   UNL     1      -2.225  -2.364  -6.441  0.00  0.00    +0.145 A 
ATOM     11  O   UNL     1      -0.883  -2.322  -6.301  0.00  0.00    -0.451 OA
ATOM     12  C   UNL     1      -4.835  -1.247  -3.900  0.00  0.00    +0.045 C 
ENDROOT
BRANCH   1  15
ATOM     13  N   UNL     1       0.798  -1.073  -1.044  0.00  0.00    -0.346 N 
ATOM     14  C   UNL     1       0.265  -1.641  -2.153  0.00  0.00    +0.094 A 
ATOM     15  C   UNL     1       0.993  -1.263  -3.260  0.00  0.00    +0.004 A 
ATOM     16  C   UNL     1       2.068  -0.381  -2.766  0.00  0.00    +0.007 A 
ATOM     17  C   UNL     1       1.890  -0.296  -1.376  0.00  0.00    +0.050 A 
ATOM     18  C   UNL     1       2.764   0.482  -0.623  0.00  0.00    +0.026 A 
ATOM     19  C   UNL     1       3.789   1.163  -1.244  0.00  0.00    +0.002 A 
ATOM     20  C   UNL     1       3.961   1.080  -2.618  0.00  0.00    +0.001 A 
ATOM     21  C   UNL     1       3.110   0.308  -3.380  0.00  0.00    +0.010 A 
BRANCH  13  23
ATOM     22  C   UNL     1      -0.666  -0.102   0.657  0.00  0.00    +0.027 C 
ATOM     23  C   UNL     1       0.284  -1.252   0.316  0.00  0.00    +0.118 C 
ENDBRANCH  13  23
ENDBRANCH   1  15
BRANCH   8  24
ATOM     24  O   UNL     1      -5.212  -3.131  -8.373  0.00  0.00    -0.506 OA
ATOM     25  H   UNL     1      -5.429  -2.439  -9.012  0.00  0.00    +0.292 HD
ENDBRANCH   8  24
BRANCH   9  26
ATOM     26  C   UNL     1      -2.428  -3.335  -8.745  0.00  0.00    -0.035 C 
BRANCH  26  27
ATOM     27  N   UNL     1      -2.208  -2.237  -9.695  0.00  0.00    +0.385 N 
ATOM     28  C   UNL     1      -3.502  -1.669 -10.093  0.00  0.00    -0.059 C 
ATOM     29  C   UNL     1      -3.270  -0.452 -10.994  0.00  0.00    +0.086 C 
ATOM     30  N   UNL     1      -2.416  -0.862 -12.119  0.00  0.00    -0.333 N 
ATOM     31  C   UNL     1      -1.171  -1.586 -11.817  0.00  0.00    +0.086 C 
ATOM     32  C   UNL     1      -1.503  -2.750 -10.877  0.00  0.00    -0.059 C 
ATOM     33  H   UNL     1      -1.649  -1.521  -9.257  0.00  0.00    -0.081 HD
BRANCH  30  34
ATOM     34  C   UNL     1      -2.775  -0.570 -13.437  0.00  0.00    +0.030 A 
ATOM     35  C   UNL     1      -3.887   0.221 -13.696  0.00  0.00    +0.023 A 
ATOM     36  C   UNL     1      -4.239   0.508 -15.001  0.00  0.00    +0.002 A 
ATOM     37  C   UNL     1      -3.487   0.008 -16.048  0.00  0.00    +0.000 A 
ATOM     38  C   UNL     1      -2.380  -0.780 -15.793  0.00  0.00    +0.002 A 
ATOM     39  C   UNL     1      -2.018  -1.066 -14.491  0.00  0.00    +0.023 A 
ENDBRANCH  30  34
ENDBRANCH  26  27
ENDBRANCH   9  26
TORSDOF 6
