REMARK  Name = ZINC36605326
REMARK  13 active torsions:
REMARK  status: ('A' for Active; 'I' for Inactive)
REMARK    1  A    between atoms: C_1  and  C_2
REMARK    2  A    between atoms: C_2  and  C_3
REMARK    3  A    between atoms: C_2  and  C_4
REMARK    4  A    between atoms: C_2  and  N_5
REMARK    5  A    between atoms: C_6  and  C_8
REMARK    6  A    between atoms: C_8  and  C_10
REMARK    7  A    between atoms: C_8  and  N_19
REMARK    8  A    between atoms: C_13  and  N_16
REMARK    9  A    between atoms: N_19  and  C_20
REMARK   10  A    between atoms: C_26  and  C_28
REMARK   11  A    between atoms: C_28  and  C_30
REMARK   12  A    between atoms: C_28  and  O_36
REMARK   13  A    between atoms: O_36  and  C_37
REMARK                            x       y       z     vdW  Elec       q    Type
REMARK                         _______ _______ _______ _____ _____    ______ ____
ROOT
ATOM      1  C   UNL     1       3.301  -0.399  -2.287  0.00  0.00    +0.197 C 
ENDROOT
BRANCH   1   2
ATOM      2  C   UNL     1       2.885   1.017  -1.981  0.00  0.00    -0.018 A 
ATOM      3  C   UNL     1       3.719   1.840  -1.247  0.00  0.00    +0.008 A 
ATOM      4  C   UNL     1       3.336   3.138  -0.967  0.00  0.00    +0.033 A 
ATOM      5  C   UNL     1       2.121   3.615  -1.421  0.00  0.00    +0.126 A 
ATOM      6  C   UNL     1       1.288   2.792  -2.157  0.00  0.00    +0.033 A 
ATOM      7  C   UNL     1       1.672   1.495  -2.440  0.00  0.00    +0.008 A 
BRANCH   5   8
ATOM      8  N   UNL     1       1.711   5.005  -1.121  0.00  0.00    +0.056 N 
ATOM      9  O   UNL     1       2.440   5.724  -0.477  0.00  0.00    -0.126 OA
ATOM     10  O   UNL     1       0.648   5.421  -1.519  0.00  0.00    -0.126 OA
ENDBRANCH   5   8
ENDBRANCH   1   2
BRANCH   1  12
ATOM     11  N   UNL     1       2.302  -1.326  -0.222  0.00  0.00    -0.309 N 
ATOM     12  C   UNL     1       3.392  -1.184  -1.003  0.00  0.00    +0.239 C 
ATOM     13  O   UNL     1       4.444  -1.687  -0.673  0.00  0.00    -0.273 OA
ATOM     14  H   UNL     1       1.460  -0.923  -0.486  0.00  0.00    +0.149 HD
BRANCH  11  16
ATOM     15  C   UNL     1       3.424  -1.441   1.948  0.00  0.00    +0.031 C 
ATOM     16  C   UNL     1       2.390  -2.089   1.025  0.00  0.00    +0.026 C 
ATOM     17  C   UNL     1       2.813  -3.526   0.715  0.00  0.00    +0.031 C 
ATOM     18  C   UNL     1       1.024  -2.097   1.715  0.00  0.00    +0.031 C 
ENDBRANCH  11  16
ENDBRANCH   1  12
BRANCH   1  19
ATOM     19  N   UNL     1       4.609  -0.391  -2.947  0.00  0.00    -0.253 N 
ATOM     20  C   UNL     1       5.122  -1.537  -3.438  0.00  0.00    +0.254 C 
ATOM     21  O   UNL     1       4.541  -2.587  -3.262  0.00  0.00    -0.272 OA
BRANCH  19  22
ATOM     22  C   UNL     1       5.325   0.805  -3.068  0.00  0.00    +0.038 A 
ATOM     23  C   UNL     1       4.831   1.834  -3.860  0.00  0.00    +0.023 A 
ATOM     24  C   UNL     1       5.540   3.013  -3.977  0.00  0.00    +0.002 A 
ATOM     25  C   UNL     1       6.740   3.170  -3.308  0.00  0.00    +0.000 A 
ATOM     26  C   UNL     1       7.234   2.147  -2.519  0.00  0.00    +0.002 A 
ATOM     27  C   UNL     1       6.527   0.967  -2.393  0.00  0.00    +0.023 A 
ENDBRANCH  19  22
BRANCH  20  28
ATOM     28  C   UNL     1       6.418  -1.513  -4.207  0.00  0.00    +0.234 C 
BRANCH  28  29
ATOM     29  C   UNL     1       6.197  -0.851  -5.543  0.00  0.00    -0.010 A 
ATOM     30  C   UNL     1       5.548  -1.534  -6.554  0.00  0.00    +0.006 A 
ATOM     31  C   UNL     1       5.345  -0.927  -7.779  0.00  0.00    +0.000 A 
ATOM     32  C   UNL     1       5.792   0.364  -7.994  0.00  0.00    +0.000 A 
ATOM     33  C   UNL     1       6.442   1.047  -6.982  0.00  0.00    +0.000 A 
ATOM     34  C   UNL     1       6.640   0.441  -5.756  0.00  0.00    +0.006 A 
ENDBRANCH  28  29
BRANCH  28  35
ATOM     35  O   UNL     1       6.877  -2.851  -4.409  0.00  0.00    -0.366 OA
ATOM     36  C   UNL     1       7.728  -3.337  -3.369  0.00  0.00    +0.195 C 
ENDBRANCH  28  35
ENDBRANCH  20  28
ENDBRANCH   1  19
TORSDOF 9
