REMARK  Name = ZINC51055909
REMARK  10 active torsions:
REMARK  status: ('A' for Active; 'I' for Inactive)
REMARK    1  A    between atoms: C_1  and  C_2
REMARK    2  A    between atoms: C_2  and  C_3
REMARK    3  A    between atoms: C_3  and  C_4
REMARK    4  A    between atoms: C_4  and  C_6
REMARK    5  A    between atoms: C_4  and  N_7
REMARK    6  A    between atoms: C_8  and  C_10
REMARK    7  A    between atoms: N_15  and  C_17
REMARK    8  A    between atoms: C_17  and  C_18
REMARK    9  A    between atoms: N_20  and  C_21
REMARK   10  A    between atoms: C_22  and  C_26
REMARK                            x       y       z     vdW  Elec       q    Type
REMARK                         _______ _______ _______ _____ _____    ______ ____
ROOT
ATOM      1  C   UNL     1      -2.325  -4.294   1.028  0.00  0.00    +0.058 C 
ATOM      2  C   UNL     1      -3.289  -3.360   0.292  0.00  0.00    +0.009 C 
ATOM      3  C   UNL     1      -4.705  -3.941   0.368  0.00  0.00    -0.018 C 
ATOM      4  C   UNL     1      -4.703  -5.353  -0.221  0.00  0.00    -0.078 C 
ATOM      5  N   UNL     1      -3.782  -6.204   0.542  0.00  0.00    +0.386 N 
ATOM      6  C   UNL     1      -2.411  -5.694   0.416  0.00  0.00    -0.065 C 
ATOM      7  H   UNL     1      -4.051  -6.202   1.515  0.00  0.00    -0.081 HD
ENDROOT
BRANCH   1   9
ATOM      8  N   UNL     1      -0.605  -2.548   1.364  0.00  0.00    -0.313 N 
ATOM      9  C   UNL     1      -0.918  -3.772   0.893  0.00  0.00    +0.215 C 
ATOM     10  O   UNL     1      -0.066  -4.453   0.362  0.00  0.00    -0.276 OA
ATOM     11  H   UNL     1      -1.286  -2.004   1.789  0.00  0.00    +0.149 HD
BRANCH   8  12
ATOM     12  C   UNL     1       0.763  -2.041   1.233  0.00  0.00    +0.070 C 
ATOM     13  C   UNL     1       1.608  -2.546   2.404  0.00  0.00    +0.028 C 
BRANCH  12  14
ATOM     14  C   UNL     1       0.742  -0.511   1.242  0.00  0.00    +0.022 C 
BRANCH  14  16
ATOM     15  C   UNL     1      -0.019   1.526   0.010  0.00  0.00    +0.004 C 
ATOM     16  C   UNL     1       0.002  -0.004   0.002  0.00  0.00    -0.002 C 
ENDBRANCH  14  16
ENDBRANCH  12  14
ENDBRANCH   8  12
ENDBRANCH   1   9
BRANCH   5  17
ATOM     17  C   UNL     1      -3.842  -7.577   0.024  0.00  0.00    +0.019 C 
BRANCH  17  18
ATOM     18  C   UNL     1      -5.213  -8.149   0.273  0.00  0.00    +0.201 C 
ATOM     19  O   UNL     1      -6.058  -7.479   0.829  0.00  0.00    -0.278 OA
ATOM     20  N   UNL     1      -5.502  -9.405  -0.121  0.00  0.00    -0.281 N 
ATOM     21  H   UNL     1      -4.827  -9.941  -0.565  0.00  0.00    +0.155 HD
BRANCH  20  22
ATOM     22  C   UNL     1      -6.764  -9.931   0.109  0.00  0.00    +0.084 A 
ATOM     23  C   UNL     1      -7.234 -11.194  -0.218  0.00  0.00    +0.065 A 
ATOM     24  C   UNL     1      -8.603 -11.487   0.139  0.00  0.00    +0.022 A 
ATOM     25  C   UNL     1      -9.274 -10.496   0.753  0.00  0.00    +0.048 A 
ATOM     26  S   UNL     1      -8.071  -9.189   0.854  0.00  0.00    -0.081 S 
BRANCH  23  27
ATOM     27  C   UNL     1      -6.385 -12.182  -0.893  0.00  0.00    +0.244 C 
ATOM     28  O   UNL     1      -5.236 -11.902  -1.180  0.00  0.00    -0.270 OA
ATOM     29  N   UNL     1      -6.878 -13.399  -1.195  0.00  0.00    -0.325 N 
ATOM     30  H   UNL     1      -7.793 -13.623  -0.967  0.00  0.00    +0.145 HD
ATOM     31  H   UNL     1      -6.316 -14.052  -1.641  0.00  0.00    +0.145 HD
ENDBRANCH  23  27
ENDBRANCH  20  22
ENDBRANCH  17  18
ENDBRANCH   5  17
TORSDOF 8
