REMARK  Name = ZINC32960666
REMARK  9 active torsions:
REMARK  status: ('A' for Active; 'I' for Inactive)
REMARK    1  A    between atoms: C_1  and  C_2
REMARK    2  A    between atoms: C_2  and  C_3
REMARK    3  A    between atoms: C_3  and  C_5
REMARK    4  A    between atoms: C_3  and  C_6
REMARK    5  A    between atoms: C_6  and  C_8
REMARK    6  A    between atoms: C_6  and  N_24
REMARK    7  A    between atoms: N_10  and  C_11
REMARK    8  A    between atoms: C_11  and  C_13
REMARK    9  A    between atoms: C_11  and  C_14
REMARK                            x       y       z     vdW  Elec       q    Type
REMARK                         _______ _______ _______ _____ _____    ______ ____
ROOT
ATOM      1  C   UNL     1       3.938  -2.573  -3.131  0.00  0.00    +0.234 C 
ATOM      2  O   UNL     1       4.771  -1.747  -3.439  0.00  0.00    -0.274 OA
ATOM      3  N   UNL     1       2.724  -2.179  -2.700  0.00  0.00    -0.311 N 
ATOM      4  H   UNL     1       1.997  -2.924  -2.345  0.00  0.00    +0.149 HD
ENDROOT
BRANCH   3   5
ATOM      5  C   UNL     1       2.372  -0.756  -2.703  0.00  0.00    +0.076 C 
ATOM      6  C   UNL     1       1.815  -0.372  -4.075  0.00  0.00    +0.028 C 
BRANCH   5   7
ATOM      7  C   UNL     1       1.315  -0.490  -1.630  0.00  0.00    -0.010 C 
ATOM      8  C   UNL     1       0.032  -1.248  -1.978  0.00  0.00    +0.012 C 
ATOM      9  C   UNL     1      -1.025  -0.982  -0.905  0.00  0.00    -0.010 C 
ATOM     10  C   UNL     1      -1.321   0.517  -0.841  0.00  0.00    +0.007 C 
ATOM     11  C   UNL     1      -0.038   1.276  -0.493  0.00  0.00    -0.010 C 
ATOM     12  C   UNL     1       1.019   1.009  -1.566  0.00  0.00    +0.012 C 
ATOM     13  C   UNL     1       0.482   0.800   0.865  0.00  0.00    +0.007 C 
ATOM     14  C   UNL     1       0.778  -0.700   0.801  0.00  0.00    -0.010 C 
ATOM     15  C   UNL     1      -0.505  -1.458   0.453  0.00  0.00    +0.007 C 
ATOM     16  C   UNL     1       1.835  -0.966  -0.272  0.00  0.00    +0.012 C 
ENDBRANCH   5   7
ENDBRANCH   3   5
BRANCH   1  17
ATOM     17  C   UNL     1       4.262  -4.042  -3.230  0.00  0.00    +0.163 C 
BRANCH  17  18
ATOM     18  N   UNL     1       5.317  -4.243  -4.227  0.00  0.00    -0.288 N 
ATOM     19  C   UNL     1       5.431  -5.430  -4.856  0.00  0.00    +0.298 C 
ATOM     20  O   UNL     1       4.660  -6.333  -4.596  0.00  0.00    -0.253 OA
ATOM     21  N   UNL     1       6.401  -5.615  -5.773  0.00  0.00    -0.313 N 
ATOM     22  H   UNL     1       6.015  -3.426  -4.462  0.00  0.00    +0.151 HD
ATOM     23  H   UNL     1       6.495  -6.583  -6.287  0.00  0.00    +0.146 HD
ATOM     24  H   UNL     1       7.099  -4.798  -6.008  0.00  0.00    +0.146 HD
ENDBRANCH  17  18
BRANCH  17  25
ATOM     25  C   UNL     1       4.743  -4.551  -1.869  0.00  0.00    +0.015 C 
ATOM     26  C   UNL     1       6.078  -3.891  -1.521  0.00  0.00    +0.010 C 
BRANCH  25  28
ATOM     27  C   UNL     1       3.564  -6.737  -2.139  0.00  0.00    +0.004 C 
ATOM     28  C   UNL     1       4.924  -6.069  -1.928  0.00  0.00    +0.002 C 
ENDBRANCH  25  28
ENDBRANCH  17  25
ENDBRANCH   1  17
TORSDOF 6
