REMARK  Name = ZINC12655066
REMARK  11 active torsions:
REMARK  status: ('A' for Active; 'I' for Inactive)
REMARK    1  A    between atoms: C_1  and  C_2
REMARK    2  A    between atoms: C_2  and  C_3
REMARK    3  A    between atoms: C_4  and  O_37
REMARK    4  A    between atoms: C_5  and  N_9
REMARK    5  A    between atoms: C_7  and  C_8
REMARK    6  A    between atoms: N_9  and  C_10
REMARK    7  A    between atoms: C_10  and  C_11
REMARK    8  A    between atoms: C_11  and  C_13
REMARK    9  A    between atoms: C_13  and  O_36
REMARK   10  A    between atoms: C_18  and  C_35
REMARK   11  A    between atoms: C_33  and  C_34
REMARK                            x       y       z     vdW  Elec       q    Type
REMARK                         _______ _______ _______ _____ _____    ______ ____
ROOT
ATOM      1  C   UNL     1       0.474   8.777  -2.937  0.00  0.00    +0.131 C 
ATOM      2  C   UNL     1       1.778   8.669  -3.765  0.00  0.00    +0.043 C 
ATOM      3  C   UNL     1       2.350   7.250  -3.502  0.00  0.00    +0.008 C 
ATOM      4  C   UNL     1       1.179   6.513  -2.835  0.00  0.00    +0.002 C 
ATOM      5  C   UNL     1       0.574   7.608  -1.934  0.00  0.00    +0.007 C 
ATOM      6  C   UNL     1      -0.746   7.168  -1.351  0.00  0.00    +0.010 C 
ATOM      7  C   UNL     1      -0.756   5.653  -1.107  0.00  0.00    +0.005 C 
ATOM      8  C   UNL     1       0.648   5.131  -0.828  0.00  0.00    +0.002 C 
ATOM      9  C   UNL     1       1.513   5.259  -2.083  0.00  0.00    -0.003 C 
ATOM     10  C   UNL     1       2.987   5.101  -1.750  0.00  0.00    +0.008 C 
ATOM     11  C   UNL     1       3.175   3.967  -0.738  0.00  0.00    +0.032 C 
ATOM     12  C   UNL     1       1.964   3.064  -0.759  0.00  0.00    -0.060 C 
ATOM     13  C   UNL     1       2.094   1.780  -1.072  0.00  0.00    +0.046 C 
ATOM     14  C   UNL     1       0.939   0.887  -1.104  0.00  0.00    +0.156 C 
ATOM     15  O   UNL     1       1.097  -0.297  -1.329  0.00  0.00    -0.293 OA
ATOM     16  C   UNL     1      -0.448   1.425  -0.867  0.00  0.00    +0.080 C 
ATOM     17  C   UNL     1      -0.486   2.921  -1.175  0.00  0.00    +0.019 C 
ATOM     18  C   UNL     1       0.616   3.652  -0.416  0.00  0.00    -0.007 C 
ATOM     19  C   UNL     1       0.381   3.554   1.092  0.00  0.00    +0.016 C 
ATOM     20  C   UNL     1       1.536   8.047  -0.826  0.00  0.00    +0.015 C 
ENDROOT
BRANCH   1  21
ATOM     21  C   UNL     1       0.420  10.085  -2.199  0.00  0.00    +0.182 C 
ATOM     22  O   UNL     1       1.048  10.229  -1.177  0.00  0.00    -0.293 OA
BRANCH  21  23
ATOM     23  C   UNL     1      -0.417  11.218  -2.733  0.00  0.00    +0.179 C 
BRANCH  23  24
ATOM     24  N   UNL     1      -0.302  12.374  -1.840  0.00  0.00    -0.334 N 
ATOM     25  H   UNL     1       0.254  12.321  -1.048  0.00  0.00    +0.147 HD
BRANCH  24  28
ATOM     26  C   UNL     1      -1.599  15.811  -1.615  0.00  0.00    +0.060 A 
ATOM     27  C   UNL     1      -0.901  14.663  -1.288  0.00  0.00    +0.157 A 
ATOM     28  C   UNL     1      -0.993  13.550  -2.130  0.00  0.00    +0.073 A 
ATOM     29  C   UNL     1      -1.797  13.646  -3.263  0.00  0.00    +0.047 A 
ATOM     30  C   UNL     1      -2.465  14.828  -3.515  0.00  0.00    +0.015 A 
ATOM     31  C   UNL     1      -3.338  14.942  -4.738  0.00  0.00    +0.063 C 
ATOM     32  N   UNL     1      -2.390  15.927  -2.717  0.00  0.00    -0.359 N 
ATOM     33  H   UNL     1      -2.900  16.792  -2.932  0.00  0.00    +0.165 HD
BRANCH  26  35
ATOM     34  C   UNL     1      -2.603  16.953   0.344  0.00  0.00    +0.010 C 
ATOM     35  C   UNL     1      -1.506  17.020  -0.720  0.00  0.00    +0.053 C 
ENDBRANCH  26  35
BRANCH  27  36
ATOM     36  O   UNL     1      -0.133  14.618  -0.166  0.00  0.00    -0.503 OA
ATOM     37  H   UNL     1       0.782  14.898  -0.304  0.00  0.00    +0.292 HD
ENDBRANCH  27  36
ENDBRANCH  24  28
ENDBRANCH  23  24
ENDBRANCH  21  23
ENDBRANCH   1  21
BRANCH   1  38
ATOM     38  O   UNL     1      -0.666   8.615  -3.776  0.00  0.00    -0.380 OA
ATOM     39  H   UNL     1      -0.779   9.321  -4.426  0.00  0.00    +0.211 HD
ENDBRANCH   1  38
TORSDOF 7
