REMARK  Name = ZINC40314360
REMARK  10 active torsions:
REMARK  status: ('A' for Active; 'I' for Inactive)
REMARK    1  A    between atoms: C_1  and  C_2
REMARK    2  A    between atoms: C_2  and  C_4
REMARK    3  A    between atoms: C_2  and  N_10
REMARK    4  A    between atoms: C_4  and  C_5
REMARK    5  A    between atoms: C_5  and  C_6
REMARK    6  A    between atoms: C_6  and  C_7
REMARK    7  A    between atoms: C_7  and  C_8
REMARK    8  A    between atoms: C_7  and  C_9
REMARK    9  A    between atoms: C_11  and  C_13
REMARK   10  A    between atoms: C_17  and  N_19
REMARK                            x       y       z     vdW  Elec       q    Type
REMARK                         _______ _______ _______ _____ _____    ______ ____
ROOT
ATOM      1  N   UNL     1       0.688  -0.476  -1.203  0.00  0.00    -0.309 N 
ATOM      2  C   UNL     1       2.031  -0.587  -1.215  0.00  0.00    +0.244 C 
ATOM      3  O   UNL     1       2.673  -0.295  -0.225  0.00  0.00    -0.270 OA
ATOM      4  H   UNL     1       0.175  -0.710  -1.993  0.00  0.00    +0.149 HD
ENDROOT
BRANCH   2   5
ATOM      5  C   UNL     1       2.723  -1.064  -2.431  0.00  0.00    +0.039 A 
ATOM      6  C   UNL     1       1.987  -1.395  -3.571  0.00  0.00    +0.014 A 
ATOM      7  C   UNL     1       2.635  -1.839  -4.705  0.00  0.00    +0.018 A 
ATOM      8  C   UNL     1       4.013  -1.959  -4.718  0.00  0.00    +0.039 A 
ATOM      9  C   UNL     1       4.755  -1.631  -3.588  0.00  0.00    +0.039 A 
ATOM     10  C   UNL     1       4.113  -1.179  -2.446  0.00  0.00    +0.037 A 
ATOM     11 BR   UNL     1       4.892  -2.569  -6.277  0.00  0.00    -0.048 Br
BRANCH   9  12
ATOM     12  N   UNL     1       6.147  -1.754  -3.605  0.00  0.00    -0.357 N 
ATOM     13  H   UNL     1       6.596  -2.068  -4.406  0.00  0.00    +0.142 HD
ATOM     14  H   UNL     1       6.664  -1.526  -2.817  0.00  0.00    +0.142 HD
ENDBRANCH   9  12
ENDBRANCH   2   5
BRANCH   1  16
ATOM     15  C   UNL     1      -0.019   1.526   0.010  0.00  0.00    +0.028 C 
ATOM     16  C   UNL     1       0.002  -0.004   0.002  0.00  0.00    +0.070 C 
BRANCH  16  17
ATOM     17  C   UNL     1      -1.433  -0.534   0.013  0.00  0.00    +0.022 C 
BRANCH  17  18
ATOM     18  C   UNL     1      -1.413  -2.059   0.130  0.00  0.00    +0.002 C 
BRANCH  18  19
ATOM     19  C   UNL     1      -2.849  -2.589   0.141  0.00  0.00    +0.003 C 
BRANCH  19  20
ATOM     20  C   UNL     1      -2.829  -4.114   0.258  0.00  0.00    -0.017 C 
ATOM     21  C   UNL     1      -2.240  -4.514   1.613  0.00  0.00    +0.007 C 
ATOM     22  C   UNL     1      -4.256  -4.653   0.144  0.00  0.00    +0.007 C 
ENDBRANCH  19  20
ENDBRANCH  18  19
ENDBRANCH  17  18
ENDBRANCH  16  17
ENDBRANCH   1  16
TORSDOF 7
