REMARK  Name = ZINC66134894
REMARK  10 active torsions:
REMARK  status: ('A' for Active; 'I' for Inactive)
REMARK    1  A    between atoms: C_1  and  C_2
REMARK    2  A    between atoms: C_3  and  C_22
REMARK    3  A    between atoms: C_4  and  C_9
REMARK    4  A    between atoms: C_12  and  O_16
REMARK    5  A    between atoms: O_16  and  C_17
REMARK    6  A    between atoms: C_17  and  C_18
REMARK    7  A    between atoms: C_18  and  C_19
REMARK    8  A    between atoms: C_19  and  C_20
REMARK    9  A    between atoms: C_19  and  C_21
REMARK   10  A    between atoms: N_24  and  N_25
REMARK                            x       y       z     vdW  Elec       q    Type
REMARK                         _______ _______ _______ _____ _____    ______ ____
ROOT
ATOM      1  C   UNL     1      -0.018   1.503   0.010  0.00  0.00    +0.066 C 
ATOM      2  C   UNL     1       0.002  -0.004   0.002  0.00  0.00    +0.056 A 
ATOM      3  C   UNL     1       0.006  -0.707  -1.208  0.00  0.00    +0.085 A 
ATOM      4  C   UNL     1       0.025  -2.118  -1.159  0.00  0.00    +0.088 A 
ATOM      5  N   UNL     1       0.039  -2.717   0.028  0.00  0.00    -0.214 NA
ATOM      6  C   UNL     1       0.035  -2.006   1.145  0.00  0.00    +0.213 A 
ATOM      7  N   UNL     1       0.022  -0.679   1.136  0.00  0.00    -0.219 NA
ATOM      8  N   UNL     1       0.049  -2.666   2.357  0.00  0.00    -0.327 N 
ATOM      9  H   UNL     1       0.062  -3.636   2.381  0.00  0.00    +0.145 HD
ATOM     10  H   UNL     1       0.046  -2.161   3.184  0.00  0.00    +0.145 HD
ENDROOT
BRANCH   4  11
ATOM     11  C   UNL     1       0.030  -2.916  -2.406  0.00  0.00    +0.003 A 
ATOM     12  C   UNL     1      -0.670  -2.466  -3.527  0.00  0.00    +0.014 A 
ATOM     13  C   UNL     1      -0.663  -3.210  -4.686  0.00  0.00    +0.047 A 
ATOM     14  C   UNL     1       0.038  -4.408  -4.741  0.00  0.00    +0.134 A 
ATOM     15  C   UNL     1       0.737  -4.859  -3.627  0.00  0.00    +0.060 A 
ATOM     16  C   UNL     1       0.739  -4.117  -2.465  0.00  0.00    +0.029 A 
ATOM     17 BR   UNL     1       1.690  -6.490  -3.707  0.00  0.00    -0.046 Br
BRANCH  14  18
ATOM     18  O   UNL     1       0.042  -5.139  -5.885  0.00  0.00    -0.491 OA
BRANCH  18  19
ATOM     19  C   UNL     1      -0.696  -4.617  -6.991  0.00  0.00    +0.229 C 
BRANCH  19  20
ATOM     20  C   UNL     1      -0.575  -5.571  -8.181  0.00  0.00    +0.044 C 
BRANCH  20  21
ATOM     21  C   UNL     1      -1.366  -5.012  -9.366  0.00  0.00    -0.014 C 
ATOM     22  C   UNL     1      -0.729  -3.701  -9.831  0.00  0.00    +0.007 C 
ATOM     23  C   UNL     1      -1.349  -6.023 -10.513  0.00  0.00    +0.007 C 
ENDBRANCH  20  21
ENDBRANCH  19  20
ENDBRANCH  18  19
ENDBRANCH  14  18
ENDBRANCH   4  11
BRANCH   3  24
ATOM     24  C   UNL     1      -0.010   0.006  -2.498  0.00  0.00    +0.261 C 
ATOM     25  O   UNL     1       1.036   0.314  -3.035  0.00  0.00    -0.269 OA
ATOM     26  N   UNL     1      -1.185   0.315  -3.082  0.00  0.00    -0.249 N 
ATOM     27  H   UNL     1      -2.019   0.069  -2.653  0.00  0.00    +0.169 HD
BRANCH  26  28
ATOM     28  N   UNL     1      -1.200   0.976  -4.277  0.00  0.00    -0.254 NA
ATOM     29  H   UNL     1      -0.670   0.475  -4.974  0.00  0.00    +0.140 HD
ATOM     30  H   UNL     1      -2.145   1.138  -4.589  0.00  0.00    +0.140 HD
ENDBRANCH  26  28
ENDBRANCH   3  24
TORSDOF 7
