REMARK  Name = ZINC05044855
REMARK  7 active torsions:
REMARK  status: ('A' for Active; 'I' for Inactive)
REMARK    1  A    between atoms: C_1  and  C_2
REMARK    2  A    between atoms: C_2  and  C_3
REMARK    3  A    between atoms: C_3  and  C_4
REMARK    4  A    between atoms: C_4  and  C_5
REMARK    5  A    between atoms: C_12  and  N_28
REMARK    6  A    between atoms: C_13  and  C_26
REMARK    7  A    between atoms: C_14  and  C_16
REMARK                            x       y       z     vdW  Elec       q    Type
REMARK                         _______ _______ _______ _____ _____    ______ ____
ROOT
ATOM      1  C   UNL     1      -0.016   1.349   0.009  0.00  0.00    +0.044 A 
ATOM      2  C   UNL     1       1.256   1.773  -0.000  0.00  0.00    +0.049 A 
ATOM      3  C   UNL     1       2.097   0.638  -0.016  0.00  0.00    +0.245 A 
ATOM      4  N   UNL     1       1.342  -0.422  -0.013  0.00  0.00    -0.135 NA
ATOM      5  N   UNL     1       0.002  -0.004   0.002  0.00  0.00    -0.278 N 
ATOM      6  H   UNL     1      -0.799  -0.602   0.007  0.00  0.00    +0.189 HD
ATOM      7  O   UNL     1       3.453   0.745  -0.031  0.00  0.00    -0.421 OA
ATOM      8  C   UNL     1       3.977   1.957  -0.304  0.00  0.00    +0.201 C 
ATOM      9  C   UNL     1       3.276   3.110  -0.307  0.00  0.00    +0.098 C 
ATOM     10  C   UNL     1       1.802   3.178   0.004  0.00  0.00    +0.103 C 
ENDROOT
BRANCH  10  11
ATOM     11  C   UNL     1       1.597   3.799   1.362  0.00  0.00    -0.010 A 
ATOM     12  C   UNL     1       2.082   3.346   2.529  0.00  0.00    +0.088 A 
ATOM     13  N   UNL     1       1.692   4.171   3.548  0.00  0.00    -0.360 N 
ATOM     14  H   UNL     1       1.922   4.050   4.482  0.00  0.00    +0.165 HD
ATOM     15  C   UNL     1       0.918   5.196   3.051  0.00  0.00    +0.047 A 
ATOM     16  C   UNL     1       0.825   5.008   1.659  0.00  0.00    +0.004 A 
ATOM     17  C   UNL     1       0.092   5.907   0.883  0.00  0.00    +0.010 A 
ATOM     18  C   UNL     1      -0.532   6.967   1.478  0.00  0.00    +0.001 A 
ATOM     19  C   UNL     1      -0.442   7.157   2.850  0.00  0.00    +0.002 A 
ATOM     20  C   UNL     1       0.276   6.282   3.636  0.00  0.00    +0.026 A 
ENDBRANCH  10  11
BRANCH   8  21
ATOM     21  N   UNL     1       5.316   2.022  -0.599  0.00  0.00    -0.328 N 
ATOM     22  H   UNL     1       5.727   2.877  -0.799  0.00  0.00    +0.145 HD
ATOM     23  H   UNL     1       5.851   1.213  -0.606  0.00  0.00    +0.145 HD
ENDBRANCH   8  21
BRANCH   9  24
ATOM     24  C   UNL     1       3.964   4.326  -0.621  0.00  0.00    +0.101 C 
ATOM     25  N   UNL     1       4.510   5.291  -0.870  0.00  0.00    -0.191 NA
ENDBRANCH   9  24
BRANCH   1  26
ATOM     26  C   UNL     1      -1.245   2.222   0.020  0.00  0.00    +0.055 C 
BRANCH  26  27
ATOM     27  C   UNL     1      -1.595   2.627  -1.413  0.00  0.00    +0.006 C 
BRANCH  27  29
ATOM     28  C   UNL     1      -3.192   3.918  -2.835  0.00  0.00    +0.004 C 
ATOM     29  C   UNL     1      -2.842   3.513  -1.402  0.00  0.00    -0.003 C 
ENDBRANCH  27  29
ENDBRANCH  26  27
ENDBRANCH   1  26
TORSDOF 6
