REMARK  Name = ZINC39711255
REMARK  14 active torsions:
REMARK  status: ('A' for Active; 'I' for Inactive)
REMARK    1  A    between atoms: C_1  and  C_2
REMARK    2  A    between atoms: C_2  and  C_3
REMARK    3  A    between atoms: C_3  and  C_4
REMARK    4  A    between atoms: C_3  and  C_5
REMARK    5  A    between atoms: C_3  and  N_6
REMARK    6  A    between atoms: C_7  and  C_12
REMARK    7  A    between atoms: C_12  and  C_14
REMARK    8  A    between atoms: C_12  and  N_28
REMARK    9  A    between atoms: C_19  and  C_27
REMARK   10  A    between atoms: C_20  and  C_26
REMARK   11  A    between atoms: N_28  and  C_29
REMARK   12  A    between atoms: N_28  and  C_36
REMARK   13  A    between atoms: C_29  and  C_30
REMARK   14  A    between atoms: C_36  and  C_37
REMARK                            x       y       z     vdW  Elec       q    Type
REMARK                         _______ _______ _______ _____ _____    ______ ____
ROOT
ATOM      1  C   UNL     1       1.231  -0.581  -4.330  0.00  0.00    -0.009 C 
ENDROOT
BRANCH   1   2
ATOM      2  C   UNL     1       2.185  -0.811  -3.156  0.00  0.00    +0.088 C 
ATOM      3  C   UNL     1       2.743   0.536  -2.739  0.00  0.00    -0.006 C 
ATOM      4  C   UNL     1       4.097   0.687  -2.764  0.00  0.00    -0.007 A 
ATOM      5  C   UNL     1       4.719   1.954  -2.378  0.00  0.00    +0.013 A 
ATOM      6  C   UNL     1       6.072   2.059  -2.419  0.00  0.00    -0.047 A 
ATOM      7  C   UNL     1       6.872   0.989  -2.820  0.00  0.00    -0.046 A 
ATOM      8  C   UNL     1       6.357  -0.213  -3.191  0.00  0.00    +0.027 A 
ATOM      9  C   UNL     1       4.966  -0.426  -3.183  0.00  0.00    +0.041 A 
ATOM     10  N   UNL     1       4.472  -1.609  -3.549  0.00  0.00    -0.285 N 
ATOM     11  C   UNL     1       3.177  -1.875  -3.566  0.00  0.00    +0.223 C 
ATOM     12  O   UNL     1       2.786  -2.975  -3.910  0.00  0.00    -0.275 OA
ATOM     13  C   UNL     1       8.368   1.172  -2.842  0.00  0.00    +0.044 C 
ATOM     14  C   UNL     1       6.724   3.359  -2.023  0.00  0.00    +0.044 C 
ATOM     15  H   UNL     1       5.091  -2.306  -3.815  0.00  0.00    +0.155 HD
ENDBRANCH   1   2
BRANCH   1  17
ATOM     16  N   UNL     1      -0.422  -2.153  -3.382  0.00  0.00    -0.182 NA
ATOM     17  C   UNL     1       0.403  -1.845  -4.569  0.00  0.00    +0.205 C 
ATOM     18  N   UNL     1      -0.570  -1.627  -5.648  0.00  0.00    -0.152 NA
ATOM     19  N   UNL     1      -1.707  -1.774  -5.195  0.00  0.00    -0.070 NA
ATOM     20  N   UNL     1      -1.714  -2.093  -3.837  0.00  0.00    -0.179 N 
ATOM     21  H   UNL     1      -2.506  -2.248  -3.300  0.00  0.00    +0.191 HD
BRANCH  16  22
ATOM     22  C   UNL     1      -0.195  -1.171  -2.313  0.00  0.00    +0.037 C 
ATOM     23  C   UNL     1       0.231   0.163  -2.928  0.00  0.00    +0.029 C 
ATOM     24  C   UNL     1       0.908  -1.679  -1.381  0.00  0.00    +0.029 C 
BRANCH  22  26
ATOM     25  C   UNL     1      -1.286   0.135  -0.484  0.00  0.00    +0.006 C 
ATOM     26  C   UNL     1      -1.486  -0.976  -1.516  0.00  0.00    +0.020 C 
ENDBRANCH  22  26
ENDBRANCH  16  22
ENDBRANCH   1  17
BRANCH   1  27
ATOM     27  N   UNL     1       2.007  -0.268  -5.537  0.00  0.00    +0.390 N 
ATOM     28  H   UNL     1       2.658  -1.016  -5.722  0.00  0.00    -0.080 HD
BRANCH  27  29
ATOM     29  C   UNL     1       2.745   0.986  -5.333  0.00  0.00    -0.042 C 
BRANCH  29  30
ATOM     30  C   UNL     1       1.782   2.079  -4.949  0.00  0.00    -0.064 A 
ATOM     31  C   UNL     1       0.893   2.577  -5.883  0.00  0.00    +0.002 A 
ATOM     32  C   UNL     1       0.010   3.580  -5.530  0.00  0.00    +0.000 A 
ATOM     33  C   UNL     1       0.016   4.085  -4.243  0.00  0.00    +0.000 A 
ATOM     34  C   UNL     1       0.905   3.587  -3.309  0.00  0.00    +0.000 A 
ATOM     35  C   UNL     1       1.785   2.581  -3.661  0.00  0.00    +0.002 A 
ENDBRANCH  29  30
ENDBRANCH  27  29
BRANCH  27  36
ATOM     36  C   UNL     1       1.095  -0.119  -6.680  0.00  0.00    -0.040 C 
BRANCH  36  37
ATOM     37  C   UNL     1       1.897   0.085  -7.939  0.00  0.00    -0.046 A 
ATOM     38  C   UNL     1       2.171   1.364  -8.398  0.00  0.00    +0.005 A 
ATOM     39  C   UNL     1       2.913   1.503  -9.561  0.00  0.00    +0.020 A 
ATOM     40  C   UNL     1       3.351   0.370 -10.220  0.00  0.00    +0.111 A 
ATOM     41  N   UNL     1       3.071  -0.832  -9.754  0.00  0.00    -0.263 NA
ATOM     42  C   UNL     1       2.374  -1.002  -8.648  0.00  0.00    +0.112 A 
ENDBRANCH  36  37
ENDBRANCH  27  36
ENDBRANCH   1  27
TORSDOF 9
