REMARK  Name = ZINC03486657
REMARK  8 active torsions:
REMARK  status: ('A' for Active; 'I' for Inactive)
REMARK    1  A    between atoms: C_4  and  C_7
REMARK    2  A    between atoms: C_7  and  C_8
REMARK    3  A    between atoms: C_8  and  C_9
REMARK    4  A    between atoms: C_9  and  N_10
REMARK    5  A    between atoms: C_11  and  C_13
REMARK    6  A    between atoms: C_13  and  C_14
REMARK    7  A    between atoms: C_14  and  C_16
REMARK    8  A    between atoms: C_14  and  N_23
REMARK                            x       y       z     vdW  Elec       q    Type
REMARK                         _______ _______ _______ _____ _____    ______ ____
ROOT
ATOM      1  C   UNL     1       8.886  -3.601   4.388  0.00  0.00    +0.113 C 
ENDROOT
BRANCH   1   2
ATOM      2  C   UNL     1       9.226  -3.741   5.849  0.00  0.00    -0.027 A 
ATOM      3  C   UNL     1       8.520  -4.628   6.640  0.00  0.00    +0.007 A 
ATOM      4  C   UNL     1       8.831  -4.758   7.981  0.00  0.00    +0.020 A 
ATOM      5  C   UNL     1       9.849  -3.999   8.530  0.00  0.00    +0.041 A 
ATOM      6  C   UNL     1      10.555  -3.112   7.738  0.00  0.00    +0.020 A 
ATOM      7  C   UNL     1      10.247  -2.987   6.396  0.00  0.00    +0.007 A 
ATOM      8 CL   UNL     1      10.240  -4.161  10.214  0.00  0.00    -0.084 Cl
ENDBRANCH   1   2
BRANCH   1   9
ATOM      9  N   UNL     1       8.729  -4.930   3.792  0.00  0.00    -0.292 N 
ATOM     10  C   UNL     1       9.806  -5.590   3.323  0.00  0.00    +0.298 C 
ATOM     11  O   UNL     1      10.919  -5.123   3.475  0.00  0.00    -0.253 OA
ATOM     12  N   UNL     1       9.651  -6.767   2.686  0.00  0.00    -0.313 N 
ATOM     13  H   UNL     1       7.849  -5.336   3.736  0.00  0.00    +0.151 HD
ATOM     14  H   UNL     1       8.763  -7.140   2.565  0.00  0.00    +0.146 HD
ATOM     15  H   UNL     1      10.426  -7.242   2.348  0.00  0.00    +0.146 HD
ENDBRANCH   1   9
BRANCH   1  16
ATOM     16  C   UNL     1       7.579  -2.819   4.241  0.00  0.00    +0.122 C 
BRANCH  16  18
ATOM     17  N   UNL     1       6.197  -1.896   2.408  0.00  0.00    -0.315 N 
ATOM     18  C   UNL     1       7.303  -2.572   2.780  0.00  0.00    +0.215 C 
ATOM     19  O   UNL     1       8.075  -2.981   1.939  0.00  0.00    -0.276 OA
ATOM     20  H   UNL     1       5.579  -1.569   3.080  0.00  0.00    +0.149 HD
BRANCH  17  21
ATOM     21  C   UNL     1       5.929  -1.656   0.988  0.00  0.00    +0.104 C 
BRANCH  21  22
ATOM     22  C   UNL     1       4.622  -0.874   0.841  0.00  0.00    +0.023 C 
BRANCH  22  23
ATOM     23  C   UNL     1       4.341  -0.624  -0.642  0.00  0.00    +0.036 C 
BRANCH  23  27
ATOM     24  C   UNL     1       0.693   1.560  -1.054  0.00  0.00    +0.000 A 
ATOM     25  C   UNL     1       1.892   2.235  -0.927  0.00  0.00    +0.000 A 
ATOM     26  C   UNL     1       3.073   1.529  -0.794  0.00  0.00    +0.003 A 
ATOM     27  C   UNL     1       3.054   0.147  -0.786  0.00  0.00    -0.047 A 
ATOM     28  C   UNL     1       1.855  -0.529  -0.912  0.00  0.00    +0.003 A 
ATOM     29  C   UNL     1       0.674   0.177  -1.047  0.00  0.00    +0.000 A 
ENDBRANCH  23  27
ENDBRANCH  22  23
ENDBRANCH  21  22
ENDBRANCH  17  21
ENDBRANCH  16  18
ENDBRANCH   1  16
TORSDOF 8
