REMARK  Name = ZINC04322165
REMARK  7 active torsions:
REMARK  status: ('A' for Active; 'I' for Inactive)
REMARK    1  A    between atoms: C_5  and  N_7
REMARK    2  A    between atoms: N_7  and  C_8
REMARK    3  A    between atoms: C_8  and  N_10
REMARK    4  A    between atoms: N_10  and  N_11
REMARK    5  A    between atoms: N_11  and  C_12
REMARK    6  A    between atoms: C_12  and  N_14
REMARK    7  A    between atoms: N_14  and  C_15
REMARK                            x       y       z     vdW  Elec       q    Type
REMARK                         _______ _______ _______ _____ _____    ______ ____
ROOT
ATOM      1  N   UNL     1      -1.818  -1.854  -3.344  0.00  0.00    -0.246 N 
ATOM      2  H   UNL     1      -0.862  -1.987  -3.247  0.00  0.00    +0.172 HD
ENDROOT
BRANCH   1   3
ATOM      3  C   UNL     1      -2.457  -2.332  -4.430  0.00  0.00    +0.151 C 
ATOM      4  S   UNL     1      -1.581  -3.174  -5.637  0.00  0.00    -0.017 S 
BRANCH   3   5
ATOM      5  N   UNL     1      -3.785  -2.148  -4.566  0.00  0.00    -0.295 N 
ATOM      6  H   UNL     1      -4.294  -1.743  -3.847  0.00  0.00    +0.154 HD
BRANCH   5  11
ATOM      7  C   UNL     1      -4.500  -2.643  -8.139  0.00  0.00    +0.002 A 
ATOM      8  C   UNL     1      -5.703  -3.322  -8.074  0.00  0.00    +0.002 A 
ATOM      9  C   UNL     1      -6.272  -3.612  -6.848  0.00  0.00    +0.022 A 
ATOM     10  C   UNL     1      -5.636  -3.229  -5.682  0.00  0.00    +0.062 A 
ATOM     11  C   UNL     1      -4.429  -2.542  -5.744  0.00  0.00    +0.051 A 
ATOM     12  C   UNL     1      -3.861  -2.253  -6.978  0.00  0.00    +0.025 A 
ATOM     13 CL   UNL     1      -6.346  -3.600  -4.142  0.00  0.00    -0.082 Cl
ENDBRANCH   5  11
ENDBRANCH   3   5
ENDBRANCH   1   3
BRANCH   1  14
ATOM     14  N   UNL     1      -2.534  -1.166  -2.357  0.00  0.00    -0.247 N 
ATOM     15  H   UNL     1      -3.490  -1.033  -2.454  0.00  0.00    +0.172 HD
BRANCH  14  16
ATOM     16  C   UNL     1      -1.895  -0.688  -1.270  0.00  0.00    +0.147 C 
ATOM     17  S   UNL     1      -2.770   0.154  -0.064  0.00  0.00    -0.017 S 
BRANCH  16  18
ATOM     18  N   UNL     1      -0.567  -0.872  -1.135  0.00  0.00    -0.322 N 
ATOM     19  H   UNL     1      -0.071  -1.348  -1.819  0.00  0.00    +0.148 HD
BRANCH  18  20
ATOM     20  C   UNL     1       0.128  -0.352   0.046  0.00  0.00    +0.079 C 
ATOM     21  C   UNL     1       0.552   1.121  -0.177  0.00  0.00    +0.030 C 
ATOM     22  C   UNL     1       2.110   1.077  -0.070  0.00  0.00    +0.014 C 
ATOM     23  C   UNL     1       2.287  -0.007   1.056  0.00  0.00    +0.017 C 
ATOM     24  C   UNL     1       1.483  -1.099   0.258  0.00  0.00    +0.032 C 
ATOM     25  C   UNL     1       2.183  -0.996  -1.102  0.00  0.00    -0.026 C 
ATOM     26  C   UNL     1       2.544   0.257  -1.292  0.00  0.00    -0.027 C 
ENDBRANCH  18  20
ENDBRANCH  16  18
ENDBRANCH  14  16
ENDBRANCH   1  14
TORSDOF 7
