REMARK  Name = ZINC37274620
REMARK  5 active torsions:
REMARK  status: ('A' for Active; 'I' for Inactive)
REMARK    1  A    between atoms: C_3  and  C_11
REMARK    2  A    between atoms: C_4  and  N_10
REMARK    3  A    between atoms: C_6  and  C_7
REMARK    4  A    between atoms: C_11  and  O_12
REMARK    5  A    between atoms: O_12  and  C_13
REMARK                            x       y       z     vdW  Elec       q    Type
REMARK                         _______ _______ _______ _____ _____    ______ ____
ROOT
ATOM      1  C   UNL     1      -0.017   1.391   0.010  0.00  0.00    +0.013 A 
ATOM      2  C   UNL     1       1.169   2.098   0.002  0.00  0.00    +0.009 A 
ATOM      3  C   UNL     1       2.378   1.428  -0.013  0.00  0.00    +0.010 A 
ATOM      4  C   UNL     1       2.408   0.038  -0.021  0.00  0.00    +0.032 A 
ATOM      5  C   UNL     1       1.222  -0.680  -0.013  0.00  0.00    +0.036 A 
ATOM      6  C   UNL     1       0.002  -0.004   0.002  0.00  0.00    +0.038 A 
ENDROOT
BRANCH   6   7
ATOM      7  C   UNL     1      -1.267  -0.763   0.011  0.00  0.00    +0.242 C 
ATOM      8  O   UNL     1      -1.248  -1.978   0.004  0.00  0.00    -0.270 OA
ATOM      9  N   UNL     1      -2.444  -0.107   0.026  0.00  0.00    -0.325 N 
ATOM     10  H   UNL     1      -2.459   0.862   0.031  0.00  0.00    +0.145 HD
ATOM     11  H   UNL     1      -3.277  -0.605   0.031  0.00  0.00    +0.145 HD
ENDBRANCH   6   7
BRANCH   4  12
ATOM     12  N   UNL     1       3.632  -0.634  -0.036  0.00  0.00    -0.358 N 
ATOM     13  H   UNL     1       4.462  -0.131  -0.042  0.00  0.00    +0.142 HD
ATOM     14  H   UNL     1       3.653  -1.604  -0.042  0.00  0.00    +0.142 HD
ENDBRANCH   4  12
BRANCH   3  15
ATOM     15  C   UNL     1       3.668   2.207  -0.022  0.00  0.00    +0.266 C 
BRANCH  15  16
ATOM     16  O   UNL     1       3.379   3.607  -0.012  0.00  0.00    -0.486 OA
BRANCH  16  17
ATOM     17  C   UNL     1       4.441   4.456  -0.018  0.00  0.00    +0.135 A 
ATOM     18  C   UNL     1       5.733   3.952  -0.039  0.00  0.00    +0.048 A 
ATOM     19  C   UNL     1       6.811   4.816  -0.045  0.00  0.00    +0.023 A 
ATOM     20  C   UNL     1       6.602   6.184  -0.031  0.00  0.00    +0.042 A 
ATOM     21  C   UNL     1       5.314   6.689  -0.010  0.00  0.00    +0.039 A 
ATOM     22  C   UNL     1       4.233   5.828  -0.009  0.00  0.00    +0.061 A 
ATOM     23 BR   UNL     1       2.473   6.519   0.012  0.00  0.00    -0.046 Br
ATOM     24 CL   UNL     1       7.958   7.268  -0.038  0.00  0.00    -0.084 Cl
ENDBRANCH  16  17
ENDBRANCH  15  16
ENDBRANCH   3  15
TORSDOF 5
