REMARK  Name = ZINC22314053
REMARK  10 active torsions:
REMARK  status: ('A' for Active; 'I' for Inactive)
REMARK    1  A    between atoms: C_1  and  C_2
REMARK    2  A    between atoms: N_7  and  C_9
REMARK    3  A    between atoms: C_12  and  C_15
REMARK    4  A    between atoms: C_15  and  N_16
REMARK    5  A    between atoms: C_17  and  C_19
REMARK    6  A    between atoms: C_19  and  N_20
REMARK    7  A    between atoms: N_20  and  C_21
REMARK    8  A    between atoms: N_20  and  S_30
REMARK    9  A    between atoms: C_24  and  N_27
REMARK   10  A    between atoms: S_30  and  C_33
REMARK                            x       y       z     vdW  Elec       q    Type
REMARK                         _______ _______ _______ _____ _____    ______ ____
ROOT
ATOM      1  C   UNL     1       5.233  -0.099  -2.287  0.00  0.00    +0.227 C 
ENDROOT
BRANCH   1   3
ATOM      2  N   UNL     1       7.666   0.280  -2.518  0.00  0.00    -0.310 N 
ATOM      3  C   UNL     1       6.667  -0.469  -2.011  0.00  0.00    +0.232 C 
ATOM      4  O   UNL     1       6.923  -1.442  -1.333  0.00  0.00    -0.274 OA
ATOM      5  H   UNL     1       7.434   1.162  -3.134  0.00  0.00    +0.149 HD
BRANCH   2   6
ATOM      6  C   UNL     1       9.061  -0.080  -2.251  0.00  0.00    +0.139 C 
BRANCH   6  10
ATOM      7  C   UNL     1      11.651   2.728  -4.167  0.00  0.00    +0.030 A 
ATOM      8  C   UNL     1      11.216   2.956  -2.867  0.00  0.00    +0.023 A 
ATOM      9  C   UNL     1      10.379   2.047  -2.251  0.00  0.00    +0.007 A 
ATOM     10  C   UNL     1       9.974   0.910  -2.926  0.00  0.00    -0.030 A 
ATOM     11  C   UNL     1      10.409   0.677  -4.218  0.00  0.00    +0.007 A 
ATOM     12  C   UNL     1      11.241   1.585  -4.842  0.00  0.00    +0.023 A 
BRANCH   7  18
ATOM     13  C   UNL     1      13.993   3.847  -8.275  0.00  0.00    +0.009 C 
ATOM     14  C   UNL     1      13.632   4.307  -6.861  0.00  0.00    +0.003 C 
ATOM     15  C   UNL     1      14.914   4.578  -6.069  0.00  0.00    +0.006 C 
ATOM     16  C   UNL     1      14.546   4.980  -4.638  0.00  0.00    +0.019 C 
ATOM     17  C   UNL     1      13.713   3.867  -3.999  0.00  0.00    +0.105 C 
ATOM     18  N   UNL     1      12.497   3.646  -4.793  0.00  0.00    -0.330 N 
ATOM     19  C   UNL     1      12.826   3.213  -6.157  0.00  0.00    +0.108 C 
ENDBRANCH   7  18
ENDBRANCH   6  10
ENDBRANCH   2   6
ENDBRANCH   1   3
BRANCH   1  20
ATOM     20  N   UNL     1       4.345  -1.062  -1.630  0.00  0.00    -0.194 N 
BRANCH  20  21
ATOM     21  C   UNL     1       4.018  -2.260  -2.269  0.00  0.00    +0.052 A 
ATOM     22  C   UNL     1       3.369  -2.239  -3.497  0.00  0.00    +0.027 A 
ATOM     23  C   UNL     1       3.053  -3.425  -4.130  0.00  0.00    +0.034 A 
ATOM     24  C   UNL     1       3.371  -4.633  -3.536  0.00  0.00    +0.126 A 
ATOM     25  C   UNL     1       4.012  -4.657  -2.311  0.00  0.00    +0.034 A 
ATOM     26  C   UNL     1       4.336  -3.475  -1.676  0.00  0.00    +0.027 A 
BRANCH  24  27
ATOM     27  N   UNL     1       3.026  -5.902  -4.214  0.00  0.00    +0.056 N 
ATOM     28  O   UNL     1       3.305  -6.967  -3.693  0.00  0.00    -0.126 OA
ATOM     29  O   UNL     1       2.461  -5.882  -5.293  0.00  0.00    -0.126 OA
ENDBRANCH  24  27
ENDBRANCH  20  21
BRANCH  20  30
ATOM     30  S   UNL     1       3.729  -0.729  -0.129  0.00  0.00    +0.075 S 
ATOM     31  O   UNL     1       4.682   0.094   0.528  0.00  0.00    -0.150 OA
ATOM     32  O   UNL     1       3.289  -1.967   0.413  0.00  0.00    -0.150 OA
BRANCH  30  33
ATOM     33  C   UNL     1       2.288   0.257  -0.364  0.00  0.00    +0.109 A 
ATOM     34  C   UNL     1       1.053  -0.347  -0.512  0.00  0.00    +0.029 A 
ATOM     35  C   UNL     1      -0.077   0.427  -0.697  0.00  0.00    +0.002 A 
ATOM     36  C   UNL     1       0.027   1.805  -0.734  0.00  0.00    +0.000 A 
ATOM     37  C   UNL     1       1.262   2.409  -0.586  0.00  0.00    +0.002 A 
ATOM     38  C   UNL     1       2.392   1.635  -0.401  0.00  0.00    +0.029 A 
ENDBRANCH  30  33
ENDBRANCH  20  30
ENDBRANCH   1  20
TORSDOF 9
