REMARK  Name = ZINC39948190
REMARK  7 active torsions:
REMARK  status: ('A' for Active; 'I' for Inactive)
REMARK    1  A    between atoms: C_1  and  C_2
REMARK    2  A    between atoms: C_5  and  N_9
REMARK    3  A    between atoms: C_10  and  C_27
REMARK    4  A    between atoms: C_13  and  S_14
REMARK    5  A    between atoms: S_14  and  C_15
REMARK    6  A    between atoms: C_15  and  C_16
REMARK    7  A    between atoms: C_16  and  C_18
REMARK                            x       y       z     vdW  Elec       q    Type
REMARK                         _______ _______ _______ _____ _____    ______ ____
ROOT
ATOM      1  N   UNL     1       0.035  -4.174  -0.060  0.00  0.00    -0.270 N 
ATOM      2  C   UNL     1      -0.882  -5.022   0.521  0.00  0.00    +0.169 A 
ATOM      3  N   UNL     1      -0.454  -6.247   0.323  0.00  0.00    -0.128 NA
ATOM      4  N   UNL     1       0.652  -6.226  -0.332  0.00  0.00    -0.122 NA
ATOM      5  C   UNL     1       0.996  -4.985  -0.599  0.00  0.00    +0.197 A 
ENDROOT
BRANCH   1  10
ATOM      6  C   UNL     1      -0.150   1.497  -0.213  0.00  0.00    +0.045 C 
ATOM      7  C   UNL     1      -0.100  -0.008  -0.172  0.00  0.00    -0.032 A 
ATOM      8  C   UNL     1      -0.263  -0.736  -1.337  0.00  0.00    +0.007 A 
ATOM      9  C   UNL     1      -0.218  -2.116  -1.302  0.00  0.00    +0.026 A 
ATOM     10  C   UNL     1      -0.010  -2.773  -0.097  0.00  0.00    +0.052 A 
ATOM     11  C   UNL     1       0.153  -2.041   1.071  0.00  0.00    +0.046 A 
ATOM     12  C   UNL     1       0.113  -0.660   1.030  0.00  0.00    +0.046 A 
ATOM     13 CL   UNL     1       0.324   0.258   2.488  0.00  0.00    -0.083 Cl
ENDBRANCH   1  10
BRANCH   2  14
ATOM     14  C   UNL     1      -2.115  -4.627   1.234  0.00  0.00    +0.020 A 
ATOM     15  C   UNL     1      -2.648  -3.348   1.058  0.00  0.00    +0.013 A 
ATOM     16  C   UNL     1      -3.799  -2.986   1.726  0.00  0.00    +0.021 A 
ATOM     17  C   UNL     1      -4.426  -3.887   2.570  0.00  0.00    +0.041 A 
ATOM     18  C   UNL     1      -3.903  -5.156   2.749  0.00  0.00    +0.021 A 
ATOM     19  C   UNL     1      -2.756  -5.533   2.082  0.00  0.00    +0.013 A 
ATOM     20 CL   UNL     1      -5.874  -3.422   3.408  0.00  0.00    -0.084 Cl
ENDBRANCH   2  14
BRANCH   5  21
ATOM     21  S   UNL     1       2.430  -4.465  -1.481  0.00  0.00    -0.078 S 
BRANCH  21  22
ATOM     22  C   UNL     1       3.267  -6.016  -1.911  0.00  0.00    +0.156 C 
BRANCH  22  23
ATOM     23  C   UNL     1       4.527  -5.710  -2.680  0.00  0.00    +0.172 C 
ATOM     24  O   UNL     1       4.830  -4.558  -2.914  0.00  0.00    -0.291 OA
BRANCH  23  25
ATOM     25  C   UNL     1       5.353  -6.762  -3.127  0.00  0.00    +0.024 C 
ATOM     26  C   UNL     1       6.537  -6.654  -3.834  0.00  0.00    +0.006 A 
ATOM     27  C   UNL     1       7.271  -5.545  -4.317  0.00  0.00    +0.010 A 
ATOM     28  C   UNL     1       8.426  -5.734  -4.994  0.00  0.00    +0.001 A 
ATOM     29  C   UNL     1       8.948  -7.012  -5.251  0.00  0.00    +0.002 A 
ATOM     30  C   UNL     1       8.325  -8.136  -4.834  0.00  0.00    +0.026 A 
ATOM     31  C   UNL     1       7.061  -8.018  -4.088  0.00  0.00    +0.043 A 
ATOM     32  N   UNL     1       6.266  -8.915  -3.578  0.00  0.00    -0.380 N 
ATOM     33  C   UNL     1       5.134  -8.246  -2.927  0.00  0.00    +0.152 C 
ATOM     34  H   UNL     1       6.402  -9.874  -3.619  0.00  0.00    +0.160 HD
ENDBRANCH  23  25
ENDBRANCH  22  23
ENDBRANCH  21  22
ENDBRANCH   5  21
TORSDOF 6
