REMARK  Name = ZINC00885970
REMARK  9 active torsions:
REMARK  status: ('A' for Active; 'I' for Inactive)
REMARK    1  A    between atoms: C_1  and  C_2
REMARK    2  A    between atoms: C_5  and  C_7
REMARK    3  A    between atoms: N_10  and  C_12
REMARK    4  A    between atoms: C_12  and  C_13
REMARK    5  A    between atoms: N_15  and  C_16
REMARK    6  A    between atoms: N_15  and  C_22
REMARK    7  A    between atoms: C_22  and  C_24
REMARK    8  A    between atoms: C_22  and  C_31
REMARK    9  A    between atoms: N_33  and  C_34
REMARK                            x       y       z     vdW  Elec       q    Type
REMARK                         _______ _______ _______ _____ _____    ______ ____
ROOT
ATOM      1  C   UNL     1       5.219  -5.217  -1.796  0.00  0.00    +0.240 C 
ATOM      2  O   UNL     1       4.571  -5.044  -2.806  0.00  0.00    -0.273 OA
ATOM      3  N   UNL     1       6.557  -5.366  -1.871  0.00  0.00    -0.281 N 
ENDROOT
BRANCH   3   4
ATOM      4  C   UNL     1       7.324  -5.711  -0.671  0.00  0.00    +0.077 C 
ATOM      5  C   UNL     1       8.820  -5.624  -0.979  0.00  0.00    +0.022 C 
ATOM      6  C   UNL     1       9.621  -5.984   0.274  0.00  0.00    +0.002 C 
ATOM      7  C   UNL     1       9.272  -7.409   0.709  0.00  0.00    +0.000 C 
ATOM      8  C   UNL     1       7.776  -7.497   1.017  0.00  0.00    +0.002 C 
ATOM      9  C   UNL     1       6.975  -7.136  -0.235  0.00  0.00    +0.022 C 
ENDBRANCH   3   4
BRANCH   1  10
ATOM     10  C   UNL     1       4.529  -5.267  -0.457  0.00  0.00    +0.264 C 
BRANCH  10  14
ATOM     11  C   UNL     1       1.325  -3.817  -0.752  0.00  0.00    +0.239 A 
ATOM     12  N   UNL     1       1.052  -5.116  -0.949  0.00  0.00    -0.105 NA
ATOM     13  N   UNL     1       2.168  -5.758  -0.862  0.00  0.00    -0.045 NA
ATOM     14  N   UNL     1       3.116  -4.921  -0.623  0.00  0.00    -0.154 N 
ATOM     15  N   UNL     1       2.627  -3.730  -0.557  0.00  0.00    -0.127 NA
BRANCH  11  20
ATOM     16  C   UNL     1      -0.573   0.823  -0.480  0.00  0.00    +0.086 C 
ATOM     17  C   UNL     1      -0.479  -0.672  -0.641  0.00  0.00    +0.103 A 
ATOM     18  C   UNL     1      -1.512  -1.503  -0.886  0.00  0.00    +0.045 A 
ATOM     19  C   UNL     1      -0.984  -2.807  -0.963  0.00  0.00    +0.053 A 
ATOM     20  C   UNL     1       0.356  -2.699  -0.760  0.00  0.00    +0.175 A 
ATOM     21  O   UNL     1       0.648  -1.398  -0.572  0.00  0.00    -0.457 OA
ENDBRANCH  11  20
ENDBRANCH  10  14
ENDBRANCH   1  10
BRANCH   3  22
ATOM     22  C   UNL     1       7.244  -5.183  -3.151  0.00  0.00    +0.192 C 
BRANCH  22  23
ATOM     23  C   UNL     1       8.291  -4.109  -3.011  0.00  0.00    -0.018 A 
ATOM     24  C   UNL     1       9.602  -4.372  -3.361  0.00  0.00    +0.009 A 
ATOM     25  C   UNL     1      10.563  -3.388  -3.232  0.00  0.00    +0.038 A 
ATOM     26  C   UNL     1      10.213  -2.137  -2.753  0.00  0.00    +0.123 A 
ATOM     27  C   UNL     1       8.899  -1.874  -2.403  0.00  0.00    +0.038 A 
ATOM     28  C   UNL     1       7.939  -2.859  -2.537  0.00  0.00    +0.009 A 
ATOM     29  F   UNL     1      11.152  -1.174  -2.627  0.00  0.00    -0.205 F 
ENDBRANCH  22  23
BRANCH  22  30
ATOM     30  C   UNL     1       7.902  -6.476  -3.558  0.00  0.00    +0.238 C 
ATOM     31  O   UNL     1       7.815  -7.452  -2.843  0.00  0.00    -0.273 OA
ATOM     32  N   UNL     1       8.588  -6.549  -4.716  0.00  0.00    -0.311 N 
ATOM     33  H   UNL     1       8.657  -5.768  -5.288  0.00  0.00    +0.149 HD
BRANCH  32  34
ATOM     34  C   UNL     1       9.228  -7.806  -5.111  0.00  0.00    +0.073 C 
ATOM     35  C   UNL     1      10.649  -7.885  -4.517  0.00  0.00    +0.022 C 
ATOM     36  C   UNL     1      11.486  -8.574  -5.623  0.00  0.00    +0.002 C 
ATOM     37  C   UNL     1      10.900  -7.967  -6.923  0.00  0.00    +0.002 C 
ATOM     38  C   UNL     1       9.387  -7.858  -6.641  0.00  0.00    +0.022 C 
ENDBRANCH  32  34
ENDBRANCH  22  30
ENDBRANCH   3  22
TORSDOF 8
