REMARK  Name = ZINC06685196
REMARK  4 active torsions:
REMARK  status: ('A' for Active; 'I' for Inactive)
REMARK    1  A    between atoms: C_1  and  C_2
REMARK    2  A    between atoms: C_5  and  C_8
REMARK    3  A    between atoms: N_12  and  N_13
REMARK    4  A    between atoms: C_14  and  C_15
REMARK                            x       y       z     vdW  Elec       q    Type
REMARK                         _______ _______ _______ _____ _____    ______ ____
ROOT
ATOM      1  C   UNL     1       0.271  -4.270  -0.016  0.00  0.00    +0.184 A 
ATOM      2  N   UNL     1       0.200  -5.020  -1.081  0.00  0.00    -0.152 NA
ATOM      3  N   UNL     1      -0.058  -6.335  -0.668  0.00  0.00    -0.253 N 
ATOM      4  C   UNL     1      -0.137  -6.330   0.678  0.00  0.00    +0.197 A 
ATOM      5  N   UNL     1       0.070  -5.065   1.096  0.00  0.00    -0.188 N 
ATOM      6  S   UNL     1      -0.438  -7.687   1.677  0.00  0.00    -0.010 S 
ATOM      7  H   UNL     1      -0.162  -7.107  -1.246  0.00  0.00    +0.191 HD
ENDROOT
BRANCH   1  12
ATOM      8  C   UNL     1       1.277   1.397   0.041  0.00  0.00    +0.044 C 
ATOM      9  C   UNL     1       1.014  -0.087   0.026  0.00  0.00    -0.050 A 
ATOM     10  C   UNL     1       0.958  -0.764  -1.179  0.00  0.00    +0.004 A 
ATOM     11  C   UNL     1       0.718  -2.123  -1.200  0.00  0.00    +0.012 A 
ATOM     12  C   UNL     1       0.530  -2.813  -0.002  0.00  0.00    +0.021 A 
ATOM     13  C   UNL     1       0.588  -2.124   1.210  0.00  0.00    +0.012 A 
ATOM     14  C   UNL     1       0.835  -0.766   1.217  0.00  0.00    +0.004 A 
ENDBRANCH   1  12
BRANCH   5  15
ATOM     15  N   UNL     1       0.077  -4.631   2.428  0.00  0.00    -0.170 NA
ATOM     16  C   UNL     1      -0.005  -5.495   3.393  0.00  0.00    +0.144 C 
BRANCH  16  17
ATOM     17  C   UNL     1      -0.115  -5.034   4.788  0.00  0.00    +0.030 A 
ATOM     18  C   UNL     1      -0.198  -5.962   5.830  0.00  0.00    +0.015 A 
ATOM     19  C   UNL     1      -0.300  -5.525   7.133  0.00  0.00    +0.039 A 
ATOM     20  C   UNL     1      -0.322  -4.167   7.413  0.00  0.00    +0.126 A 
ATOM     21  C   UNL     1      -0.241  -3.240   6.386  0.00  0.00    +0.077 A 
ATOM     22  C   UNL     1      -0.131  -3.665   5.076  0.00  0.00    +0.135 A 
ATOM     23  F   UNL     1      -0.046  -2.761   4.076  0.00  0.00    -0.205 F 
ATOM     24  F   UNL     1      -0.423  -3.746   8.692  0.00  0.00    -0.205 F 
ENDBRANCH  16  17
ENDBRANCH   5  15
TORSDOF 3
