REMARK  Name = ZINC00718493
REMARK  7 active torsions:
REMARK  status: ('A' for Active; 'I' for Inactive)
REMARK    1  A    between atoms: C_5  and  C_7
REMARK    2  A    between atoms: C_7  and  O_8
REMARK    3  A    between atoms: O_8  and  C_9
REMARK    4  A    between atoms: C_12  and  C_15
REMARK    5  A    between atoms: C_18  and  C_29
REMARK    6  A    between atoms: C_24  and  N_28
REMARK    7  A    between atoms: C_25  and  C_26
REMARK                            x       y       z     vdW  Elec       q    Type
REMARK                         _______ _______ _______ _____ _____    ______ ____
ROOT
ATOM      1  C   UNL     1      -0.776  -8.274  -0.037  0.00  0.00    +0.102 C 
ATOM      2  C   UNL     1      -1.547  -8.700   1.186  0.00  0.00    +0.055 A 
ATOM      3  C   UNL     1      -1.133  -8.745   2.522  0.00  0.00    +0.107 A 
ATOM      4  N   UNL     1      -2.148  -9.183   3.246  0.00  0.00    -0.170 NA
ATOM      5  N   UNL     1      -3.231  -9.427   2.387  0.00  0.00    -0.246 N 
ATOM      6  H   UNL     1      -4.105  -9.754   2.650  0.00  0.00    +0.192 HD
ATOM      7  C   UNL     1      -2.842  -9.125   1.130  0.00  0.00    +0.223 A 
ATOM      8  O   UNL     1      -3.538  -9.201  -0.032  0.00  0.00    -0.423 OA
ATOM      9  C   UNL     1      -2.844  -9.107  -1.184  0.00  0.00    +0.200 C 
ATOM     10  C   UNL     1      -1.560  -8.688  -1.257  0.00  0.00    +0.098 C 
ENDROOT
BRANCH   1  14
ATOM     11  C   UNL     1      -0.273  -4.030  -0.018  0.00  0.00    +0.121 A 
ATOM     12  C   UNL     1       0.838  -4.861  -0.028  0.00  0.00    +0.046 A 
ATOM     13  C   UNL     1       0.672  -6.233  -0.033  0.00  0.00    +0.008 A 
ATOM     14  C   UNL     1      -0.599  -6.777  -0.030  0.00  0.00    -0.034 A 
ATOM     15  C   UNL     1      -1.707  -5.951  -0.021  0.00  0.00    +0.008 A 
ATOM     16  C   UNL     1      -1.547  -4.579  -0.009  0.00  0.00    +0.046 A 
BRANCH  11  17
ATOM     17  O   UNL     1      -0.113  -2.680  -0.012  0.00  0.00    -0.487 OA
BRANCH  17  18
ATOM     18  C   UNL     1       1.228  -2.186  -0.022  0.00  0.00    +0.267 C 
BRANCH  18  23
ATOM     19  C   UNL     1      -0.017   1.378   0.010  0.00  0.00    +0.001 A 
ATOM     20  C   UNL     1       1.171   2.087   0.002  0.00  0.00    +0.003 A 
ATOM     21  C   UNL     1       2.377   1.414  -0.013  0.00  0.00    +0.039 A 
ATOM     22  C   UNL     1       2.397   0.029  -0.021  0.00  0.00    +0.130 A 
ATOM     23  C   UNL     1       1.208  -0.679  -0.013  0.00  0.00    +0.025 A 
ATOM     24  C   UNL     1       0.002  -0.004   0.002  0.00  0.00    +0.010 A 
ATOM     25  F   UNL     1       3.577  -0.630  -0.036  0.00  0.00    -0.205 F 
ENDBRANCH  18  23
ENDBRANCH  17  18
ENDBRANCH  11  17
ENDBRANCH   1  14
BRANCH   3  26
ATOM     26  C   UNL     1       0.203  -8.370   3.034  0.00  0.00    +0.040 A 
ATOM     27  C   UNL     1       0.537  -7.779   4.222  0.00  0.00    +0.018 A 
ATOM     28  C   UNL     1       1.865  -7.522   4.483  0.00  0.00    +0.008 A 
ATOM     29  C   UNL     1       2.799  -7.861   3.559  0.00  0.00    +0.046 A 
ATOM     30  S   UNL     1       1.801  -8.578   2.264  0.00  0.00    -0.095 S 
ENDBRANCH   3  26
BRANCH   9  31
ATOM     31  N   UNL     1      -3.476  -9.458  -2.351  0.00  0.00    -0.328 N 
ATOM     32  H   UNL     1      -4.396  -9.764  -2.331  0.00  0.00    +0.145 HD
ATOM     33  H   UNL     1      -3.002  -9.401  -3.195  0.00  0.00    +0.145 HD
ENDBRANCH   9  31
BRANCH  10  34
ATOM     34  C   UNL     1      -0.922  -8.633  -2.538  0.00  0.00    +0.101 C 
ATOM     35  N   UNL     1      -0.416  -8.590  -3.554  0.00  0.00    -0.191 NA
ENDBRANCH  10  34
TORSDOF 7
