REMARK  Name = ZINC47461715
REMARK  13 active torsions:
REMARK  status: ('A' for Active; 'I' for Inactive)
REMARK    1  A    between atoms: C_1  and  C_2
REMARK    2  A    between atoms: C_2  and  C_3
REMARK    3  A    between atoms: C_3  and  C_4
REMARK    4  A    between atoms: C_4  and  N_5
REMARK    5  A    between atoms: N_5  and  C_6
REMARK    6  A    between atoms: N_5  and  C_16
REMARK    7  A    between atoms: C_6  and  C_7
REMARK    8  A    between atoms: C_11  and  C_13
REMARK    9  A    between atoms: C_17  and  N_29
REMARK   10  A    between atoms: N_18  and  C_25
REMARK   11  A    between atoms: C_25  and  C_26
REMARK   12  A    between atoms: C_26  and  C_27
REMARK   13  A    between atoms: C_26  and  C_28
REMARK                            x       y       z     vdW  Elec       q    Type
REMARK                         _______ _______ _______ _____ _____    ______ ____
ROOT
ATOM      1  N   UNL     1      -3.057  -2.864  -0.087  0.00  0.00    -0.319 N 
ENDROOT
BRANCH   1   2
ATOM      2  C   UNL     1      -3.576  -2.879   1.228  0.00  0.00    +0.134 A 
ATOM      3  C   UNL     1      -4.617  -2.060   1.573  0.00  0.00    +0.127 A 
ATOM      4  N   UNL     1      -5.104  -2.093   2.860  0.00  0.00    -0.280 N 
ATOM      5  C   UNL     1      -4.563  -2.923   3.771  0.00  0.00    +0.331 A 
ATOM      6  O   UNL     1      -5.007  -2.939   4.903  0.00  0.00    -0.246 OA
ATOM      7  N   UNL     1      -3.540  -3.735   3.449  0.00  0.00    -0.273 N 
ATOM      8  H   UNL     1      -3.166  -4.325   4.121  0.00  0.00    +0.173 HD
ATOM      9  C   UNL     1      -3.035  -3.740   2.200  0.00  0.00    +0.277 A 
ATOM     10  O   UNL     1      -2.111  -4.483   1.915  0.00  0.00    -0.266 OA
BRANCH   3  11
ATOM     11  N   UNL     1      -5.170  -1.210   0.643  0.00  0.00    -0.343 N 
ATOM     12  H   UNL     1      -4.767  -1.123  -0.235  0.00  0.00    +0.144 HD
ATOM     13  H   UNL     1      -5.964  -0.699   0.865  0.00  0.00    +0.144 HD
ENDBRANCH   3  11
BRANCH   4  14
ATOM     14  C   UNL     1      -6.217  -1.220   3.240  0.00  0.00    +0.131 C 
BRANCH  14  15
ATOM     15  C   UNL     1      -7.542  -1.944   2.991  0.00  0.00    +0.003 C 
ATOM     16  C   UNL     1      -7.643  -3.156   3.920  0.00  0.00    +0.009 C 
ATOM     17  C   UNL     1      -8.705  -0.990   3.270  0.00  0.00    +0.009 C 
ENDBRANCH  14  15
ENDBRANCH   4  14
ENDBRANCH   1   2
BRANCH   1  18
ATOM     18  C   UNL     1      -1.669  -2.458  -0.322  0.00  0.00    +0.106 C 
BRANCH  18  19
ATOM     19  C   UNL     1      -1.625  -0.968  -0.666  0.00  0.00    +0.019 C 
BRANCH  19  21
ATOM     20  C   UNL     1      -0.132   0.947  -1.255  0.00  0.00    +0.004 C 
ATOM     21  C   UNL     1      -0.176  -0.543  -0.911  0.00  0.00    -0.002 C 
ENDBRANCH  19  21
ENDBRANCH  18  19
ENDBRANCH   1  18
BRANCH   1  22
ATOM     22  C   UNL     1      -3.907  -3.256  -1.215  0.00  0.00    +0.140 C 
BRANCH  22  23
ATOM     23  C   UNL     1      -3.719  -4.723  -1.500  0.00  0.00    -0.029 A 
ATOM     24  C   UNL     1      -2.783  -5.131  -2.434  0.00  0.00    +0.005 A 
ATOM     25  C   UNL     1      -2.603  -6.476  -2.701  0.00  0.00    +0.001 A 
ATOM     26  C   UNL     1      -3.359  -7.421  -2.037  0.00  0.00    +0.013 A 
ATOM     27  C   UNL     1      -4.305  -7.017  -1.094  0.00  0.00    +0.037 A 
ATOM     28  C   UNL     1      -4.476  -5.658  -0.825  0.00  0.00    +0.018 A 
BRANCH  27  29
ATOM     29  C   UNL     1      -5.118  -8.024  -0.379  0.00  0.00    +0.242 C 
ATOM     30  O   UNL     1      -5.941  -7.669   0.442  0.00  0.00    -0.270 OA
ATOM     31  N   UNL     1      -4.947  -9.335  -0.638  0.00  0.00    -0.325 N 
ATOM     32  H   UNL     1      -4.290  -9.619  -1.293  0.00  0.00    +0.145 HD
ATOM     33  H   UNL     1      -5.480  -9.996  -0.169  0.00  0.00    +0.145 HD
ENDBRANCH  27  29
ENDBRANCH  22  23
ENDBRANCH   1  22
TORSDOF 10
