REMARK  Name = ZINC41805020
REMARK  7 active torsions:
REMARK  status: ('A' for Active; 'I' for Inactive)
REMARK    1  A    between atoms: C_1  and  C_2
REMARK    2  A    between atoms: C_2  and  C_4
REMARK    3  A    between atoms: C_2  and  N_7
REMARK    4  A    between atoms: N_7  and  C_8
REMARK    5  A    between atoms: C_8  and  C_9
REMARK    6  A    between atoms: C_8  and  C_10
REMARK    7  A    between atoms: C_8  and  C_17
REMARK                            x       y       z     vdW  Elec       q    Type
REMARK                         _______ _______ _______ _____ _____    ______ ____
ROOT
ATOM      1  C   UNL     1      -0.753   0.873  -2.287  0.00  0.00    +0.059 C 
ATOM      2  C   UNL     1      -2.153   0.257  -2.224  0.00  0.00    +0.007 C 
ENDROOT
BRANCH   1   3
ATOM      3  C   UNL     1      -0.343   1.042  -3.727  0.00  0.00    -0.048 A 
ATOM      4  C   UNL     1       0.782   0.397  -4.205  0.00  0.00    +0.004 A 
ATOM      5  C   UNL     1       1.159   0.552  -5.526  0.00  0.00    +0.015 A 
ATOM      6  C   UNL     1       0.409   1.351  -6.370  0.00  0.00    +0.018 A 
ATOM      7  C   UNL     1      -0.718   1.995  -5.891  0.00  0.00    +0.015 A 
ATOM      8  C   UNL     1      -1.096   1.836  -4.572  0.00  0.00    +0.004 A 
ATOM      9 BR   UNL     1       0.923   1.563  -8.177  0.00  0.00    -0.050 Br
ENDBRANCH   1   3
BRANCH   1  10
ATOM     10  N   UNL     1       0.202  -0.012  -1.606  0.00  0.00    +0.400 N 
ATOM     11  H   UNL     1       1.103   0.439  -1.560  0.00  0.00    -0.083 HD
ATOM     12  H   UNL     1       0.284  -0.876  -2.120  0.00  0.00    -0.083 HD
BRANCH  10  14
ATOM     13  C   UNL     1       0.862  -0.900   0.578  0.00  0.00    -0.004 C 
ATOM     14  C   UNL     1      -0.276  -0.294  -0.246  0.00  0.00    +0.015 C 
BRANCH  14  15
ATOM     15  C   UNL     1      -1.425  -1.267  -0.309  0.00  0.00    +0.196 C 
ATOM     16  O   UNL     1      -1.483  -2.079  -1.208  0.00  0.00    -0.278 OA
ATOM     17  N   UNL     1      -2.387  -1.236   0.634  0.00  0.00    -0.331 N 
ATOM     18  H   UNL     1      -2.340  -0.587   1.353  0.00  0.00    +0.145 HD
ATOM     19  H   UNL     1      -3.126  -1.862   0.594  0.00  0.00    +0.145 HD
ENDBRANCH  14  15
ENDBRANCH  10  14
ENDBRANCH   1  10
BRANCH   1  20
ATOM     20  C   UNL     1      -0.765   2.218  -1.607  0.00  0.00    +0.349 C 
ATOM     21  O   UNL     1       0.059   2.472  -0.746  0.00  0.00    -0.248 OA
ATOM     22  O   UNL     1      -1.599   3.051  -1.919  0.00  0.00    -0.248 OA
ENDBRANCH   1  20
TORSDOF 5
