REMARK  Name = ZINC04739681
REMARK  11 active torsions:
REMARK  status: ('A' for Active; 'I' for Inactive)
REMARK    1  A    between atoms: C_1  and  C_2
REMARK    2  A    between atoms: C_5  and  C_8
REMARK    3  A    between atoms: C_13  and  C_15
REMARK    4  A    between atoms: C_15  and  C_16
REMARK    5  A    between atoms: C_16  and  C_17
REMARK    6  A    between atoms: C_16  and  C_18
REMARK    7  A    between atoms: N_19  and  C_20
REMARK    8  A    between atoms: C_20  and  C_21
REMARK    9  A    between atoms: C_24  and  N_27
REMARK   10  A    between atoms: N_27  and  C_28
REMARK   11  A    between atoms: N_27  and  C_29
REMARK                            x       y       z     vdW  Elec       q    Type
REMARK                         _______ _______ _______ _____ _____    ______ ____
ROOT
ATOM      1  C   UNL     1      -0.728   3.427   0.026  0.00  0.00    +0.184 A 
ATOM      2  N   UNL     1      -1.088   2.134   0.018  0.00  0.00    -0.193 NA
ATOM      3  C   UNL     1      -0.017   1.375   0.010  0.00  0.00    +0.222 A 
ATOM      4  N   UNL     1       1.076   2.195   0.004  0.00  0.00    -0.166 N 
ATOM      5  N   UNL     1       0.583   3.509   0.015  0.00  0.00    -0.141 NA
ATOM      6  C   UNL     1       2.370   1.817  -0.009  0.00  0.00    +0.251 C 
ATOM      7  O   UNL     1       2.656   0.643  -0.017  0.00  0.00    -0.271 OA
ATOM      8  N   UNL     1       0.002  -0.004   0.002  0.00  0.00    -0.309 N 
ATOM      9  H   UNL     1       0.849  -0.478  -0.009  0.00  0.00    +0.149 HD
ENDROOT
BRANCH   1  14
ATOM     10  C   UNL     1      -4.352   7.902   0.079  0.00  0.00    +0.044 C 
ATOM     11  C   UNL     1      -3.404   6.731   0.064  0.00  0.00    -0.050 A 
ATOM     12  C   UNL     1      -3.902   5.441   0.064  0.00  0.00    +0.004 A 
ATOM     13  C   UNL     1      -3.038   4.365   0.051  0.00  0.00    +0.012 A 
ATOM     14  C   UNL     1      -1.661   4.580   0.040  0.00  0.00    +0.021 A 
ATOM     15  C   UNL     1      -1.165   5.882   0.046  0.00  0.00    +0.012 A 
ATOM     16  C   UNL     1      -2.038   6.951   0.053  0.00  0.00    +0.004 A 
ENDBRANCH   1  14
BRANCH   6  17
ATOM     17  C   UNL     1       3.459   2.859  -0.015  0.00  0.00    +0.103 C 
BRANCH  17  18
ATOM     18  C   UNL     1       4.824   2.169  -0.029  0.00  0.00    -0.008 C 
ATOM     19  C   UNL     1       4.993   1.400  -1.342  0.00  0.00    +0.008 C 
ATOM     20  C   UNL     1       5.929   3.221   0.091  0.00  0.00    +0.008 C 
ENDBRANCH  17  18
ENDBRANCH   6  17
BRANCH   8  21
ATOM     21  C   UNL     1      -1.256  -0.754   0.010  0.00  0.00    +0.139 C 
BRANCH  21  22
ATOM     22  C   UNL     1      -0.961  -2.232  -0.001  0.00  0.00    -0.030 A 
ATOM     23  C   UNL     1      -0.843  -2.903  -1.204  0.00  0.00    +0.007 A 
ATOM     24  C   UNL     1      -0.567  -4.256  -1.218  0.00  0.00    +0.023 A 
ATOM     25  C   UNL     1      -0.419  -4.945  -0.021  0.00  0.00    +0.029 A 
ATOM     26  C   UNL     1      -0.544  -4.269   1.187  0.00  0.00    +0.023 A 
ATOM     27  C   UNL     1      -0.814  -2.914   1.193  0.00  0.00    +0.007 A 
BRANCH  25  28
ATOM     28  N   UNL     1      -0.144  -6.314  -0.030  0.00  0.00    -0.336 N 
ATOM     29  C   UNL     1       0.012  -7.039   1.233  0.00  0.00    +0.129 C 
ATOM     30  C   UNL     1      -0.013  -7.026  -1.304  0.00  0.00    +0.129 C 
ENDBRANCH  25  28
ENDBRANCH  21  22
ENDBRANCH   8  21
TORSDOF 6
