REMARK  Name = ZINC15959953
REMARK  7 active torsions:
REMARK  status: ('A' for Active; 'I' for Inactive)
REMARK    1  A    between atoms: C_1  and  S_2
REMARK    2  A    between atoms: S_2  and  C_3
REMARK    3  A    between atoms: C_3  and  C_4
REMARK    4  A    between atoms: C_4  and  C_5
REMARK    5  A    between atoms: N_13  and  C_16
REMARK    6  A    between atoms: C_16  and  C_17
REMARK    7  A    between atoms: C_17  and  C_18
REMARK                            x       y       z     vdW  Elec       q    Type
REMARK                         _______ _______ _______ _____ _____    ______ ____
ROOT
ATOM      1  C   UNL     1       1.701  -2.297  -2.963  0.00  0.00    +0.068 C 
ATOM      2  C   UNL     1       1.730  -3.827  -3.164  0.00  0.00    +0.107 C 
ATOM      3  C   UNL     1       3.126  -4.121  -3.780  0.00  0.00    +0.122 C 
ATOM      4  C   UNL     1       2.796  -4.617  -5.170  0.00  0.00    +0.228 C 
ATOM      5  O   UNL     1       3.608  -4.958  -6.003  0.00  0.00    -0.275 OA
ATOM      6  N   UNL     1       1.469  -4.622  -5.337  0.00  0.00    -0.241 N 
ATOM      7  C   UNL     1       0.760  -4.201  -4.263  0.00  0.00    +0.227 C 
ATOM      8  O   UNL     1      -0.447  -4.130  -4.186  0.00  0.00    -0.275 OA
ATOM      9  C   UNL     1       3.813  -2.752  -3.852  0.00  0.00    +0.136 C 
ATOM     10  N   UNL     1       3.129  -1.895  -2.873  0.00  0.00    -0.295 NA
ATOM     11  C   UNL     1       5.287  -2.861  -3.577  0.00  0.00    +0.005 A 
ATOM     12  C   UNL     1       6.019  -3.320  -2.505  0.00  0.00    +0.008 A 
ATOM     13  C   UNL     1       7.402  -3.292  -2.547  0.00  0.00    +0.002 A 
ATOM     14  C   UNL     1       8.046  -2.802  -3.668  0.00  0.00    +0.022 A 
ATOM     15  C   UNL     1       7.316  -2.340  -4.745  0.00  0.00    +0.062 A 
ATOM     16  C   UNL     1       5.923  -2.366  -4.710  0.00  0.00    +0.057 A 
ATOM     17  N   UNL     1       4.978  -1.963  -5.657  0.00  0.00    -0.282 N 
ATOM     18  C   UNL     1       3.716  -2.158  -5.230  0.00  0.00    +0.243 C 
ATOM     19  O   UNL     1       2.698  -1.904  -5.839  0.00  0.00    -0.273 OA
ATOM     20 CL   UNL     1       8.136  -1.724  -6.146  0.00  0.00    -0.082 Cl
ATOM     21  H   UNL     1       3.245  -0.918  -3.096  0.00  0.00    +0.123 HD
ATOM     22  H   UNL     1       5.205  -1.586  -6.522  0.00  0.00    +0.155 HD
ENDROOT
BRANCH   1  23
ATOM     23  C   UNL     1       0.966  -1.944  -1.668  0.00  0.00    +0.030 C 
BRANCH  23  24
ATOM     24  C   UNL     1       0.873  -0.423  -1.533  0.00  0.00    +0.070 C 
BRANCH  24  26
ATOM     25  C   UNL     1      -0.022   1.810   0.012  0.00  0.00    +0.084 C 
ATOM     26  S   UNL     1       0.002  -0.004   0.002  0.00  0.00    -0.164 S 
ENDBRANCH  24  26
ENDBRANCH  23  24
ENDBRANCH   1  23
BRANCH   6  27
ATOM     27  C   UNL     1       0.829  -5.054  -6.582  0.00  0.00    +0.121 C 
BRANCH  27  28
ATOM     28  C   UNL     1       0.548  -6.557  -6.516  0.00  0.00    +0.054 C 
BRANCH  28  29
ATOM     29  C   UNL     1      -0.110  -7.001  -7.797  0.00  0.00    -0.046 A 
ATOM     30  C   UNL     1      -1.488  -6.978  -7.910  0.00  0.00    +0.004 A 
ATOM     31  C   UNL     1      -2.092  -7.386  -9.085  0.00  0.00    +0.000 A 
ATOM     32  C   UNL     1      -1.318  -7.817 -10.146  0.00  0.00    +0.000 A 
ATOM     33  C   UNL     1       0.059  -7.839 -10.033  0.00  0.00    +0.000 A 
ATOM     34  C   UNL     1       0.663  -7.427  -8.860  0.00  0.00    +0.004 A 
ENDBRANCH  28  29
ENDBRANCH  27  28
ENDBRANCH   6  27
TORSDOF 6
