REMARK  Name = ZINC39228487
REMARK  5 active torsions:
REMARK  status: ('A' for Active; 'I' for Inactive)
REMARK    1  A    between atoms: C_1  and  C_2
REMARK    2  A    between atoms: C_2  and  C_4
REMARK    3  A    between atoms: C_2  and  N_7
REMARK    4  A    between atoms: C_8  and  C_10
REMARK    5  A    between atoms: C_16  and  C_18
REMARK                            x       y       z     vdW  Elec       q    Type
REMARK                         _______ _______ _______ _____ _____    ______ ____
ROOT
ATOM      1  C   UNL     1       0.776  -1.128   3.571  0.00  0.00    +0.087 C 
ATOM      2  C   UNL     1       1.919  -0.168   3.906  0.00  0.00    +0.013 C 
ATOM      3  C   UNL     1       2.663  -0.673   5.144  0.00  0.00    +0.001 C 
ATOM      4  C   UNL     1       1.695  -0.746   6.326  0.00  0.00    +0.001 C 
ATOM      5  C   UNL     1       0.552  -1.707   5.991  0.00  0.00    +0.013 C 
ATOM      6  C   UNL     1      -0.192  -1.201   4.754  0.00  0.00    +0.087 C 
ENDROOT
BRANCH   6   7
ATOM      7  C   UNL     1      -1.318  -2.147   4.423  0.00  0.00    +0.220 C 
ATOM      8  O   UNL     1      -1.149  -3.030   3.609  0.00  0.00    -0.275 OA
ATOM      9  N   UNL     1      -2.513  -2.012   5.033  0.00  0.00    -0.295 N 
ATOM     10  C   UNL     1      -3.588  -2.990   4.810  0.00  0.00    +0.113 C 
ATOM     11  C   UNL     1      -3.891  -3.707   6.130  0.00  0.00    +0.056 C 
ATOM     12  C   UNL     1      -3.969  -2.686   7.237  0.00  0.00    -0.016 A 
ATOM     13  C   UNL     1      -4.563  -2.830   8.550  0.00  0.00    +0.003 A 
ATOM     14  C   UNL     1      -5.218  -3.890   9.183  0.00  0.00    +0.010 A 
ATOM     15  C   UNL     1      -5.662  -3.670  10.464  0.00  0.00    +0.001 A 
ATOM     16  C   UNL     1      -5.477  -2.458  11.109  0.00  0.00    +0.002 A 
ATOM     17  C   UNL     1      -4.831  -1.392  10.506  0.00  0.00    +0.026 A 
ATOM     18  C   UNL     1      -4.369  -1.587   9.207  0.00  0.00    +0.047 A 
ATOM     19  N   UNL     1      -3.706  -0.768   8.338  0.00  0.00    -0.356 N 
ATOM     20  C   UNL     1      -3.473  -1.432   7.163  0.00  0.00    +0.038 A 
ATOM     21  H   UNL     1      -3.441   0.146   8.525  0.00  0.00    +0.166 HD
ATOM     22  C   UNL     1      -2.772  -0.885   5.945  0.00  0.00    +0.161 C 
ENDBRANCH   6   7
BRANCH   1  24
ATOM     23  N   UNL     1       0.699  -0.485   1.184  0.00  0.00    -0.304 N 
ATOM     24  C   UNL     1       0.043  -0.630   2.352  0.00  0.00    +0.217 C 
ATOM     25  O   UNL     1      -1.138  -0.361   2.422  0.00  0.00    -0.275 OA
ATOM     26  H   UNL     1       1.643  -0.700   1.127  0.00  0.00    +0.149 HD
BRANCH  23  28
ATOM     27  C   UNL     1      -0.038   1.529   0.007  0.00  0.00    +0.038 C 
ATOM     28  C   UNL     1      -0.014  -0.001  -0.001  0.00  0.00    +0.156 C 
BRANCH  28  29
ATOM     29  C   UNL     1       0.689  -0.485  -1.243  0.00  0.00    +0.231 C 
ATOM     30  O   UNL     1       1.687  -1.168  -1.147  0.00  0.00    -0.274 OA
ATOM     31  N   UNL     1       0.209  -0.161  -2.460  0.00  0.00    -0.328 N 
ATOM     32  H   UNL     1      -0.590   0.385  -2.536  0.00  0.00    +0.145 HD
ATOM     33  H   UNL     1       0.661  -0.472  -3.259  0.00  0.00    +0.145 HD
ENDBRANCH  28  29
ENDBRANCH  23  28
ENDBRANCH   1  24
TORSDOF 4
