REMARK  Name = ZINC36371071
REMARK  7 active torsions:
REMARK  status: ('A' for Active; 'I' for Inactive)
REMARK    1  A    between atoms: C_1  and  C_2
REMARK    2  A    between atoms: C_16  and  O_31
REMARK    3  A    between atoms: C_19  and  C_30
REMARK    4  A    between atoms: C_24  and  C_25
REMARK    5  A    between atoms: C_24  and  O_29
REMARK    6  A    between atoms: C_25  and  C_27
REMARK    7  A    between atoms: C_27  and  O_28
REMARK                            x       y       z     vdW  Elec       q    Type
REMARK                         _______ _______ _______ _____ _____    ______ ____
ROOT
ATOM      1  C   UNL     1      -0.019   1.541   0.011  0.00  0.00    +0.012 C 
ATOM      2  C   UNL     1       0.002  -0.004   0.002  0.00  0.00    -0.023 C 
ATOM      3  C   UNL     1       0.704  -0.479  -1.266  0.00  0.00    +0.015 C 
ATOM      4  C   UNL     1       2.145   0.036  -1.329  0.00  0.00    +0.075 C 
ATOM      5  C   UNL     1       2.852  -0.366  -0.054  0.00  0.00    +0.134 C 
ATOM      6  O   UNL     1       3.897  -0.968  -0.085  0.00  0.00    -0.297 OA
ATOM      7  C   UNL     1       2.203   0.009   1.258  0.00  0.00    +0.078 C 
ATOM      8  C   UNL     1       0.749  -0.451   1.255  0.00  0.00    +0.002 C 
ATOM      9  C   UNL     1       0.680  -1.975   1.380  0.00  0.00    +0.005 C 
ATOM     10  C   UNL     1      -0.784  -2.333   1.649  0.00  0.00    +0.004 C 
ATOM     11  C   UNL     1      -1.640  -1.941   0.446  0.00  0.00    -0.001 C 
ATOM     12  C   UNL     1      -1.446  -0.492   0.029  0.00  0.00    +0.027 C 
ATOM     13  C   UNL     1      -2.169  -0.133  -1.261  0.00  0.00    +0.119 C 
ATOM     14  C   UNL     1      -2.100  -1.182  -2.371  0.00  0.00    +0.041 C 
ATOM     15  C   UNL     1      -2.403  -2.560  -1.845  0.00  0.00    +0.009 C 
ATOM     16  C   UNL     1      -1.400  -2.877  -0.710  0.00  0.00    +0.002 C 
ATOM     17  C   UNL     1      -1.676  -4.365  -0.449  0.00  0.00    +0.008 C 
ATOM     18  C   UNL     1      -1.870  -4.941  -1.877  0.00  0.00    +0.043 C 
ATOM     19  C   UNL     1      -2.203  -3.741  -2.800  0.00  0.00    +0.131 C 
ATOM     20  C   UNL     1      -3.851  -2.632  -1.346  0.00  0.00    +0.015 C 
ENDROOT
BRANCH  19  21
ATOM     21  C   UNL     1      -1.077  -3.499  -3.765  0.00  0.00    +0.190 C 
ATOM     22  O   UNL     1      -0.143  -2.806  -3.440  0.00  0.00    -0.292 OA
BRANCH  21  23
ATOM     23  C   UNL     1      -1.114  -4.120  -5.137  0.00  0.00    +0.233 C 
BRANCH  23  24
ATOM     24  O   UNL     1       0.059  -3.745  -5.862  0.00  0.00    -0.387 OA
ATOM     25  H   UNL     1       0.103  -4.110  -6.756  0.00  0.00    +0.210 HD
ENDBRANCH  23  24
ENDBRANCH  21  23
ENDBRANCH  19  21
BRANCH  19  26
ATOM     26  O   UNL     1      -3.418  -3.995  -3.511  0.00  0.00    -0.380 OA
ATOM     27  H   UNL     1      -3.363  -4.732  -4.135  0.00  0.00    +0.211 HD
ENDBRANCH  19  26
BRANCH  13  28
ATOM     28  O   UNL     1      -3.533   0.191  -0.966  0.00  0.00    -0.391 OA
ATOM     29  H   UNL     1      -4.057   0.430  -1.742  0.00  0.00    +0.210 HD
ENDBRANCH  13  28
TORSDOF 5
