REMARK  Name = ZINC11902235
REMARK  7 active torsions:
REMARK  status: ('A' for Active; 'I' for Inactive)
REMARK    1  A    between atoms: C_1  and  O_2
REMARK    2  A    between atoms: O_2  and  C_3
REMARK    3  A    between atoms: C_6  and  C_9
REMARK    4  A    between atoms: C_12  and  C_17
REMARK    5  A    between atoms: C_24  and  C_25
REMARK    6  A    between atoms: C_24  and  C_31
REMARK    7  A    between atoms: C_24  and  N_65
REMARK                            x       y       z     vdW  Elec       q    Type
REMARK                         _______ _______ _______ _____ _____    ______ ____
ROOT
ATOM      1  C   UNL     1      -1.214  -0.871  -0.384  0.00  0.00    +0.264 C 
ATOM      2  O   UNL     1      -1.262  -2.086  -0.449  0.00  0.00    -0.268 OA
ATOM      3  N   UNL     1      -2.342  -0.163  -0.179  0.00  0.00    -0.300 N 
ATOM      4  C   UNL     1      -2.337   1.306  -0.265  0.00  0.00    +0.089 C 
ATOM      5  C   UNL     1      -3.471   1.737  -1.209  0.00  0.00    -0.058 C 
ATOM      6  C   UNL     1      -4.691  -0.321  -0.811  0.00  0.00    -0.058 C 
ATOM      7  C   UNL     1      -3.609  -0.837   0.143  0.00  0.00    +0.089 C 
ATOM      8  N   UNL     1      -4.740   1.155  -0.721  0.00  0.00    +0.389 N 
ATOM      9  H   UNL     1      -4.874   1.424   0.261  0.00  0.00    -0.080 HD
ENDROOT
BRANCH   1  13
ATOM     10  C   UNL     1       2.536  -1.834  -2.557  0.00  0.00    +0.090 A 
ATOM     11  C   UNL     1       1.278  -1.889  -2.056  0.00  0.00    +0.122 A 
ATOM     12  N   UNL     1       1.079  -0.745  -1.293  0.00  0.00    -0.289 N 
ATOM     13  C   UNL     1       0.068  -0.180  -0.528  0.00  0.00    +0.117 A 
ATOM     14  C   UNL     1       0.270   1.013   0.085  0.00  0.00    +0.080 A 
ATOM     15  S   UNL     1       1.942   1.402  -0.405  0.00  0.00    -0.057 S 
ATOM     16  C   UNL     1       2.252  -0.046  -1.387  0.00  0.00    +0.178 A 
ATOM     17  N   UNL     1       3.106  -0.688  -2.130  0.00  0.00    -0.221 NA
BRANCH  10  21
ATOM     18  C   UNL     1       4.363  -4.754  -5.053  0.00  0.00    +0.120 A 
ATOM     19  C   UNL     1       5.102  -3.670  -4.601  0.00  0.00    +0.046 A 
ATOM     20  C   UNL     1       4.512  -2.721  -3.792  0.00  0.00    +0.013 A 
ATOM     21  C   UNL     1       3.173  -2.852  -3.428  0.00  0.00    +0.002 A 
ATOM     22  C   UNL     1       2.436  -3.945  -3.879  0.00  0.00    +0.013 A 
ATOM     23  C   UNL     1       3.030  -4.888  -4.692  0.00  0.00    +0.046 A 
BRANCH  18  25
ATOM     24  C   UNL     1       4.129  -6.778  -6.278  0.00  0.00    +0.277 C 
ATOM     25  O   UNL     1       4.947  -5.688  -5.849  0.00  0.00    -0.495 OA
ENDBRANCH  18  25
ENDBRANCH  10  21
ENDBRANCH   1  13
BRANCH   8  26
ATOM     26  C   UNL     1      -5.872   1.671  -1.519  0.00  0.00    -0.007 C 
BRANCH  26  27
ATOM     27  C   UNL     1      -7.156   1.118  -0.958  0.00  0.00    -0.057 A 
ATOM     28  C   UNL     1      -7.359   1.092   0.409  0.00  0.00    +0.002 A 
ATOM     29  C   UNL     1      -8.539   0.588   0.923  0.00  0.00    +0.000 A 
ATOM     30  C   UNL     1      -9.513   0.102   0.071  0.00  0.00    +0.000 A 
ATOM     31  C   UNL     1      -9.307   0.122  -1.296  0.00  0.00    +0.000 A 
ATOM     32  C   UNL     1      -8.129   0.630  -1.810  0.00  0.00    +0.002 A 
ENDBRANCH  26  27
BRANCH  26  33
ATOM     33  C   UNL     1      -5.889   3.175  -1.425  0.00  0.00    -0.057 A 
ATOM     34  C   UNL     1      -5.598   3.796  -0.225  0.00  0.00    +0.002 A 
ATOM     35  C   UNL     1      -5.609   5.176  -0.139  0.00  0.00    +0.000 A 
ATOM     36  C   UNL     1      -5.923   5.934  -1.252  0.00  0.00    +0.000 A 
ATOM     37  C   UNL     1      -6.220   5.313  -2.450  0.00  0.00    +0.000 A 
ATOM     38  C   UNL     1      -6.203   3.934  -2.537  0.00  0.00    +0.002 A 
ENDBRANCH  26  33
ENDBRANCH   8  26
TORSDOF 6
