REMARK  Name = ZINC41792148
REMARK  11 active torsions:
REMARK  status: ('A' for Active; 'I' for Inactive)
REMARK    1  A    between atoms: C_1  and  C_2
REMARK    2  A    between atoms: C_5  and  C_30
REMARK    3  A    between atoms: N_8  and  C_10
REMARK    4  A    between atoms: C_10  and  C_11
REMARK    5  A    between atoms: C_11  and  C_12
REMARK    6  A    between atoms: C_12  and  C_13
REMARK    7  A    between atoms: C_13  and  N_14
REMARK    8  A    between atoms: C_15  and  C_17
REMARK    9  A    between atoms: N_19  and  C_20
REMARK   10  A    between atoms: C_25  and  C_26
REMARK   11  A    between atoms: C_26  and  C_27
REMARK                            x       y       z     vdW  Elec       q    Type
REMARK                         _______ _______ _______ _____ _____    ______ ____
ROOT
ATOM      1  N   UNL     1       6.030  -2.561   4.444  0.00  0.00    -0.308 N 
ATOM      2  C   UNL     1       7.349  -2.299   4.525  0.00  0.00    +0.299 C 
ATOM      3  O   UNL     1       7.895  -1.657   3.652  0.00  0.00    -0.265 OA
ATOM      4  H   UNL     1       5.593  -3.074   5.142  0.00  0.00    +0.149 HD
ENDROOT
BRANCH   2   5
ATOM      5  C   UNL     1       8.139  -2.798   5.690  0.00  0.00    +0.303 C 
ATOM      6  O   UNL     1       7.593  -3.440   6.564  0.00  0.00    -0.265 OA
ATOM      7  N   UNL     1       9.459  -2.536   5.772  0.00  0.00    -0.277 N 
ATOM      8  H   UNL     1       9.912  -2.093   5.037  0.00  0.00    +0.155 HD
BRANCH   7   9
ATOM      9  C   UNL     1      10.175  -2.902   6.914  0.00  0.00    +0.037 A 
ATOM     10  C   UNL     1       9.518  -3.046   8.131  0.00  0.00    +0.023 A 
ATOM     11  C   UNL     1      10.229  -3.408   9.258  0.00  0.00    +0.002 A 
ATOM     12  C   UNL     1      11.592  -3.627   9.177  0.00  0.00    +0.000 A 
ATOM     13  C   UNL     1      12.248  -3.485   7.969  0.00  0.00    +0.006 A 
ATOM     14  C   UNL     1      11.543  -3.129   6.836  0.00  0.00    -0.017 A 
BRANCH  14  15
ATOM     15  C   UNL     1      12.258  -2.981   5.517  0.00  0.00    +0.132 C 
BRANCH  15  16
ATOM     16  C   UNL     1      12.632  -1.536   5.308  0.00  0.00    +0.215 C 
ATOM     17  O   UNL     1      12.346  -0.709   6.147  0.00  0.00    -0.276 OA
ATOM     18  N   UNL     1      13.284  -1.165   4.189  0.00  0.00    -0.329 N 
ATOM     19  H   UNL     1      13.512  -1.827   3.518  0.00  0.00    +0.145 HD
ATOM     20  H   UNL     1      13.524  -0.235   4.054  0.00  0.00    +0.145 HD
ENDBRANCH  15  16
ENDBRANCH  14  15
ENDBRANCH   7   9
ENDBRANCH   2   5
BRANCH   1  21
ATOM     21  C   UNL     1       5.255  -2.071   3.301  0.00  0.00    +0.104 C 
BRANCH  21  22
ATOM     22  C   UNL     1       3.795  -2.502   3.453  0.00  0.00    +0.017 C 
BRANCH  22  23
ATOM     23  C   UNL     1       2.985  -1.991   2.259  0.00  0.00    -0.017 C 
BRANCH  23  24
ATOM     24  C   UNL     1       1.525  -2.422   2.410  0.00  0.00    -0.079 C 
BRANCH  24  30
ATOM     25  C   UNL     1      -0.026   1.585   0.065  0.00  0.00    +0.005 C 
ATOM     26  C   UNL     1      -0.008   0.055   0.045  0.00  0.00    -0.031 C 
ATOM     27  C   UNL     1      -1.445  -0.474   0.058  0.00  0.00    +0.003 C 
ATOM     28  C   UNL     1      -1.415  -2.004   0.117  0.00  0.00    -0.031 C 
ATOM     29  C   UNL     1      -0.624  -2.446   1.349  0.00  0.00    -0.076 C 
ATOM     30  N   UNL     1       0.748  -1.931   1.265  0.00  0.00    +0.380 N 
ATOM     31  C   UNL     1       0.732  -0.464   1.280  0.00  0.00    -0.076 C 
ATOM     32  C   UNL     1      -2.846  -2.540   0.207  0.00  0.00    +0.005 C 
ATOM     33  H   UNL     1       1.175  -2.253   0.409  0.00  0.00    -0.082 HD
ENDBRANCH  24  30
ENDBRANCH  23  24
ENDBRANCH  22  23
ENDBRANCH  21  22
ENDBRANCH   1  21
TORSDOF 9
