REMARK  Name = ZINC63557151
REMARK  10 active torsions:
REMARK  status: ('A' for Active; 'I' for Inactive)
REMARK    1  A    between atoms: C_1  and  C_2
REMARK    2  A    between atoms: C_2  and  C_3
REMARK    3  A    between atoms: C_2  and  C_4
REMARK    4  A    between atoms: C_2  and  C_5
REMARK    5  A    between atoms: C_5  and  C_6
REMARK    6  A    between atoms: C_10  and  N_13
REMARK    7  A    between atoms: C_14  and  C_16
REMARK    8  A    between atoms: N_21  and  C_23
REMARK    9  A    between atoms: C_23  and  C_24
REMARK   10  A    between atoms: C_24  and  C_25
REMARK                            x       y       z     vdW  Elec       q    Type
REMARK                         _______ _______ _______ _____ _____    ______ ____
ROOT
ATOM      1  C   UNL     1       4.317  -6.936  -0.641  0.00  0.00    +0.101 C 
ATOM      2  C   UNL     1       4.673  -7.141   0.849  0.00  0.00    +0.110 C 
ATOM      3  C   UNL     1       5.436  -8.447   0.872  0.00  0.00    +0.216 C 
ATOM      4  O   UNL     1       5.652  -9.108   1.865  0.00  0.00    -0.276 OA
ATOM      5  N   UNL     1       5.839  -8.769  -0.369  0.00  0.00    -0.300 N 
ATOM      6  C   UNL     1       5.422  -7.754  -1.345  0.00  0.00    +0.121 C 
ENDROOT
BRANCH   1   8
ATOM      7  N   UNL     1       3.559  -4.588  -0.460  0.00  0.00    -0.284 N 
ATOM      8  C   UNL     1       4.401  -5.479  -1.020  0.00  0.00    +0.220 C 
ATOM      9  O   UNL     1       5.225  -5.110  -1.829  0.00  0.00    -0.275 OA
ATOM     10  H   UNL     1       2.900  -4.884   0.187  0.00  0.00    +0.152 HD
BRANCH   7  14
ATOM     11  C   UNL     1       1.854  -1.143  -1.186  0.00  0.00    +0.189 C 
ATOM     12  N   UNL     1       2.238  -2.020  -2.316  0.00  0.00    -0.175 NA
ATOM     13  N   UNL     1       3.034  -2.925  -2.156  0.00  0.00    -0.157 NA
ATOM     14  C   UNL     1       3.640  -3.172  -0.828  0.00  0.00    +0.275 C 
ATOM     15  S   UNL     1       2.524  -2.136   0.222  0.00  0.00    -0.085 S 
BRANCH  11  16
ATOM     16  C   UNL     1       0.335  -0.993  -1.089  0.00  0.00    +0.046 C 
BRANCH  16  18
ATOM     17  C   UNL     1       0.542   1.291  -0.097  0.00  0.00    +0.011 C 
ATOM     18  C   UNL     1      -0.015  -0.118   0.116  0.00  0.00    -0.035 C 
ATOM     19  C   UNL     1       0.598  -0.723   1.381  0.00  0.00    +0.011 C 
ATOM     20  C   UNL     1      -1.536  -0.047   0.271  0.00  0.00    +0.011 C 
ENDBRANCH  16  18
ENDBRANCH  11  16
ENDBRANCH   7  14
ENDBRANCH   1   8
BRANCH   5  21
ATOM     21  C   UNL     1       6.596  -9.977  -0.706  0.00  0.00    +0.112 C 
BRANCH  21  22
ATOM     22  C   UNL     1       5.626 -11.111  -1.039  0.00  0.00    +0.052 C 
BRANCH  22  23
ATOM     23  C   UNL     1       6.405 -12.354  -1.385  0.00  0.00    -0.040 C 
ATOM     24  C   UNL     1       6.729 -13.368  -0.552  0.00  0.00    +0.000 A 
ATOM     25  C   UNL     1       6.464 -13.609   0.872  0.00  0.00    +0.030 A 
ATOM     26  C   UNL     1       6.929 -14.745   1.443  0.00  0.00    +0.042 A 
ATOM     27  C   UNL     1       7.656 -15.694   0.710  0.00  0.00    +0.022 A 
ATOM     28  C   UNL     1       7.939 -15.543  -0.601  0.00  0.00    +0.027 A 
ATOM     29  C   UNL     1       7.498 -14.387  -1.303  0.00  0.00    +0.043 A 
ATOM     30  N   UNL     1       7.644 -14.016  -2.552  0.00  0.00    -0.380 N 
ATOM     31  C   UNL     1       6.977 -12.722  -2.736  0.00  0.00    +0.144 C 
ATOM     32 CL   UNL     1       6.618 -15.033   3.126  0.00  0.00    -0.084 Cl
ATOM     33  H   UNL     1       8.111 -14.515  -3.240  0.00  0.00    +0.160 HD
ENDBRANCH  22  23
ENDBRANCH  21  22
ENDBRANCH   5  21
TORSDOF 7
