REMARK  Name = ZINC45071538
REMARK  4 active torsions:
REMARK  status: ('A' for Active; 'I' for Inactive)
REMARK    1  A    between atoms: C_3  and  N_11
REMARK    2  A    between atoms: C_4  and  N_10
REMARK    3  A    between atoms: C_6  and  C_7
REMARK    4  A    between atoms: C_15  and  C_17
REMARK                            x       y       z     vdW  Elec       q    Type
REMARK                         _______ _______ _______ _____ _____    ______ ____
ROOT
ATOM      1  C   UNL     1      -0.017   1.393   0.010  0.00  0.00    +0.015 A 
ATOM      2  C   UNL     1       1.166   2.099   0.002  0.00  0.00    +0.026 A 
ATOM      3  C   UNL     1       2.381   1.425  -0.013  0.00  0.00    +0.051 A 
ATOM      4  C   UNL     1       2.408   0.027  -0.021  0.00  0.00    +0.047 A 
ATOM      5  C   UNL     1       1.224  -0.685  -0.014  0.00  0.00    +0.037 A 
ATOM      6  C   UNL     1       0.002  -0.004   0.002  0.00  0.00    +0.038 A 
ENDROOT
BRANCH   6   7
ATOM      7  C   UNL     1      -1.265  -0.760   0.011  0.00  0.00    +0.242 C 
ATOM      8  O   UNL     1      -1.247  -1.976   0.004  0.00  0.00    -0.270 OA
ATOM      9  N   UNL     1      -2.441  -0.103   0.026  0.00  0.00    -0.325 N 
ATOM     10  H   UNL     1      -2.455   0.867   0.031  0.00  0.00    +0.145 HD
ATOM     11  H   UNL     1      -3.274  -0.600   0.031  0.00  0.00    +0.145 HD
ENDBRANCH   6   7
BRANCH   3  12
ATOM     12  N   UNL     1       3.575   2.143  -0.021  0.00  0.00    -0.325 N 
ATOM     13  C   UNL     1       4.297   2.598  -1.223  0.00  0.00    +0.105 C 
ATOM     14  C   UNL     1       5.136   3.810  -0.747  0.00  0.00    +0.021 C 
ATOM     15  C   UNL     1       5.558   3.358   0.675  0.00  0.00    +0.024 C 
ATOM     16  C   UNL     1       4.321   2.579   1.169  0.00  0.00    +0.077 C 
BRANCH  16  17
ATOM     17  C   UNL     1       4.766   1.359   1.979  0.00  0.00    +0.009 C 
ATOM     18  C   UNL     1       3.533   0.584   2.489  0.00  0.00    +0.005 C 
ATOM     19  C   UNL     1       3.947   0.098   3.900  0.00  0.00    +0.000 C 
ATOM     20  C   UNL     1       4.761   1.295   4.449  0.00  0.00    +0.000 C 
ATOM     21  C   UNL     1       5.547   1.811   3.226  0.00  0.00    +0.005 C 
ENDBRANCH  16  17
ENDBRANCH   3  12
BRANCH   4  22
ATOM     22  N   UNL     1       3.633  -0.650  -0.038  0.00  0.00    -0.357 N 
ATOM     23  H   UNL     1       4.464  -0.150  -0.043  0.00  0.00    +0.142 HD
ATOM     24  H   UNL     1       3.651  -1.620  -0.043  0.00  0.00    +0.142 HD
ENDBRANCH   4  22
TORSDOF 4
