REMARK  Name = ZINC40397397
REMARK  6 active torsions:
REMARK  status: ('A' for Active; 'I' for Inactive)
REMARK    1  A    between atoms: C_1  and  C_2
REMARK    2  A    between atoms: C_2  and  C_3
REMARK    3  A    between atoms: C_3  and  N_4
REMARK    4  A    between atoms: C_16  and  C_25
REMARK    5  A    between atoms: C_17  and  C_18
REMARK    6  A    between atoms: C_25  and  C_26
REMARK                            x       y       z     vdW  Elec       q    Type
REMARK                         _______ _______ _______ _____ _____    ______ ____
ROOT
ATOM      1  N   UNL     1       0.738  -1.962  -1.265  0.00  0.00    -0.315 N 
ATOM      2  C   UNL     1       1.776  -2.617  -0.681  0.00  0.00    +0.091 A 
ATOM      3  C   UNL     1       1.857  -3.965  -0.653  0.00  0.00    +0.046 A 
ATOM      4  C   UNL     1       0.847  -4.742  -1.240  0.00  0.00    +0.083 A 
ATOM      5  C   UNL     1      -0.241  -4.095  -1.852  0.00  0.00    +0.083 A 
ATOM      6  C   UNL     1      -0.278  -2.634  -1.847  0.00  0.00    +0.262 A 
ATOM      7  O   UNL     1      -1.205  -2.034  -2.363  0.00  0.00    -0.267 OA
ATOM      8  C   UNL     1      -1.256  -4.871  -2.443  0.00  0.00    +0.128 A 
ATOM      9  N   UNL     1      -1.171  -6.181  -2.413  0.00  0.00    -0.235 NA
ATOM     10  C   UNL     1      -0.141  -6.811  -1.834  0.00  0.00    +0.164 A 
ATOM     11  N   UNL     1       0.881  -6.115  -1.240  0.00  0.00    -0.213 N 
ATOM     12  N   UNL     1       1.797  -7.042  -0.730  0.00  0.00    -0.169 NA
ATOM     13  C   UNL     1       1.374  -8.253  -0.989  0.00  0.00    +0.073 A 
ATOM     14  C   UNL     1       0.159  -8.169  -1.683  0.00  0.00    +0.049 A 
ENDROOT
BRANCH  14  15
ATOM     15  C   UNL     1      -0.657  -9.307  -2.166  0.00  0.00    -0.012 A 
ATOM     16  C   UNL     1      -1.248 -10.182  -1.254  0.00  0.00    +0.010 A 
ATOM     17  C   UNL     1      -2.007 -11.240  -1.709  0.00  0.00    +0.020 A 
ATOM     18  C   UNL     1      -2.183 -11.435  -3.069  0.00  0.00    +0.041 A 
ATOM     19  C   UNL     1      -1.599 -10.570  -3.978  0.00  0.00    +0.020 A 
ATOM     20  C   UNL     1      -0.842  -9.505  -3.534  0.00  0.00    +0.010 A 
ATOM     21 CL   UNL     1      -3.140 -12.768  -3.635  0.00  0.00    -0.084 Cl
ENDBRANCH  14  15
BRANCH  13  22
ATOM     22  C   UNL     1       2.078  -9.529  -0.606  0.00  0.00    +0.054 C 
ATOM     23  C   UNL     1       1.602  -9.980   0.776  0.00  0.00    +0.010 C 
ENDBRANCH  13  22
BRANCH   1  24
ATOM     24  C   UNL     1       0.718  -0.497  -1.257  0.00  0.00    +0.124 C 
BRANCH  24  26
ATOM     25  C   UNL     1      -0.019   1.526   0.010  0.00  0.00    +0.005 C 
ATOM     26  C   UNL     1       0.002  -0.004   0.002  0.00  0.00    +0.018 C 
ENDBRANCH  24  26
ENDBRANCH   1  24
TORSDOF 4
