REMARK  Name = ZINC06541271
REMARK  9 active torsions:
REMARK  status: ('A' for Active; 'I' for Inactive)
REMARK    1  A    between atoms: C_1  and  C_2
REMARK    2  A    between atoms: C_2  and  C_3
REMARK    3  A    between atoms: C_2  and  C_4
REMARK    4  A    between atoms: C_9  and  N_10
REMARK    5  A    between atoms: N_10  and  C_11
REMARK    6  A    between atoms: C_11  and  N_13
REMARK    7  A    between atoms: N_13  and  N_14
REMARK    8  A    between atoms: C_15  and  C_17
REMARK    9  A    between atoms: C_22  and  O_23
REMARK                            x       y       z     vdW  Elec       q    Type
REMARK                         _______ _______ _______ _____ _____    ______ ____
ROOT
ATOM      1  N   UNL     1      -0.591  -2.343  -4.239  0.00  0.00    -0.245 N 
ATOM      2  H   UNL     1      -0.918  -2.777  -5.043  0.00  0.00    +0.172 HD
ENDROOT
BRANCH   1   3
ATOM      3  N   UNL     1       0.769  -2.029  -4.116  0.00  0.00    -0.231 N 
ATOM      4  C   UNL     1       1.623  -2.330  -5.115  0.00  0.00    +0.264 C 
ATOM      5  O   UNL     1       1.213  -2.874  -6.122  0.00  0.00    -0.269 OA
ATOM      6  H   UNL     1       1.095  -1.595  -3.313  0.00  0.00    +0.173 HD
BRANCH   4   7
ATOM      7  C   UNL     1       3.054  -1.999  -4.985  0.00  0.00    +0.079 A 
ATOM      8  C   UNL     1       3.530  -1.379  -3.827  0.00  0.00    +0.017 A 
ATOM      9  C   UNL     1       4.869  -1.073  -3.713  0.00  0.00    +0.001 A 
ATOM     10  C   UNL     1       5.746  -1.377  -4.741  0.00  0.00    +0.004 A 
ATOM     11  C   UNL     1       5.289  -1.989  -5.891  0.00  0.00    +0.046 A 
ATOM     12  C   UNL     1       3.946  -2.310  -6.021  0.00  0.00    +0.129 A 
BRANCH  12  13
ATOM     13  O   UNL     1       3.496  -2.917  -7.148  0.00  0.00    -0.506 OA
ATOM     14  H   UNL     1       3.216  -2.303  -7.840  0.00  0.00    +0.292 HD
ENDBRANCH  12  13
ENDBRANCH   4   7
ENDBRANCH   1   3
BRANCH   1  15
ATOM     15  C   UNL     1      -1.445  -2.043  -3.241  0.00  0.00    +0.151 C 
ATOM     16  S   UNL     1      -3.107  -2.427  -3.391  0.00  0.00    -0.017 S 
BRANCH  15  17
ATOM     17  N   UNL     1      -0.991  -1.440  -2.124  0.00  0.00    -0.296 N 
ATOM     18  H   UNL     1      -0.063  -1.165  -2.065  0.00  0.00    +0.154 HD
BRANCH  17  24
ATOM     19  C   UNL     1      -1.473  -1.545   0.240  0.00  0.00    -0.024 A 
ATOM     20  C   UNL     1      -2.329  -1.311   1.298  0.00  0.00    +0.006 A 
ATOM     21  C   UNL     1      -3.572  -0.748   1.072  0.00  0.00    +0.000 A 
ATOM     22  C   UNL     1      -3.962  -0.418  -0.214  0.00  0.00    +0.002 A 
ATOM     23  C   UNL     1      -3.110  -0.650  -1.276  0.00  0.00    +0.023 A 
ATOM     24  C   UNL     1      -1.859  -1.209  -1.051  0.00  0.00    +0.036 A 
BRANCH  19  26
ATOM     25  C   UNL     1       0.700  -1.238   1.394  0.00  0.00    +0.012 C 
ATOM     26  C   UNL     1      -0.119  -2.158   0.487  0.00  0.00    +0.015 C 
ATOM     27  C   UNL     1      -0.291  -3.519   1.164  0.00  0.00    +0.012 C 
ENDBRANCH  19  26
ENDBRANCH  17  24
ENDBRANCH  15  17
ENDBRANCH   1  15
TORSDOF 7
