REMARK  Name = ZINC67162496
REMARK  9 active torsions:
REMARK  status: ('A' for Active; 'I' for Inactive)
REMARK    1  A    between atoms: C_1  and  N_2
REMARK    2  A    between atoms: C_3  and  C_5
REMARK    3  A    between atoms: C_5  and  N_6
REMARK    4  A    between atoms: C_9  and  N_12
REMARK    5  A    between atoms: C_13  and  C_15
REMARK    6  A    between atoms: C_15  and  C_16
REMARK    7  A    between atoms: C_16  and  C_17
REMARK    8  A    between atoms: C_17  and  C_18
REMARK    9  A    between atoms: C_18  and  C_19
REMARK                            x       y       z     vdW  Elec       q    Type
REMARK                         _______ _______ _______ _____ _____    ______ ____
ROOT
ATOM      1  N   UNL     1      -6.090  -4.732  -0.927  0.00  0.00    -0.313 N 
ATOM      2  C   UNL     1      -6.435  -5.985  -1.285  0.00  0.00    +0.213 C 
ATOM      3  O   UNL     1      -5.593  -6.750  -1.704  0.00  0.00    -0.276 OA
ATOM      4  H   UNL     1      -6.764  -4.121  -0.592  0.00  0.00    +0.149 HD
ENDROOT
BRANCH   1   8
ATOM      5  N   UNL     1      -2.514  -2.709   0.011  0.00  0.00    +0.385 N 
ATOM      6  C   UNL     1      -3.188  -2.315  -1.231  0.00  0.00    -0.076 C 
ATOM      7  C   UNL     1      -4.648  -2.772  -1.190  0.00  0.00    +0.003 C 
ATOM      8  C   UNL     1      -4.696  -4.295  -1.043  0.00  0.00    +0.069 C 
ATOM      9  C   UNL     1      -3.926  -4.701   0.217  0.00  0.00    +0.003 C 
ATOM     10  C   UNL     1      -2.493  -4.172   0.124  0.00  0.00    -0.076 C 
ATOM     11  H   UNL     1      -3.009  -2.319   0.799  0.00  0.00    -0.081 HD
BRANCH   5  12
ATOM     12  C   UNL     1      -1.135  -2.201   0.001  0.00  0.00    +0.019 C 
BRANCH  12  15
ATOM     13  C   UNL     1      -0.018   1.461   0.010  0.00  0.00    +0.128 C 
ATOM     14  N   UNL     1       0.002  -0.004   0.002  0.00  0.00    -0.320 N 
ATOM     15  C   UNL     1      -1.156  -0.694   0.009  0.00  0.00    +0.196 C 
ATOM     16  O   UNL     1      -2.214  -0.102   0.023  0.00  0.00    -0.278 OA
ATOM     17  H   UNL     1       0.849  -0.478  -0.009  0.00  0.00    +0.148 HD
ENDBRANCH  12  15
ENDBRANCH   5  12
ENDBRANCH   1   8
BRANCH   2  18
ATOM     18  C   UNL     1      -7.869  -6.434  -1.166  0.00  0.00    +0.096 C 
BRANCH  18  19
ATOM     19  C   UNL     1      -7.989  -7.886  -1.635  0.00  0.00    +0.009 C 
BRANCH  19  20
ATOM     20  C   UNL     1      -9.444  -8.342  -1.514  0.00  0.00    +0.002 C 
BRANCH  20  21
ATOM     21  C   UNL     1      -9.564  -9.794  -1.982  0.00  0.00    +0.016 C 
BRANCH  21  22
ATOM     22  C   UNL     1     -11.019 -10.251  -1.861  0.00  0.00    +0.069 C 
ATOM     23  C   UNL     1     -11.189 -11.700  -2.366  0.00  0.00    +0.108 C 
ATOM     24  C   UNL     1     -12.155 -12.536  -1.522  0.00  0.00    +0.105 C 
ATOM     25  C   UNL     1     -12.775 -11.761  -0.339  0.00  0.00    +0.093 C 
ATOM     26  S   UNL     1     -11.515 -10.419  -0.092  0.00  0.00    -0.154 S 
ATOM     27  N   UNL     1     -13.227 -12.900  -2.461  0.00  0.00    -0.294 N 
ATOM     28  C   UNL     1     -12.953 -12.374  -3.663  0.00  0.00    +0.300 C 
ATOM     29  O   UNL     1     -13.674 -12.518  -4.631  0.00  0.00    -0.253 OA
ATOM     30  N   UNL     1     -11.820 -11.674  -3.695  0.00  0.00    -0.294 N 
ATOM     31  H   UNL     1     -14.007 -13.436  -2.246  0.00  0.00    +0.151 HD
ATOM     32  H   UNL     1     -11.467 -11.222  -4.478  0.00  0.00    +0.151 HD
ENDBRANCH  21  22
ENDBRANCH  20  21
ENDBRANCH  19  20
ENDBRANCH  18  19
ENDBRANCH   2  18
TORSDOF 8
