REMARK  Name = ZINC38901608
REMARK  10 active torsions:
REMARK  status: ('A' for Active; 'I' for Inactive)
REMARK    1  A    between atoms: C_6  and  C_7
REMARK    2  A    between atoms: C_7  and  S_8
REMARK    3  A    between atoms: S_8  and  C_9
REMARK    4  A    between atoms: C_9  and  C_10
REMARK    5  A    between atoms: C_10  and  C_11
REMARK    6  A    between atoms: C_11  and  N_12
REMARK    7  A    between atoms: C_13  and  C_15
REMARK    8  A    between atoms: N_20  and  C_22
REMARK    9  A    between atoms: C_22  and  C_23
REMARK   10  A    between atoms: C_25  and  C_28
REMARK                            x       y       z     vdW  Elec       q    Type
REMARK                         _______ _______ _______ _____ _____    ______ ____
ROOT
ATOM      1  C   UNL     1      -7.513  -4.415  -5.540  0.00  0.00    +0.058 C 
ATOM      2  C   UNL     1      -6.505  -5.262  -6.322  0.00  0.00    +0.009 C 
ATOM      3  C   UNL     1      -7.114  -5.645  -7.673  0.00  0.00    -0.018 C 
ATOM      4  C   UNL     1      -8.435  -6.383  -7.441  0.00  0.00    -0.078 C 
ATOM      5  N   UNL     1      -9.364  -5.511  -6.712  0.00  0.00    +0.386 N 
ATOM      6  C   UNL     1      -8.819  -5.197  -5.386  0.00  0.00    -0.065 C 
ATOM      7  H   UNL     1      -9.498  -4.655  -7.231  0.00  0.00    -0.081 HD
ENDROOT
BRANCH   1   9
ATOM      8  N   UNL     1      -5.798  -3.411  -4.066  0.00  0.00    -0.315 N 
ATOM      9  C   UNL     1      -6.953  -4.097  -4.177  0.00  0.00    +0.214 C 
ATOM     10  O   UNL     1      -7.542  -4.459  -3.181  0.00  0.00    -0.276 OA
ATOM     11  H   UNL     1      -5.327  -3.122  -4.863  0.00  0.00    +0.149 HD
BRANCH   8  12
ATOM     12  C   UNL     1      -5.255  -3.102  -2.741  0.00  0.00    +0.105 C 
BRANCH  12  13
ATOM     13  C   UNL     1      -3.947  -2.322  -2.896  0.00  0.00    +0.029 C 
BRANCH  13  14
ATOM     14  C   UNL     1      -3.379  -2.000  -1.513  0.00  0.00    +0.071 C 
BRANCH  14  15
ATOM     15  S   UNL     1      -1.829  -1.075  -1.696  0.00  0.00    -0.156 S 
BRANCH  15  16
ATOM     16  C   UNL     1      -1.293  -0.775   0.011  0.00  0.00    +0.104 C 
BRANCH  16  22
ATOM     17  C   UNL     1      -0.017   1.378   0.010  0.00  0.00    +0.006 A 
ATOM     18  C   UNL     1       1.171   2.086   0.002  0.00  0.00    +0.020 A 
ATOM     19  C   UNL     1       2.378   1.410  -0.013  0.00  0.00    +0.041 A 
ATOM     20  C   UNL     1       2.396   0.027  -0.021  0.00  0.00    +0.020 A 
ATOM     21  C   UNL     1       1.208  -0.679  -0.013  0.00  0.00    +0.006 A 
ATOM     22  C   UNL     1       0.002  -0.004   0.002  0.00  0.00    -0.037 A 
ATOM     23 CL   UNL     1       3.870   2.298  -0.023  0.00  0.00    -0.084 Cl
ENDBRANCH  16  22
ENDBRANCH  15  16
ENDBRANCH  14  15
ENDBRANCH  13  14
ENDBRANCH  12  13
ENDBRANCH   8  12
ENDBRANCH   1   9
BRANCH   5  24
ATOM     24  C   UNL     1     -10.656  -6.194  -6.560  0.00  0.00    +0.022 C 
BRANCH  24  25
ATOM     25  C   UNL     1     -11.280  -6.398  -7.916  0.00  0.00    +0.211 A 
ATOM     26  N   UNL     1     -11.114  -7.439  -8.681  0.00  0.00    -0.193 NA
ATOM     27  C   UNL     1     -11.816  -7.290  -9.819  0.00  0.00    +0.202 A 
ATOM     28  N   UNL     1     -12.438  -6.138  -9.780  0.00  0.00    -0.056 NA
ATOM     29  O   UNL     1     -12.103  -5.542  -8.536  0.00  0.00    -0.340 OA
BRANCH  27  30
ATOM     30  C   UNL     1     -11.875  -8.269 -10.934  0.00  0.00    +0.023 A 
ATOM     31  C   UNL     1     -11.168  -9.466 -10.850  0.00  0.00    +0.014 A 
ATOM     32  C   UNL     1     -11.226 -10.373 -11.888  0.00  0.00    +0.039 A 
ATOM     33  C   UNL     1     -11.986 -10.095 -13.012  0.00  0.00    +0.123 A 
ATOM     34  C   UNL     1     -12.691  -8.905 -13.100  0.00  0.00    +0.039 A 
ATOM     35  C   UNL     1     -12.643  -7.995 -12.064  0.00  0.00    +0.014 A 
ATOM     36  F   UNL     1     -12.040 -10.986 -14.027  0.00  0.00    -0.205 F 
ENDBRANCH  27  30
ENDBRANCH  24  25
ENDBRANCH   5  24
TORSDOF 10
