REMARK  Name = ZINC05331823
REMARK  8 active torsions:
REMARK  status: ('A' for Active; 'I' for Inactive)
REMARK    1  A    between atoms: C_4  and  N_7
REMARK    2  A    between atoms: N_7  and  C_8
REMARK    3  A    between atoms: C_8  and  N_10
REMARK    4  A    between atoms: N_10  and  C_11
REMARK    5  A    between atoms: C_15  and  N_17
REMARK    6  A    between atoms: N_17  and  C_18
REMARK    7  A    between atoms: C_18  and  N_20
REMARK    8  A    between atoms: N_20  and  C_21
REMARK                            x       y       z     vdW  Elec       q    Type
REMARK                         _______ _______ _______ _____ _____    ______ ____
ROOT
ATOM      1  C   UNL     1      -0.026   3.282   0.676  0.00  0.00    +0.034 A 
ATOM      2  C   UNL     1       0.136   1.982   1.138  0.00  0.00    +0.023 A 
ATOM      3  C   UNL     1      -0.503   0.936   0.501  0.00  0.00    +0.004 A 
ATOM      4  C   UNL     1      -1.301   1.179  -0.601  0.00  0.00    +0.023 A 
ATOM      5  C   UNL     1      -1.472   2.477  -1.064  0.00  0.00    +0.034 A 
ATOM      6  C   UNL     1      -0.831   3.530  -0.426  0.00  0.00    +0.046 A 
ENDROOT
BRANCH   1   7
ATOM      7  N   UNL     1       0.622   4.340   1.323  0.00  0.00    -0.297 N 
ATOM      8  H   UNL     1       0.581   4.417   2.289  0.00  0.00    +0.154 HD
BRANCH   7   9
ATOM      9  C   UNL     1       1.302   5.254   0.603  0.00  0.00    +0.139 C 
ATOM     10  S   UNL     1       1.279   5.187  -1.108  0.00  0.00    -0.018 S 
BRANCH   9  11
ATOM     11  N   UNL     1       2.001   6.221   1.230  0.00  0.00    -0.297 N 
ATOM     12  H   UNL     1       2.063   6.225   2.197  0.00  0.00    +0.154 HD
BRANCH  11  16
ATOM     13  C   UNL     1       3.896   9.194  -0.990  0.00  0.00    +0.000 A 
ATOM     14  C   UNL     1       3.207   9.526   0.162  0.00  0.00    +0.002 A 
ATOM     15  C   UNL     1       2.578   8.543   0.900  0.00  0.00    +0.023 A 
ATOM     16  C   UNL     1       2.638   7.219   0.484  0.00  0.00    +0.033 A 
ATOM     17  C   UNL     1       3.335   6.888  -0.670  0.00  0.00    +0.023 A 
ATOM     18  C   UNL     1       3.958   7.876  -1.407  0.00  0.00    +0.002 A 
ENDBRANCH  11  16
ENDBRANCH   9  11
ENDBRANCH   7   9
ENDBRANCH   1   7
BRANCH   5  19
ATOM     19  N   UNL     1      -2.285   2.723  -2.176  0.00  0.00    -0.297 N 
ATOM     20  H   UNL     1      -2.236   2.141  -2.950  0.00  0.00    +0.154 HD
BRANCH  19  21
ATOM     21  C   UNL     1      -3.136   3.768  -2.170  0.00  0.00    +0.139 C 
ATOM     22  S   UNL     1      -3.148   4.855  -0.848  0.00  0.00    -0.018 S 
BRANCH  21  23
ATOM     23  N   UNL     1      -3.977   3.957  -3.206  0.00  0.00    -0.297 N 
ATOM     24  H   UNL     1      -3.913   3.393  -3.992  0.00  0.00    +0.154 HD
BRANCH  23  25
ATOM     25  C   UNL     1      -4.942   4.968  -3.148  0.00  0.00    +0.033 A 
ATOM     26  C   UNL     1      -5.631   5.205  -1.965  0.00  0.00    +0.023 A 
ATOM     27  C   UNL     1      -6.580   6.207  -1.909  0.00  0.00    +0.002 A 
ATOM     28  C   UNL     1      -6.853   6.966  -3.032  0.00  0.00    +0.000 A 
ATOM     29  C   UNL     1      -6.173   6.729  -4.213  0.00  0.00    +0.002 A 
ATOM     30  C   UNL     1      -5.219   5.732  -4.274  0.00  0.00    +0.023 A 
ENDBRANCH  23  25
ENDBRANCH  21  23
ENDBRANCH  19  21
ENDBRANCH   5  19
TORSDOF 8
