REMARK  Name = ZINC21755115
REMARK  11 active torsions:
REMARK  status: ('A' for Active; 'I' for Inactive)
REMARK    1  A    between atoms: C_1  and  N_2
REMARK    2  A    between atoms: N_2  and  C_3
REMARK    3  A    between atoms: N_2  and  C_4
REMARK    4  A    between atoms: C_7  and  C_10
REMARK    5  A    between atoms: C_10  and  C_12
REMARK    6  A    between atoms: C_10  and  N_26
REMARK    7  A    between atoms: C_12  and  N_13
REMARK    8  A    between atoms: N_13  and  S_14
REMARK    9  A    between atoms: S_14  and  C_17
REMARK   10  A    between atoms: C_22  and  N_23
REMARK   11  A    between atoms: N_29  and  C_32
REMARK                            x       y       z     vdW  Elec       q    Type
REMARK                         _______ _______ _______ _____ _____    ______ ____
ROOT
ATOM      1  C   UNL     1       1.817   7.590  -1.942  0.00  0.00    +0.102 C 
ENDROOT
BRANCH   1   5
ATOM      2  C   UNL     1      -0.154   9.980   1.003  0.00  0.00    +0.029 A 
ATOM      3  C   UNL     1       1.145  10.284   0.616  0.00  0.00    +0.023 A 
ATOM      4  C   UNL     1       1.779   9.509  -0.336  0.00  0.00    +0.007 A 
ATOM      5  C   UNL     1       1.122   8.433  -0.904  0.00  0.00    -0.029 A 
ATOM      6  C   UNL     1      -0.174   8.132  -0.525  0.00  0.00    +0.007 A 
ATOM      7  C   UNL     1      -0.811   8.898   0.431  0.00  0.00    +0.023 A 
BRANCH   2   9
ATOM      8  C   UNL     1      -0.151  11.971   2.480  0.00  0.00    +0.129 C 
ATOM      9  N   UNL     1      -0.799  10.762   1.964  0.00  0.00    -0.336 N 
ATOM     10  C   UNL     1      -2.122  10.372   2.458  0.00  0.00    +0.129 C 
ENDBRANCH   2   9
ENDBRANCH   1   5
BRANCH   1  11
ATOM     11  N   UNL     1       1.239   6.239  -1.943  0.00  0.00    -0.291 NA
ATOM     12  C   UNL     1       0.090   6.159  -2.856  0.00  0.00    +0.104 C 
ATOM     13  C   UNL     1      -0.530   4.762  -2.768  0.00  0.00    +0.120 C 
ATOM     14  N   UNL     1       0.484   3.756  -3.112  0.00  0.00    -0.327 N 
ATOM     15  C   UNL     1       1.633   3.837  -2.199  0.00  0.00    +0.120 C 
ATOM     16  C   UNL     1       2.253   5.233  -2.287  0.00  0.00    +0.104 C 
BRANCH  14  17
ATOM     17  C   UNL     1      -0.065   2.470  -3.113  0.00  0.00    +0.030 A 
ATOM     18  C   UNL     1       0.732   1.373  -3.414  0.00  0.00    +0.026 A 
ATOM     19  C   UNL     1       0.186   0.104  -3.414  0.00  0.00    +0.040 A 
ATOM     20  C   UNL     1      -1.153  -0.075  -3.114  0.00  0.00    +0.124 A 
ATOM     21  C   UNL     1      -1.950   1.017  -2.813  0.00  0.00    +0.040 A 
ATOM     22  C   UNL     1      -1.409   2.288  -2.813  0.00  0.00    +0.026 A 
ATOM     23  F   UNL     1      -1.685  -1.317  -3.115  0.00  0.00    -0.205 F 
ENDBRANCH  14  17
ENDBRANCH   1  11
BRANCH   1  24
ATOM     24  C   UNL     1       1.631   8.225  -3.321  0.00  0.00    +0.129 C 
BRANCH  24  25
ATOM     25  N   UNL     1       2.381   7.456  -4.318  0.00  0.00    -0.188 NA
ATOM     26  H   UNL     1       3.283   6.901  -4.019  0.00  0.00    +0.148 HD
BRANCH  25  27
ATOM     27  S   UNL     1       2.025   7.616  -5.927  0.00  0.00    +0.061 S 
ATOM     28  O   UNL     1       2.974   6.829  -6.633  0.00  0.00    -0.153 OA
ATOM     29  O   UNL     1       0.624   7.417  -6.055  0.00  0.00    -0.153 OA
BRANCH  27  30
ATOM     30  C   UNL     1       2.337   9.294  -6.365  0.00  0.00    +0.135 A 
ATOM     31  C   UNL     1       1.302  10.097  -6.807  0.00  0.00    +0.031 A 
ATOM     32  C   UNL     1       1.546  11.414  -7.146  0.00  0.00    +0.002 A 
ATOM     33  C   UNL     1       2.827  11.926  -7.053  0.00  0.00    +0.002 A 
ATOM     34  C   UNL     1       3.863  11.122  -6.617  0.00  0.00    +0.035 A 
ATOM     35  C   UNL     1       3.618   9.806  -6.272  0.00  0.00    +0.152 A 
BRANCH  35  36
ATOM     36  N   UNL     1       4.727   8.944  -5.805  0.00  0.00    +0.058 N 
ATOM     37  O   UNL     1       5.875   9.349  -5.855  0.00  0.00    -0.126 OA
ATOM     38  O   UNL     1       4.492   7.831  -5.371  0.00  0.00    -0.126 OA
ENDBRANCH  35  36
ENDBRANCH  27  30
ENDBRANCH  25  27
ENDBRANCH  24  25
ENDBRANCH   1  24
TORSDOF 9
