REMARK  Name = ZINC36594215
REMARK  16 active torsions:
REMARK  status: ('A' for Active; 'I' for Inactive)
REMARK    1  A    between atoms: C_1  and  C_2
REMARK    2  A    between atoms: C_2  and  C_3
REMARK    3  A    between atoms: N_5  and  C_6
REMARK    4  A    between atoms: N_5  and  C_24
REMARK    5  A    between atoms: C_6  and  C_8
REMARK    6  A    between atoms: C_6  and  C_17
REMARK    7  A    between atoms: C_9  and  O_16
REMARK    8  A    between atoms: C_11  and  O_15
REMARK    9  A    between atoms: C_13  and  O_14
REMARK   10  A    between atoms: N_19  and  C_20
REMARK   11  A    between atoms: C_20  and  C_21
REMARK   12  A    between atoms: C_20  and  C_22
REMARK   13  A    between atoms: C_20  and  C_23
REMARK   14  A    between atoms: C_24  and  C_25
REMARK   15  A    between atoms: C_24  and  C_26
REMARK   16  A    between atoms: C_24  and  C_27
REMARK                            x       y       z     vdW  Elec       q    Type
REMARK                         _______ _______ _______ _____ _____    ______ ____
ROOT
ATOM      1  C   UNL     1      -1.847  -2.118  -3.582  0.00  0.00    +0.200 C 
ENDROOT
BRANCH   1   2
ATOM      2  C   UNL     1      -2.613  -3.233  -4.247  0.00  0.00    +0.065 A 
ATOM      3  C   UNL     1      -2.516  -4.527  -3.759  0.00  0.00    +0.129 A 
ATOM      4  C   UNL     1      -3.221  -5.553  -4.370  0.00  0.00    +0.091 A 
ATOM      5  C   UNL     1      -4.023  -5.284  -5.470  0.00  0.00    +0.124 A 
ATOM      6  C   UNL     1      -4.120  -3.990  -5.957  0.00  0.00    +0.091 A 
ATOM      7  C   UNL     1      -3.418  -2.963  -5.343  0.00  0.00    +0.129 A 
BRANCH   7   8
ATOM      8  O   UNL     1      -3.517  -1.694  -5.817  0.00  0.00    -0.506 OA
ATOM      9  H   UNL     1      -2.862  -1.474  -6.494  0.00  0.00    +0.292 HD
ENDBRANCH   7   8
BRANCH   5  10
ATOM     10  O   UNL     1      -4.713  -6.290  -6.069  0.00  0.00    -0.507 OA
ATOM     11  H   UNL     1      -5.598  -6.430  -5.707  0.00  0.00    +0.292 HD
ENDBRANCH   5  10
BRANCH   3  12
ATOM     12  O   UNL     1      -1.731  -4.791  -2.682  0.00  0.00    -0.506 OA
ATOM     13  H   UNL     1      -2.210  -4.813  -1.842  0.00  0.00    +0.292 HD
ENDBRANCH   3  12
ENDBRANCH   1   2
BRANCH   1  14
ATOM     14  C   UNL     1      -0.371  -2.312  -3.818  0.00  0.00    +0.239 C 
ATOM     15  O   UNL     1       0.378  -2.470  -2.878  0.00  0.00    -0.273 OA
ATOM     16  N   UNL     1       0.116  -2.310  -5.075  0.00  0.00    -0.309 N 
ATOM     17  H   UNL     1      -0.483  -2.184  -5.827  0.00  0.00    +0.149 HD
BRANCH  16  18
ATOM     18  C   UNL     1       1.551  -2.499  -5.304  0.00  0.00    +0.026 C 
ATOM     19  C   UNL     1       1.983  -3.855  -4.742  0.00  0.00    +0.031 C 
ATOM     20  C   UNL     1       1.837  -2.455  -6.807  0.00  0.00    +0.031 C 
ATOM     21  C   UNL     1       2.330  -1.384  -4.604  0.00  0.00    +0.031 C 
ENDBRANCH  16  18
ENDBRANCH   1  14
BRANCH   1  24
ATOM     22  C   UNL     1      -3.302  -2.578  -1.683  0.00  0.00    +0.217 C 
ATOM     23  O   UNL     1      -4.132  -3.002  -2.458  0.00  0.00    -0.276 OA
ATOM     24  N   UNL     1      -2.117  -2.131  -2.142  0.00  0.00    -0.281 N 
BRANCH  24  25
ATOM     25  C   UNL     1      -1.098  -1.658  -1.202  0.00  0.00    +0.030 C 
ATOM     26  C   UNL     1      -1.765  -0.835  -0.098  0.00  0.00    +0.031 C 
ATOM     27  C   UNL     1      -0.382  -2.858  -0.580  0.00  0.00    +0.031 C 
ATOM     28  C   UNL     1      -0.083  -0.787  -1.945  0.00  0.00    +0.031 C 
ENDBRANCH  24  25
BRANCH  22  30
ATOM     29  C   UNL     1      -5.062  -2.922   0.030  0.00  0.00    +0.013 C 
ATOM     30  C   UNL     1      -3.597  -2.550  -0.205  0.00  0.00    +0.092 C 
ENDBRANCH  22  30
ENDBRANCH   1  24
TORSDOF 9
