REMARK  Name = ZINC16047027
REMARK  16 active torsions:
REMARK  status: ('A' for Active; 'I' for Inactive)
REMARK    1  A    between atoms: C_1  and  C_2
REMARK    2  A    between atoms: C_2  and  C_3
REMARK    3  A    between atoms: C_3  and  C_5
REMARK    4  A    between atoms: C_3  and  N_6
REMARK    5  A    between atoms: N_6  and  C_7
REMARK    6  A    between atoms: C_7  and  C_8
REMARK    7  A    between atoms: N_10  and  C_11
REMARK    8  A    between atoms: C_15  and  C_18
REMARK    9  A    between atoms: C_16  and  C_17
REMARK   10  A    between atoms: C_19  and  C_21
REMARK   11  A    between atoms: C_21  and  O_22
REMARK   12  A    between atoms: O_22  and  C_23
REMARK   13  A    between atoms: C_23  and  C_25
REMARK   14  A    between atoms: C_27  and  C_37
REMARK   15  A    between atoms: C_29  and  C_30
REMARK   16  A    between atoms: C_33  and  C_36
REMARK                            x       y       z     vdW  Elec       q    Type
REMARK                         _______ _______ _______ _____ _____    ______ ____
ROOT
ATOM      1  N   UNL     1       1.299   2.292  -0.228  0.00  0.00    -0.287 N 
ATOM      2  C   UNL     1      -0.016   2.006  -0.154  0.00  0.00    +0.254 C 
ATOM      3  O   UNL     1      -0.387   0.851  -0.175  0.00  0.00    -0.272 OA
ENDROOT
BRANCH   1   4
ATOM      4  C   UNL     1       1.748   3.686  -0.202  0.00  0.00    +0.073 C 
ATOM      5  C   UNL     1       2.802   3.862   0.893  0.00  0.00    +0.028 C 
BRANCH   4   7
ATOM      6  C   UNL     1       1.260   4.045  -2.626  0.00  0.00    +0.005 C 
ATOM      7  C   UNL     1       2.356   4.052  -1.558  0.00  0.00    +0.019 C 
ENDBRANCH   4   7
ENDBRANCH   1   4
BRANCH   1   8
ATOM      8  C   UNL     1       2.280   1.208  -0.336  0.00  0.00    +0.204 C 
BRANCH   8   9
ATOM      9  C   UNL     1       2.402   0.783  -1.776  0.00  0.00    +0.235 C 
ATOM     10  O   UNL     1       1.797   1.382  -2.639  0.00  0.00    -0.274 OA
ATOM     11  N   UNL     1       3.185  -0.264  -2.105  0.00  0.00    -0.284 N 
ATOM     12  H   UNL     1       3.729  -0.695  -1.427  0.00  0.00    +0.155 HD
BRANCH  11  13
ATOM     13  C   UNL     1       3.212  -0.729  -3.424  0.00  0.00    +0.037 A 
ATOM     14  C   UNL     1       2.131  -0.501  -4.266  0.00  0.00    +0.023 A 
ATOM     15  C   UNL     1       2.162  -0.962  -5.567  0.00  0.00    +0.002 A 
ATOM     16  C   UNL     1       3.267  -1.649  -6.033  0.00  0.00    +0.004 A 
ATOM     17  C   UNL     1       4.345  -1.878  -5.198  0.00  0.00    -0.046 A 
ATOM     18  C   UNL     1       4.324  -1.415  -3.897  0.00  0.00    -0.026 A 
ATOM     19  C   UNL     1       5.502  -1.659  -2.990  0.00  0.00    +0.046 C 
ATOM     20  C   UNL     1       5.548  -2.628  -5.710  0.00  0.00    +0.044 C 
ENDBRANCH  11  13
ENDBRANCH   8   9
ENDBRANCH   1   8
BRANCH   2  21
ATOM     21  C   UNL     1      -1.025   3.120  -0.050  0.00  0.00    +0.328 C 
BRANCH  21  22
ATOM     22  O   UNL     1      -2.362   2.558   0.010  0.00  0.00    -0.452 OA
BRANCH  22  23
ATOM     23  C   UNL     1      -3.388   3.428   0.106  0.00  0.00    +0.341 C 
ATOM     24  O   UNL     1      -3.170   4.623   0.139  0.00  0.00    -0.245 OA
BRANCH  23  25
ATOM     25  C   UNL     1      -4.770   2.930   0.171  0.00  0.00    +0.080 A 
ATOM     26  C   UNL     1      -5.205   1.529   0.137  0.00  0.00    +0.038 A 
ATOM     27  C   UNL     1      -6.546   1.543   0.226  0.00  0.00    +0.023 A 
ATOM     28  N   UNL     1      -6.971   2.841   0.301  0.00  0.00    -0.299 N 
ATOM     29  C   UNL     1      -5.910   3.681   0.269  0.00  0.00    +0.036 A 
ATOM     30  C   UNL     1      -5.973   5.186   0.331  0.00  0.00    +0.065 C 
ATOM     31  C   UNL     1      -8.308   3.241   0.399  0.00  0.00    +0.181 A 
ATOM     32  C   UNL     1      -9.413   2.700  -0.309  0.00  0.00    +0.094 A 
ATOM     33  C   UNL     1     -10.469   3.421   0.134  0.00  0.00    +0.136 A 
ATOM     34  O   UNL     1      -9.986   4.300   1.023  0.00  0.00    -0.358 OA
ATOM     35  N   UNL     1      -8.790   4.185   1.163  0.00  0.00    -0.060 NA
ATOM     36  C   UNL     1     -11.906   3.267  -0.291  0.00  0.00    +0.089 C 
ATOM     37  C   UNL     1      -7.436   0.327   0.233  0.00  0.00    +0.064 C 
ENDBRANCH  23  25
ENDBRANCH  22  23
ENDBRANCH  21  22
ENDBRANCH   2  21
TORSDOF 9
