REMARK  Name = ZINC65734059
REMARK  13 active torsions:
REMARK  status: ('A' for Active; 'I' for Inactive)
REMARK    1  A    between atoms: C_1  and  C_2
REMARK    2  A    between atoms: C_2  and  O_4
REMARK    3  A    between atoms: O_4  and  C_5
REMARK    4  A    between atoms: C_12  and  C_14
REMARK    5  A    between atoms: C_14  and  C_16
REMARK    6  A    between atoms: C_14  and  O_37
REMARK    7  A    between atoms: C_16  and  O_17
REMARK    8  A    between atoms: O_17  and  C_18
REMARK    9  A    between atoms: C_18  and  C_19
REMARK   10  A    between atoms: C_18  and  C_25
REMARK   11  A    between atoms: C_18  and  C_31
REMARK   12  A    between atoms: C_39  and  C_41
REMARK   13  A    between atoms: C_39  and  C_42
REMARK                            x       y       z     vdW  Elec       q    Type
REMARK                         _______ _______ _______ _____ _____    ______ ____
ROOT
ATOM      1  O   UNL     1       3.343  -5.525   0.461  0.00  0.00    -0.357 OA
ENDROOT
BRANCH   1   2
ATOM      2  C   UNL     1       3.150  -4.600  -0.611  0.00  0.00    +0.196 C 
BRANCH   2   3
ATOM      3  C   UNL     1       1.683  -4.622  -1.046  0.00  0.00    +0.173 C 
BRANCH   3   8
ATOM      4  C   UNL     1       0.014  -3.740  -2.727  0.00  0.00    +0.241 C 
ATOM      5  C   UNL     1       0.077  -4.410  -4.093  0.00  0.00    +0.220 C 
ATOM      6  C   UNL     1       1.520  -3.942  -4.517  0.00  0.00    +0.286 C 
ATOM      7  O   UNL     1       2.286  -4.262  -3.404  0.00  0.00    -0.339 OA
ATOM      8  C   UNL     1       1.502  -3.727  -2.273  0.00  0.00    +0.195 C 
ATOM      9  O   UNL     1       1.579  -4.358  -5.839  0.00  0.00    -0.318 OA
ATOM     10  C   UNL     1       0.214  -4.228  -6.328  0.00  0.00    +0.168 C 
ATOM     11  O   UNL     1      -0.646  -3.880  -5.195  0.00  0.00    -0.337 OA
ATOM     12  C   UNL     1      -0.251  -5.557  -6.926  0.00  0.00    +0.074 C 
ATOM     13  C   UNL     1       0.149  -3.130  -7.392  0.00  0.00    +0.074 C 
BRANCH   4  14
ATOM     14  O   UNL     1      -0.493  -2.408  -2.839  0.00  0.00    -0.456 OA
BRANCH  14  16
ATOM     15  C   UNL     1      -1.689  -0.507  -1.814  0.00  0.00    +0.136 C 
ATOM     16  C   UNL     1      -1.128  -1.905  -1.769  0.00  0.00    +0.304 C 
ATOM     17  O   UNL     1      -1.250  -2.574  -0.770  0.00  0.00    -0.251 OA
ENDBRANCH  14  16
ENDBRANCH   4  14
ENDBRANCH   3   8
BRANCH   3  18
ATOM     18  O   UNL     1       0.863  -4.141   0.020  0.00  0.00    -0.387 OA
ATOM     19  H   UNL     1       1.065  -3.237   0.295  0.00  0.00    +0.210 HD
ENDBRANCH   3  18
ENDBRANCH   2   3
ENDBRANCH   1   2
BRANCH   1  20
ATOM     20  C   UNL     1       4.708  -5.684   0.853  0.00  0.00    +0.144 C 
BRANCH  20  21
ATOM     21  C   UNL     1       5.277  -4.345   1.245  0.00  0.00    -0.007 A 
ATOM     22  C   UNL     1       5.735  -3.477   0.272  0.00  0.00    +0.007 A 
ATOM     23  C   UNL     1       6.257  -2.249   0.631  0.00  0.00    +0.000 A 
ATOM     24  C   UNL     1       6.321  -1.888   1.964  0.00  0.00    +0.000 A 
ATOM     25  C   UNL     1       5.862  -2.756   2.938  0.00  0.00    +0.000 A 
ATOM     26  C   UNL     1       5.336  -3.982   2.578  0.00  0.00    +0.007 A 
ENDBRANCH  20  21
BRANCH  20  27
ATOM     27  C   UNL     1       4.787  -6.627   2.027  0.00  0.00    -0.007 A 
ATOM     28  C   UNL     1       6.015  -6.947   2.574  0.00  0.00    +0.007 A 
ATOM     29  C   UNL     1       6.087  -7.812   3.651  0.00  0.00    +0.000 A 
ATOM     30  C   UNL     1       4.932  -8.355   4.180  0.00  0.00    +0.000 A 
ATOM     31  C   UNL     1       3.704  -8.033   3.633  0.00  0.00    +0.000 A 
ATOM     32  C   UNL     1       3.631  -7.166   2.559  0.00  0.00    +0.007 A 
ENDBRANCH  20  27
BRANCH  20  33
ATOM     33  C   UNL     1       5.499  -6.249  -0.298  0.00  0.00    -0.007 A 
ATOM     34  C   UNL     1       6.840  -5.942  -0.431  0.00  0.00    +0.007 A 
ATOM     35  C   UNL     1       7.566  -6.460  -1.488  0.00  0.00    +0.000 A 
ATOM     36  C   UNL     1       6.951  -7.285  -2.411  0.00  0.00    +0.000 A 
ATOM     37  C   UNL     1       5.609  -7.592  -2.277  0.00  0.00    +0.000 A 
ATOM     38  C   UNL     1       4.885  -7.078  -1.218  0.00  0.00    +0.007 A 
ENDBRANCH  20  33
ENDBRANCH   1  20
TORSDOF 10
