REMARK  Name = ZINC09618819
REMARK  12 active torsions:
REMARK  status: ('A' for Active; 'I' for Inactive)
REMARK    1  A    between atoms: C_1  and  C_2
REMARK    2  A    between atoms: C_2  and  N_3
REMARK    3  A    between atoms: C_4  and  C_31
REMARK    4  A    between atoms: C_7  and  S_8
REMARK    5  A    between atoms: S_8  and  C_9
REMARK    6  A    between atoms: C_9  and  C_10
REMARK    7  A    between atoms: C_10  and  O_12
REMARK    8  A    between atoms: O_12  and  C_13
REMARK    9  A    between atoms: C_13  and  C_15
REMARK   10  A    between atoms: C_13  and  C_16
REMARK   11  A    between atoms: N_18  and  C_19
REMARK   12  A    between atoms: C_24  and  C_25
REMARK                            x       y       z     vdW  Elec       q    Type
REMARK                         _______ _______ _______ _____ _____    ______ ____
ROOT
ATOM      1  C   UNL     1       4.366  13.000  -0.158  0.00  0.00    +0.259 C 
ATOM      2  C   UNL     1       4.352  13.499  -1.604  0.00  0.00    +0.062 C 
ENDROOT
BRANCH   1   3
ATOM      3  C   UNL     1       4.081  14.150   0.773  0.00  0.00    +0.258 C 
ATOM      4  O   UNL     1       3.117  14.111   1.507  0.00  0.00    -0.271 OA
ATOM      5  N   UNL     1       4.899  15.222   0.790  0.00  0.00    -0.282 N 
ATOM      6  H   UNL     1       5.822  15.219   0.192  0.00  0.00    +0.155 HD
BRANCH   5   7
ATOM      7  C   UNL     1       4.573  16.336   1.567  0.00  0.00    +0.041 A 
ATOM      8  C   UNL     1       3.250  16.592   1.898  0.00  0.00    +0.024 A 
ATOM      9  C   UNL     1       2.931  17.691   2.671  0.00  0.00    +0.002 A 
ATOM     10  C   UNL     1       3.925  18.549   3.110  0.00  0.00    +0.001 A 
ATOM     11  C   UNL     1       5.244  18.311   2.784  0.00  0.00    +0.010 A 
ATOM     12  C   UNL     1       5.579  17.202   2.010  0.00  0.00    +0.003 A 
BRANCH  12  13
ATOM     13  C   UNL     1       6.996  16.941   1.657  0.00  0.00    -0.016 A 
ATOM     14  C   UNL     1       7.549  15.680   1.871  0.00  0.00    +0.008 A 
ATOM     15  C   UNL     1       8.866  15.441   1.536  0.00  0.00    +0.001 A 
ATOM     16  C   UNL     1       9.640  16.453   0.998  0.00  0.00    +0.000 A 
ATOM     17  C   UNL     1       9.098  17.708   0.787  0.00  0.00    +0.001 A 
ATOM     18  C   UNL     1       7.780  17.957   1.114  0.00  0.00    +0.008 A 
ENDBRANCH  12  13
ENDBRANCH   5   7
ENDBRANCH   1   3
BRANCH   1  19
ATOM     19  O   UNL     1       3.350  11.977   0.011  0.00  0.00    -0.452 OA
BRANCH  19  20
ATOM     20  C   UNL     1       3.720  10.707  -0.216  0.00  0.00    +0.318 C 
ATOM     21  O   UNL     1       4.855  10.458  -0.545  0.00  0.00    -0.250 OA
BRANCH  20  22
ATOM     22  C   UNL     1       2.719   9.591  -0.060  0.00  0.00    +0.197 C 
BRANCH  22  23
ATOM     23  S   UNL     1       3.515   8.009  -0.433  0.00  0.00    -0.075 S 
BRANCH  23  28
ATOM     24  N   UNL     1       2.176   5.555  -0.315  0.00  0.00    -0.302 N 
ATOM     25  C   UNL     1       0.898   5.135  -0.020  0.00  0.00    +0.171 A 
ATOM     26  N   UNL     1       0.199   6.209   0.275  0.00  0.00    -0.128 NA
ATOM     27  N   UNL     1       0.941   7.255   0.181  0.00  0.00    -0.122 NA
ATOM     28  C   UNL     1       2.158   6.915  -0.179  0.00  0.00    +0.192 A 
BRANCH  25  29
ATOM     29  C   UNL     1       0.408   3.747  -0.028  0.00  0.00    +0.056 A 
ATOM     30  C   UNL     1      -0.884   3.286  -0.014  0.00  0.00    +0.019 A 
ATOM     31  C   UNL     1      -1.100   1.927  -0.031  0.00  0.00    +0.008 A 
ATOM     32  C   UNL     1      -0.033   1.086  -0.050  0.00  0.00    +0.046 A 
ATOM     33  S   UNL     1       1.341   2.225  -0.058  0.00  0.00    -0.094 S 
ENDBRANCH  25  29
BRANCH  24  35
ATOM     34  C   UNL     1       3.348   4.563  -2.219  0.00  0.00    +0.027 C 
ATOM     35  C   UNL     1       3.317   4.718  -0.697  0.00  0.00    +0.122 C 
ENDBRANCH  24  35
ENDBRANCH  23  28
ENDBRANCH  22  23
ENDBRANCH  20  22
ENDBRANCH  19  20
ENDBRANCH   1  19
TORSDOF 10
