REMARK  Name = ZINC48849620
REMARK  6 active torsions:
REMARK  status: ('A' for Active; 'I' for Inactive)
REMARK    1  A    between atoms: C_6  and  C_7
REMARK    2  A    between atoms: N_9  and  N_10
REMARK    3  A    between atoms: N_13  and  C_14
REMARK    4  A    between atoms: C_14  and  C_15
REMARK    5  A    between atoms: C_15  and  S_16
REMARK    6  A    between atoms: S_16  and  C_17
REMARK                            x       y       z     vdW  Elec       q    Type
REMARK                         _______ _______ _______ _____ _____    ______ ____
ROOT
ATOM      1  N   UNL     1      -2.124  -3.068   0.006  0.00  0.00    -0.218 N 
ATOM      2  C   UNL     1      -1.959  -4.405  -0.003  0.00  0.00    +0.316 C 
ATOM      3  O   UNL     1      -2.930  -5.137   0.002  0.00  0.00    -0.251 OA
ATOM      4  N   UNL     1      -0.719  -4.932  -0.018  0.00  0.00    -0.297 N 
ATOM      5  H   UNL     1      -3.017  -2.689   0.016  0.00  0.00    +0.174 HD
ATOM      6  H   UNL     1       0.056  -4.348  -0.022  0.00  0.00    +0.150 HD
ENDROOT
BRANCH   1   9
ATOM      7  C   UNL     1      -1.169  -0.887   0.009  0.00  0.00    +0.276 C 
ATOM      8  O   UNL     1      -2.289  -0.411   0.022  0.00  0.00    -0.267 OA
ATOM      9  N   UNL     1      -1.005  -2.224  -0.000  0.00  0.00    -0.228 N 
ATOM     10  H   UNL     1      -0.112  -2.603  -0.011  0.00  0.00    +0.173 HD
BRANCH   7  16
ATOM     11  C   UNL     1      -0.017   1.375   0.010  0.00  0.00    +0.047 A 
ATOM     12  C   UNL     1       1.315   1.804  -0.001  0.00  0.00    +0.036 A 
ATOM     13  C   UNL     1       2.106   0.704  -0.014  0.00  0.00    +0.098 A 
ATOM     14  N   UNL     1       1.320  -0.401  -0.013  0.00  0.00    -0.356 N 
ATOM     15  H   UNL     1       1.634  -1.319  -0.020  0.00  0.00    +0.166 HD
ATOM     16  C   UNL     1       0.002  -0.004   0.002  0.00  0.00    +0.104 A 
ATOM     17 BR   UNL     1       1.905   3.600   0.003  0.00  0.00    -0.049 Br
ENDBRANCH   7  16
ENDBRANCH   1   9
BRANCH   4  18
ATOM     18  C   UNL     1      -0.540  -6.386  -0.027  0.00  0.00    +0.116 C 
BRANCH  18  19
ATOM     19  C   UNL     1       0.954  -6.716  -0.043  0.00  0.00    +0.096 C 
BRANCH  19  20
ATOM     20  S   UNL     1       1.175  -8.517  -0.055  0.00  0.00    -0.050 S 
BRANCH  20  21
ATOM     21  C   UNL     1       2.975  -8.738  -0.073  0.00  0.00    +0.443 C 
ATOM     22  F   UNL     1       3.529  -8.146   1.067  0.00  0.00    -0.160 F 
ATOM     23  F   UNL     1       3.277 -10.104  -0.084  0.00  0.00    -0.160 F 
ATOM     24  F   UNL     1       3.507  -8.134  -1.218  0.00  0.00    -0.160 F 
ENDBRANCH  20  21
ENDBRANCH  19  20
ENDBRANCH  18  19
ENDBRANCH   4  18
TORSDOF 6
