REMARK  Name = ZINC34347223
REMARK  3 active torsions:
REMARK  status: ('A' for Active; 'I' for Inactive)
REMARK    1  A    between atoms: C_1  and  C_2
REMARK    2  A    between atoms: C_2  and  C_4
REMARK    3  A    between atoms: C_4  and  C_9
REMARK                            x       y       z     vdW  Elec       q    Type
REMARK                         _______ _______ _______ _____ _____    ______ ____
ROOT
ATOM      1  C   UNL     1      -0.000  -0.750  -1.307  0.00  0.00    +0.094 C 
ATOM      2  C   UNL     1       1.270  -1.513  -1.688  0.00  0.00    +0.096 C 
ATOM      3  C   UNL     1       0.021  -2.279  -1.249  0.00  0.00    +0.262 C 
ATOM      4  F   UNL     1       0.041  -2.877   0.016  0.00  0.00    -0.205 F 
ATOM      5  F   UNL     1      -0.690  -2.973  -2.233  0.00  0.00    -0.205 F 
ATOM      6  C   UNL     1      -0.798  -0.098  -2.438  0.00  0.00    +0.025 C 
ENDROOT
BRANCH   1   8
ATOM      7  C   UNL     1      -0.018   1.503   0.010  0.00  0.00    +0.086 C 
ATOM      8  C   UNL     1       0.002  -0.004   0.002  0.00  0.00    +0.142 C 
ATOM      9  O   UNL     1       0.020  -0.613   1.044  0.00  0.00    -0.297 OA
ENDBRANCH   1   8
TORSDOF 1
