REMARK  Name = ZINC39487704
REMARK  9 active torsions:
REMARK  status: ('A' for Active; 'I' for Inactive)
REMARK    1  A    between atoms: C_1  and  C_2
REMARK    2  A    between atoms: C_2  and  C_3
REMARK    3  A    between atoms: C_2  and  C_4
REMARK    4  A    between atoms: C_4  and  C_5
REMARK    5  A    between atoms: C_5  and  C_26
REMARK    6  A    between atoms: N_10  and  C_11
REMARK    7  A    between atoms: C_11  and  C_12
REMARK    8  A    between atoms: C_12  and  C_19
REMARK    9  A    between atoms: N_15  and  O_18
REMARK                            x       y       z     vdW  Elec       q    Type
REMARK                         _______ _______ _______ _____ _____    ______ ____
ROOT
ATOM      1  C   UNL     1      -6.093   0.784  -0.744  0.00  0.00    -0.008 C 
ATOM      2  C   UNL     1      -7.027   0.029  -1.693  0.00  0.00    +0.026 C 
ATOM      3  C   UNL     1      -6.229  -0.463  -2.903  0.00  0.00    +0.115 C 
ATOM      4  N   UNL     1      -5.625   0.685  -3.591  0.00  0.00    -0.191 NA
ATOM      5  C   UNL     1      -4.687   1.397  -2.714  0.00  0.00    +0.115 C 
ATOM      6  C   UNL     1      -5.439   1.945  -1.499  0.00  0.00    +0.026 C 
ENDROOT
BRANCH   1   7
ATOM      7  C   UNL     1      -6.895   1.330   0.439  0.00  0.00    -0.003 C 
ATOM      8  C   UNL     1      -7.733   0.205   1.050  0.00  0.00    +0.004 C 
ATOM      9  C   UNL     1      -8.536   0.752   2.232  0.00  0.00    +0.000 C 
ATOM     10  C   UNL     1      -9.460   1.871   1.747  0.00  0.00    +0.000 C 
ATOM     11  C   UNL     1      -8.622   2.996   1.137  0.00  0.00    +0.000 C 
ATOM     12  C   UNL     1      -7.819   2.449  -0.046  0.00  0.00    +0.004 C 
ENDBRANCH   1   7
BRANCH   4  13
ATOM     13  O   UNL     1      -4.968   0.267  -4.830  0.00  0.00    -0.312 OA
ATOM     14  H   UNL     1      -4.555   0.991  -5.320  0.00  0.00    +0.237 HD
ENDBRANCH   4  13
BRANCH   1  15
ATOM     15  C   UNL     1      -5.009  -0.166  -0.230  0.00  0.00    +0.117 C 
BRANCH  15  21
ATOM     16  C   UNL     1      -4.016   0.449   2.102  0.00  0.00    +0.053 C 
ATOM     17  C   UNL     1      -2.893   1.427   2.500  0.00  0.00    +0.154 C 
ATOM     18  N   UNL     1      -2.450   1.994   1.217  0.00  0.00    -0.196 N 
ATOM     19  C   UNL     1      -3.173   1.458   0.226  0.00  0.00    +0.319 C 
ATOM     20  O   UNL     1      -3.014   1.751  -0.944  0.00  0.00    -0.251 OA
ATOM     21  N   UNL     1      -4.086   0.569   0.638  0.00  0.00    -0.277 N 
ATOM     22 CL   UNL     1      -1.210   3.155   1.024  0.00  0.00    +0.005 Cl
ATOM     23  C   UNL     1      -5.344   0.863   2.740  0.00  0.00    +0.033 C 
BRANCH  16  24
ATOM     24  C   UNL     1      -3.651  -0.981   2.507  0.00  0.00    +0.030 C 
BRANCH  24  26
ATOM     25  C   UNL     1      -1.239  -0.715   1.909  0.00  0.00    +0.007 C 
ATOM     26  C   UNL     1      -2.522  -1.492   1.609  0.00  0.00    -0.015 C 
ATOM     27  C   UNL     1      -2.292  -2.981   1.878  0.00  0.00    +0.007 C 
ENDBRANCH  24  26
ENDBRANCH  16  24
ENDBRANCH  15  21
ENDBRANCH   1  15
TORSDOF 6
