REMARK  Name = ZINC36550995
REMARK  6 active torsions:
REMARK  status: ('A' for Active; 'I' for Inactive)
REMARK    1  A    between atoms: C_1  and  C_2
REMARK    2  A    between atoms: C_2  and  N_3
REMARK    3  A    between atoms: C_14  and  C_16
REMARK    4  A    between atoms: C_29  and  C_32
REMARK    5  A    between atoms: N_34  and  C_35
REMARK    6  A    between atoms: C_35  and  C_36
REMARK                            x       y       z     vdW  Elec       q    Type
REMARK                         _______ _______ _______ _____ _____    ______ ____
ROOT
ATOM      1  C   UNL     1      -5.006  -1.863  -4.049  0.00  0.00    +0.105 C 
ATOM      2  C   UNL     1      -4.705  -3.225  -4.649  0.00  0.00    +0.029 C 
ATOM      3  C   UNL     1      -4.817  -4.441  -3.721  0.00  0.00    +0.033 C 
ATOM      4  C   UNL     1      -5.200  -5.546  -4.708  0.00  0.00    -0.030 C 
ATOM      5  C   UNL     1      -5.812  -5.021  -5.763  0.00  0.00    -0.023 C 
ATOM      6  C   UNL     1      -5.908  -3.540  -5.587  0.00  0.00    +0.049 C 
ATOM      7  C   UNL     1      -5.860  -2.589  -6.719  0.00  0.00    -0.019 A 
ATOM      8  C   UNL     1      -6.237  -2.940  -7.996  0.00  0.00    +0.006 A 
ATOM      9  C   UNL     1      -6.188  -2.015  -9.027  0.00  0.00    +0.001 A 
ATOM     10  C   UNL     1      -5.762  -0.728  -8.784  0.00  0.00    +0.015 A 
ATOM     11  C   UNL     1      -5.372  -0.353  -7.497  0.00  0.00    +0.058 A 
ATOM     12  C   UNL     1      -5.410  -1.291  -6.452  0.00  0.00    +0.044 A 
ATOM     13  N   UNL     1      -4.983  -0.912  -5.181  0.00  0.00    -0.336 N 
ATOM     14  H   UNL     1      -4.662  -0.008  -5.036  0.00  0.00    +0.147 HD
ENDROOT
BRANCH   1  26
ATOM     15  N   UNL     1      -1.216  -0.546  -0.074  0.00  0.00    -0.340 N 
ATOM     16  C   UNL     1      -1.924  -0.831   1.080  0.00  0.00    +0.050 A 
ATOM     17  C   UNL     1      -1.596  -0.732   2.429  0.00  0.00    +0.026 A 
ATOM     18  C   UNL     1      -2.516  -1.092   3.391  0.00  0.00    +0.002 A 
ATOM     19  C   UNL     1      -3.772  -1.553   3.028  0.00  0.00    +0.001 A 
ATOM     20  C   UNL     1      -4.115  -1.658   1.697  0.00  0.00    +0.010 A 
ATOM     21  C   UNL     1      -3.195  -1.298   0.715  0.00  0.00    +0.008 A 
ATOM     22  C   UNL     1      -3.238  -1.287  -0.759  0.00  0.00    +0.008 A 
ATOM     23  C   UNL     1      -1.991  -0.809  -1.189  0.00  0.00    +0.050 A 
ATOM     24  C   UNL     1      -1.743  -0.684  -2.553  0.00  0.00    +0.027 A 
ATOM     25  C   UNL     1      -2.719  -1.026  -3.465  0.00  0.00    +0.007 A 
ATOM     26  C   UNL     1      -3.951  -1.495  -3.038  0.00  0.00    -0.026 A 
ATOM     27  C   UNL     1      -4.212  -1.634  -1.691  0.00  0.00    +0.016 A 
BRANCH  15  29
ATOM     28  C   UNL     1       0.129   1.496  -0.090  0.00  0.00    +0.027 C 
ATOM     29  C   UNL     1       0.156  -0.033  -0.109  0.00  0.00    +0.119 C 
ENDBRANCH  15  29
ENDBRANCH   1  26
BRANCH  11  30
ATOM     30  C   UNL     1      -4.921   1.025  -7.234  0.00  0.00    +0.246 C 
ATOM     31  O   UNL     1      -4.691   1.384  -6.095  0.00  0.00    -0.270 OA
ATOM     32  N   UNL     1      -4.763   1.889  -8.257  0.00  0.00    -0.307 N 
ATOM     33  H   UNL     1      -4.946   1.603  -9.166  0.00  0.00    +0.149 HD
BRANCH  32  34
ATOM     34  C   UNL     1      -4.315   3.259  -7.997  0.00  0.00    +0.139 C 
BRANCH  34  35
ATOM     35  C   UNL     1      -4.220   4.012  -9.299  0.00  0.00    -0.030 A 
ATOM     36  C   UNL     1      -3.039   4.003 -10.018  0.00  0.00    +0.005 A 
ATOM     37  C   UNL     1      -2.952   4.694 -11.212  0.00  0.00    +0.000 A 
ATOM     38  C   UNL     1      -4.046   5.394 -11.687  0.00  0.00    +0.000 A 
ATOM     39  C   UNL     1      -5.226   5.402 -10.968  0.00  0.00    +0.000 A 
ATOM     40  C   UNL     1      -5.315   4.708  -9.776  0.00  0.00    +0.005 A 
ENDBRANCH  34  35
ENDBRANCH  32  34
ENDBRANCH  11  30
TORSDOF 5
