REMARK  Name = ZINC06416790
REMARK  3 active torsions:
REMARK  status: ('A' for Active; 'I' for Inactive)
REMARK    1  A    between atoms: C_1  and  C_2
REMARK    2  A    between atoms: C_5  and  C_22
REMARK    3  A    between atoms: C_10  and  C_12
REMARK                            x       y       z     vdW  Elec       q    Type
REMARK                         _______ _______ _______ _____ _____    ______ ____
ROOT
ATOM      1  C   UNL     1      -0.059  -3.260   2.344  0.00  0.00    +0.009 C 
ATOM      2  C   UNL     1       0.014  -3.917   0.964  0.00  0.00    +0.004 C 
ATOM      3  C   UNL     1      -1.216  -4.803   0.755  0.00  0.00    +0.009 C 
ATOM      4  C   UNL     1      -2.484  -3.956   0.881  0.00  0.00    +0.004 C 
ATOM      5  C   UNL     1      -2.479  -2.872  -0.202  0.00  0.00    +0.111 C 
ATOM      6  N   UNL     1      -1.229  -2.107  -0.099  0.00  0.00    -0.297 N 
ATOM      7  C   UNL     1       0.048  -2.833  -0.123  0.00  0.00    +0.111 C 
ATOM      8  C   UNL     1      -1.253  -0.764   0.010  0.00  0.00    +0.253 C 
ATOM      9  O   UNL     1      -2.316  -0.181   0.119  0.00  0.00    -0.270 OA
ATOM     10  C   UNL     1      -3.714  -4.848   0.704  0.00  0.00    +0.009 C 
ENDROOT
BRANCH   8  11
ATOM     11  C   UNL     1       0.002  -0.004  -0.001  0.00  0.00    +0.120 A 
ATOM     12  C   UNL     1       0.700   0.192  -1.198  0.00  0.00    +0.132 A 
ATOM     13  N   UNL     1       1.828   0.882  -1.170  0.00  0.00    -0.230 NA
ATOM     14  C   UNL     1       2.299   1.384  -0.048  0.00  0.00    +0.180 A 
ATOM     15  N   UNL     1       1.690   1.245   1.167  0.00  0.00    -0.261 N 
ATOM     16  C   UNL     1       0.519   0.539   1.194  0.00  0.00    +0.271 A 
ATOM     17  O   UNL     1      -0.075   0.379   2.246  0.00  0.00    -0.266 OA
ATOM     18  C   UNL     1       2.313   1.830   2.244  0.00  0.00    +0.104 A 
ATOM     19  C   UNL     1       3.456   2.492   2.067  0.00  0.00    +0.067 A 
ATOM     20  S   UNL     1       3.714   2.313   0.310  0.00  0.00    -0.058 S 
ENDBRANCH   8  11
TORSDOF 1
