REMARK  Name = ZINC03247812
REMARK  6 active torsions:
REMARK  status: ('A' for Active; 'I' for Inactive)
REMARK    1  A    between atoms: C_3  and  N_22
REMARK    2  A    between atoms: C_6  and  C_7
REMARK    3  A    between atoms: C_7  and  O_9
REMARK    4  A    between atoms: O_9  and  C_10
REMARK    5  A    between atoms: C_10  and  C_11
REMARK    6  A    between atoms: N_13  and  C_14
REMARK                            x       y       z     vdW  Elec       q    Type
REMARK                         _______ _______ _______ _____ _____    ______ ____
ROOT
ATOM      1  C   UNL     1      -0.502   0.651  -0.452  0.00  0.00    +0.340 C 
ATOM      2  O   UNL     1       0.252  -0.298  -0.530  0.00  0.00    -0.245 OA
ENDROOT
BRANCH   1   8
ATOM      3  C   UNL     1      -2.827   1.540  -0.473  0.00  0.00    +0.017 A 
ATOM      4  C   UNL     1      -4.185   1.347  -0.586  0.00  0.00    +0.024 A 
ATOM      5  C   UNL     1      -4.694   0.067  -0.783  0.00  0.00    +0.035 A 
ATOM      6  C   UNL     1      -3.832  -1.022  -0.872  0.00  0.00    +0.024 A 
ATOM      7  C   UNL     1      -2.473  -0.836  -0.766  0.00  0.00    +0.017 A 
ATOM      8  C   UNL     1      -1.958   0.449  -0.568  0.00  0.00    +0.059 A 
BRANCH   5   9
ATOM      9  N   UNL     1      -6.071  -0.124  -0.891  0.00  0.00    -0.270 N 
ATOM     10  C   UNL     1      -6.633  -1.253  -0.416  0.00  0.00    +0.301 C 
ATOM     11  O   UNL     1      -5.957  -2.060   0.191  0.00  0.00    -0.253 OA
ATOM     12  N   UNL     1      -7.946  -1.487  -0.615  0.00  0.00    -0.313 N 
ATOM     13  H   UNL     1      -6.623   0.554  -1.309  0.00  0.00    +0.156 HD
ATOM     14  H   UNL     1      -8.485  -0.843  -1.099  0.00  0.00    +0.146 HD
ATOM     15  H   UNL     1      -8.351  -2.300  -0.272  0.00  0.00    +0.146 HD
ENDBRANCH   5   9
ENDBRANCH   1   8
BRANCH   1  16
ATOM     16  O   UNL     1      -0.007   1.890  -0.262  0.00  0.00    -0.452 OA
BRANCH  16  17
ATOM     17  C   UNL     1       1.436   2.015  -0.157  0.00  0.00    +0.328 C 
BRANCH  17  18
ATOM     18  C   UNL     1       1.801   3.462   0.053  0.00  0.00    +0.255 C 
ATOM     19  O   UNL     1       0.931   4.305   0.109  0.00  0.00    -0.272 OA
ATOM     20  N   UNL     1       3.095   3.819   0.178  0.00  0.00    -0.283 N 
ATOM     21  H   UNL     1       3.794   3.157   0.061  0.00  0.00    +0.155 HD
BRANCH  20  22
ATOM     22  C   UNL     1       3.429   5.145   0.477  0.00  0.00    +0.035 A 
ATOM     23  C   UNL     1       4.594   5.701  -0.036  0.00  0.00    +0.025 A 
ATOM     24  C   UNL     1       4.918   7.012   0.255  0.00  0.00    +0.023 A 
ATOM     25  C   UNL     1       4.090   7.768   1.066  0.00  0.00    +0.059 A 
ATOM     26  C   UNL     1       2.931   7.215   1.583  0.00  0.00    +0.061 A 
ATOM     27  C   UNL     1       2.599   5.905   1.290  0.00  0.00    +0.044 A 
ATOM     28 CL   UNL     1       1.894   8.166   2.600  0.00  0.00    -0.082 Cl
ATOM     29 CL   UNL     1       4.505   9.412   1.435  0.00  0.00    -0.082 Cl
ENDBRANCH  20  22
ENDBRANCH  17  18
ENDBRANCH  16  17
ENDBRANCH   1  16
TORSDOF 6
