REMARK  Name = ZINC49117068
REMARK  7 active torsions:
REMARK  status: ('A' for Active; 'I' for Inactive)
REMARK    1  A    between atoms: C_4  and  C_8
REMARK    2  A    between atoms: C_8  and  N_9
REMARK    3  A    between atoms: C_10  and  C_12
REMARK    4  A    between atoms: C_12  and  C_13
REMARK    5  A    between atoms: C_13  and  C_14
REMARK    6  A    between atoms: C_14  and  C_15
REMARK    7  A    between atoms: C_15  and  N_16
REMARK                            x       y       z     vdW  Elec       q    Type
REMARK                         _______ _______ _______ _____ _____    ______ ____
ROOT
ATOM      1  N   UNL     1       4.270  -0.743   1.315  0.00  0.00    -0.311 N 
ATOM      2  C   UNL     1       5.450  -1.353   1.542  0.00  0.00    +0.213 C 
ATOM      3  O   UNL     1       6.051  -1.871   0.626  0.00  0.00    -0.276 OA
ATOM      4  H   UNL     1       3.789  -0.328   2.049  0.00  0.00    +0.149 HD
ENDROOT
BRANCH   1   5
ATOM      5  C   UNL     1       3.713  -0.706  -0.039  0.00  0.00    +0.140 C 
BRANCH   5   9
ATOM      6  C   UNL     1      -0.017   1.380   0.010  0.00  0.00    +0.039 A 
ATOM      7  C   UNL     1       1.171   2.087   0.002  0.00  0.00    +0.018 A 
ATOM      8  C   UNL     1       2.378   1.412  -0.013  0.00  0.00    +0.023 A 
ATOM      9  C   UNL     1       2.397   0.029  -0.022  0.00  0.00    -0.014 A 
ATOM     10  C   UNL     1       1.211  -0.679  -0.014  0.00  0.00    +0.044 A 
ATOM     11  C   UNL     1       0.002  -0.004   0.002  0.00  0.00    +0.124 A 
ATOM     12  F   UNL     1      -1.158  -0.696   0.010  0.00  0.00    -0.205 F 
ATOM     13 BR   UNL     1       4.002   2.380  -0.025  0.00  0.00    -0.050 Br
ENDBRANCH   5   9
ENDBRANCH   1   5
BRANCH   2  14
ATOM     14  C   UNL     1       6.023  -1.390   2.936  0.00  0.00    +0.096 C 
BRANCH  14  15
ATOM     15  C   UNL     1       7.359  -2.136   2.918  0.00  0.00    +0.011 C 
BRANCH  15  16
ATOM     16  C   UNL     1       7.941  -2.174   4.333  0.00  0.00    +0.019 C 
BRANCH  16  17
ATOM     17  C   UNL     1       9.276  -2.920   4.315  0.00  0.00    +0.106 C 
BRANCH  17  18
ATOM     18  N   UNL     1       9.833  -2.957   5.669  0.00  0.00    -0.300 N 
ATOM     19  C   UNL     1      11.014  -3.567   5.896  0.00  0.00    +0.297 C 
ATOM     20  O   UNL     1      11.616  -4.087   4.977  0.00  0.00    -0.253 OA
ATOM     21  N   UNL     1      11.526  -3.600   7.143  0.00  0.00    -0.313 N 
ATOM     22  H   UNL     1       9.353  -2.542   6.403  0.00  0.00    +0.150 HD
ATOM     23  H   UNL     1      11.046  -3.185   7.876  0.00  0.00    +0.146 HD
ATOM     24  H   UNL     1      12.375  -4.039   7.306  0.00  0.00    +0.146 HD
ENDBRANCH  17  18
ENDBRANCH  16  17
ENDBRANCH  15  16
ENDBRANCH  14  15
ENDBRANCH   2  14
TORSDOF 7
