REMARK  Name = ZINC03978013
REMARK  8 active torsions:
REMARK  status: ('A' for Active; 'I' for Inactive)
REMARK    1  A    between atoms: C_1  and  C_2
REMARK    2  A    between atoms: C_17  and  C_32
REMARK    3  A    between atoms: C_19  and  O_30
REMARK    4  A    between atoms: C_22  and  C_29
REMARK    5  A    between atoms: C_23  and  C_24
REMARK    6  A    between atoms: C_23  and  O_28
REMARK    7  A    between atoms: C_24  and  C_26
REMARK    8  A    between atoms: C_26  and  O_27
REMARK                            x       y       z     vdW  Elec       q    Type
REMARK                         _______ _______ _______ _____ _____    ______ ____
ROOT
ATOM      1  C   UNL     1       0.259   1.111   0.443  0.00  0.00    +0.011 C 
ATOM      2  C   UNL     1       0.319  -0.418   0.410  0.00  0.00    +0.026 C 
ATOM      3  C   UNL     1      -1.079  -0.996   0.089  0.00  0.00    +0.011 C 
ATOM      4  C   UNL     1      -1.157  -2.257   0.971  0.00  0.00    +0.005 C 
ATOM      5  C   UNL     1      -2.570  -2.744   1.163  0.00  0.00    +0.034 C 
ATOM      6  C   UNL     1      -2.586  -4.100   1.881  0.00  0.00    +0.011 C 
ATOM      7  C   UNL     1      -3.965  -4.724   1.659  0.00  0.00    +0.032 C 
ATOM      8  C   UNL     1      -5.045  -3.731   1.972  0.00  0.00    -0.053 C 
ATOM      9  C   UNL     1      -6.318  -4.181   2.072  0.00  0.00    +0.051 C 
ATOM     10  C   UNL     1      -7.334  -3.124   2.330  0.00  0.00    +0.179 C 
ATOM     11  O   UNL     1      -8.253  -3.276   3.113  0.00  0.00    -0.288 OA
ATOM     12  C   UNL     1      -7.139  -1.867   1.556  0.00  0.00    +0.047 C 
ATOM     13  C   UNL     1      -5.859  -1.446   1.466  0.00  0.00    -0.009 C 
ATOM     14  C   UNL     1      -4.821  -2.272   2.173  0.00  0.00    +0.044 C 
ATOM     15  C   UNL     1      -3.411  -1.779   1.988  0.00  0.00    +0.153 C 
ATOM     16  C   UNL     1      -2.722  -1.560   3.340  0.00  0.00    +0.154 C 
ATOM     17  C   UNL     1      -1.360  -0.916   3.097  0.00  0.00    +0.044 C 
ATOM     18  C   UNL     1      -0.486  -1.819   2.284  0.00  0.00    +0.010 C 
ATOM     19  C   UNL     1       0.713  -0.960   1.796  0.00  0.00    +0.134 C 
ATOM     20  C   UNL     1      -0.042  -3.017   3.125  0.00  0.00    +0.015 C 
ATOM     21  F   UNL     1      -3.467  -0.548   1.325  0.00  0.00    -0.238 F 
ATOM     22  C   UNL     1      -5.094  -2.038   3.660  0.00  0.00    +0.023 C 
ENDROOT
BRANCH  19  23
ATOM     23  C   UNL     1       1.950  -1.813   1.686  0.00  0.00    +0.190 C 
ATOM     24  O   UNL     1       1.857  -2.974   1.367  0.00  0.00    -0.292 OA
BRANCH  23  25
ATOM     25  C   UNL     1       3.304  -1.218   1.974  0.00  0.00    +0.233 C 
BRANCH  25  26
ATOM     26  O   UNL     1       4.310  -2.218   1.802  0.00  0.00    -0.387 OA
ATOM     27  H   UNL     1       5.209  -1.904   1.972  0.00  0.00    +0.210 HD
ENDBRANCH  25  26
ENDBRANCH  23  25
ENDBRANCH  19  23
BRANCH  19  28
ATOM     28  O   UNL     1       0.941   0.123   2.700  0.00  0.00    -0.380 OA
ATOM     29  H   UNL     1       1.662   0.711   2.435  0.00  0.00    +0.211 HD
ENDBRANCH  19  28
BRANCH  16  30
ATOM     30  O   UNL     1      -2.551  -2.816   4.000  0.00  0.00    -0.389 OA
ATOM     31  H   UNL     1      -2.120  -2.751   4.863  0.00  0.00    +0.210 HD
ENDBRANCH  16  30
TORSDOF 5
