REMARK  Name = ZINC36591827
REMARK  17 active torsions:
REMARK  status: ('A' for Active; 'I' for Inactive)
REMARK    1  A    between atoms: C_1  and  C_2
REMARK    2  A    between atoms: C_2  and  C_3
REMARK    3  A    between atoms: C_2  and  C_4
REMARK    4  A    between atoms: C_2  and  C_5
REMARK    5  A    between atoms: C_5  and  C_6
REMARK    6  A    between atoms: C_6  and  C_7
REMARK    7  A    between atoms: C_6  and  C_8
REMARK    8  A    between atoms: C_6  and  N_9
REMARK    9  A    between atoms: C_10  and  C_12
REMARK   10  A    between atoms: C_12  and  C_14
REMARK   11  A    between atoms: C_12  and  N_21
REMARK   12  A    between atoms: N_21  and  C_33
REMARK   13  A    between atoms: C_22  and  C_24
REMARK   14  A    between atoms: C_28  and  N_30
REMARK   15  A    between atoms: C_33  and  C_34
REMARK   16  A    between atoms: C_33  and  C_35
REMARK   17  A    between atoms: C_33  and  C_36
REMARK                            x       y       z     vdW  Elec       q    Type
REMARK                         _______ _______ _______ _____ _____    ______ ____
ROOT
ATOM      1  C   UNL     1       5.443  -1.401  -1.970  0.00  0.00    +0.193 C 
ENDROOT
BRANCH   1   2
ATOM      2  C   UNL     1       6.233  -2.685  -1.972  0.00  0.00    -0.018 A 
ATOM      3  C   UNL     1       7.124  -2.949  -0.948  0.00  0.00    +0.007 A 
ATOM      4  C   UNL     1       7.848  -4.126  -0.949  0.00  0.00    +0.020 A 
ATOM      5  C   UNL     1       7.682  -5.040  -1.974  0.00  0.00    +0.041 A 
ATOM      6  C   UNL     1       6.790  -4.775  -2.998  0.00  0.00    +0.020 A 
ATOM      7  C   UNL     1       6.062  -3.600  -2.993  0.00  0.00    +0.007 A 
ATOM      8 CL   UNL     1       8.592  -6.518  -1.975  0.00  0.00    -0.084 Cl
ENDBRANCH   1   2
BRANCH   1  10
ATOM      9  N   UNL     1       3.319  -2.593  -1.539  0.00  0.00    -0.308 N 
ATOM     10  C   UNL     1       4.164  -1.599  -1.199  0.00  0.00    +0.239 C 
ATOM     11  O   UNL     1       3.894  -0.864  -0.273  0.00  0.00    -0.273 OA
ATOM     12  H   UNL     1       3.535  -3.181  -2.280  0.00  0.00    +0.149 HD
BRANCH   9  13
ATOM     13  C   UNL     1       2.075  -2.786  -0.789  0.00  0.00    +0.030 C 
ATOM     14  C   UNL     1       1.224  -1.517  -0.878  0.00  0.00    +0.031 C 
ATOM     15  C   UNL     1       2.404  -3.077   0.677  0.00  0.00    +0.031 C 
BRANCH  13  16
ATOM     16  C   UNL     1       1.300  -3.963  -1.382  0.00  0.00    +0.031 C 
BRANCH  16  18
ATOM     17  C   UNL     1       2.451  -3.962  -3.599  0.00  0.00    +0.010 C 
ATOM     18  C   UNL     1       1.115  -3.747  -2.885  0.00  0.00    -0.036 C 
ATOM     19  C   UNL     1       0.625  -2.320  -3.139  0.00  0.00    +0.010 C 
ATOM     20  C   UNL     1       0.084  -4.743  -3.421  0.00  0.00    +0.010 C 
ENDBRANCH  16  18
ENDBRANCH  13  16
ENDBRANCH   9  13
ENDBRANCH   1  10
BRANCH   1  21
ATOM     21  N   UNL     1       6.234  -0.342  -1.340  0.00  0.00    -0.277 N 
ATOM     22  C   UNL     1       6.605  -0.455  -0.049  0.00  0.00    +0.248 C 
ATOM     23  O   UNL     1       6.279  -1.434   0.593  0.00  0.00    -0.270 OA
BRANCH  22  24
ATOM     24  C   UNL     1       7.408   0.612   0.585  0.00  0.00    +0.039 A 
ATOM     25  C   UNL     1       7.911   1.663  -0.184  0.00  0.00    +0.013 A 
ATOM     26  C   UNL     1       8.659   2.655   0.414  0.00  0.00    +0.003 A 
ATOM     27  C   UNL     1       8.912   2.611   1.774  0.00  0.00    +0.033 A 
ATOM     28  C   UNL     1       8.417   1.572   2.542  0.00  0.00    +0.127 A 
ATOM     29  C   UNL     1       7.662   0.576   1.957  0.00  0.00    +0.045 A 
BRANCH  28  30
ATOM     30  N   UNL     1       8.693   1.532   3.996  0.00  0.00    +0.056 N 
ATOM     31  O   UNL     1       9.350   2.407   4.511  0.00  0.00    -0.126 OA
ATOM     32  O   UNL     1       8.261   0.625   4.668  0.00  0.00    -0.126 OA
ENDBRANCH  28  30
ENDBRANCH  22  24
BRANCH  21  33
ATOM     33  C   UNL     1       6.623   0.841  -2.113  0.00  0.00    +0.030 C 
ATOM     34  C   UNL     1       5.978   0.779  -3.499  0.00  0.00    +0.031 C 
ATOM     35  C   UNL     1       6.151   2.102  -1.387  0.00  0.00    +0.031 C 
ATOM     36  C   UNL     1       8.145   0.877  -2.260  0.00  0.00    +0.031 C 
ENDBRANCH  21  33
ENDBRANCH   1  21
TORSDOF 9
