REMARK  Name = ZINC02731975
REMARK  4 active torsions:
REMARK  status: ('A' for Active; 'I' for Inactive)
REMARK    1  A    between atoms: C_3  and  C_6
REMARK    2  A    between atoms: C_9  and  C_21
REMARK    3  A    between atoms: C_14  and  C_16
REMARK    4  A    between atoms: N_18  and  N_19
REMARK                            x       y       z     vdW  Elec       q    Type
REMARK                         _______ _______ _______ _____ _____    ______ ____
ROOT
ATOM      1  C   UNL     1       3.761   1.845  -0.024  0.00  0.00    +0.111 C 
ATOM      2  C   UNL     1       4.319   1.782  -1.450  0.00  0.00    +0.063 C 
ATOM      3  C   UNL     1       4.224   0.349  -1.985  0.00  0.00    +0.215 C 
ATOM      4  N   UNL     1       4.794  -0.567  -0.993  0.00  0.00    -0.238 N 
ATOM      5  C   UNL     1       4.964  -0.246   0.325  0.00  0.00    +0.119 A 
ATOM      6  C   UNL     1       5.512  -1.308   0.948  0.00  0.00    +0.078 A 
ATOM      7  C   UNL     1       5.686  -2.326  -0.017  0.00  0.00    +0.150 A 
ATOM      8  N   UNL     1       5.251  -1.871  -1.179  0.00  0.00    -0.164 NA
ATOM      9  N   UNL     1       4.598   1.001   0.850  0.00  0.00    -0.322 N 
ATOM     10  H   UNL     1       4.878   1.293   1.732  0.00  0.00    +0.148 HD
ENDROOT
BRANCH   1  13
ATOM     11  C   UNL     1      -0.016   1.351   0.009  0.00  0.00    +0.008 A 
ATOM     12  C   UNL     1       1.183   2.038   0.002  0.00  0.00    +0.013 A 
ATOM     13  C   UNL     1       2.343   1.336  -0.013  0.00  0.00    +0.010 A 
ATOM     14  S   UNL     1       1.754  -0.349  -0.017  0.00  0.00    -0.100 S 
ATOM     15  C   UNL     1       0.002  -0.004   0.002  0.00  0.00    +0.045 A 
ENDBRANCH   1  13
BRANCH   7  16
ATOM     16  C   UNL     1       6.254  -3.667   0.230  0.00  0.00    +0.278 C 
ATOM     17  O   UNL     1       6.622  -3.975   1.347  0.00  0.00    -0.267 OA
ATOM     18  N   UNL     1       6.366  -4.549  -0.783  0.00  0.00    -0.248 N 
ATOM     19  H   UNL     1       6.072  -4.304  -1.674  0.00  0.00    +0.169 HD
BRANCH  18  20
ATOM     20  N   UNL     1       6.892  -5.789  -0.554  0.00  0.00    -0.254 NA
ATOM     21  H   UNL     1       6.383  -6.269   0.174  0.00  0.00    +0.140 HD
ATOM     22  H   UNL     1       6.911  -6.336  -1.402  0.00  0.00    +0.140 HD
ENDBRANCH  18  20
ENDBRANCH   7  16
BRANCH   3  23
ATOM     23  C   UNL     1       5.005   0.238  -3.296  0.00  0.00    +0.412 C 
ATOM     24  F   UNL     1       6.347   0.561  -3.068  0.00  0.00    -0.168 F 
ATOM     25  F   UNL     1       4.916  -1.071  -3.782  0.00  0.00    -0.168 F 
ATOM     26  F   UNL     1       4.465   1.122  -4.236  0.00  0.00    -0.168 F 
ENDBRANCH   3  23
TORSDOF 4
