REMARK  Name = ZINC18016935
REMARK  11 active torsions:
REMARK  status: ('A' for Active; 'I' for Inactive)
REMARK    1  A    between atoms: C_1  and  N_57
REMARK    2  A    between atoms: C_2  and  N_57
REMARK    3  A    between atoms: C_3  and  C_5
REMARK    4  A    between atoms: C_3  and  C_28
REMARK    5  A    between atoms: C_3  and  N_57
REMARK    6  A    between atoms: C_5  and  N_6
REMARK    7  A    between atoms: C_7  and  C_9
REMARK    8  A    between atoms: C_12  and  N_15
REMARK    9  A    between atoms: N_15  and  S_16
REMARK   10  A    between atoms: S_16  and  C_19
REMARK   11  A    between atoms: C_23  and  N_25
REMARK                            x       y       z     vdW  Elec       q    Type
REMARK                         _______ _______ _______ _____ _____    ______ ____
ROOT
ATOM      1  C   UNL     1      -2.836   4.352  -3.182  0.00  0.00    +0.037 A 
ATOM      2  C   UNL     1      -2.156   5.533  -2.868  0.00  0.00    +0.015 A 
ATOM      3  C   UNL     1      -1.159   5.519  -1.919  0.00  0.00    +0.025 A 
ATOM      4  C   UNL     1      -0.827   4.332  -1.273  0.00  0.00    +0.048 A 
ATOM      5  C   UNL     1      -1.498   3.153  -1.589  0.00  0.00    +0.025 A 
ATOM      6  C   UNL     1      -2.500   3.161  -2.532  0.00  0.00    +0.015 A 
ENDROOT
BRANCH   1   8
ATOM      7  N   UNL     1      -4.559   3.225  -4.501  0.00  0.00    -0.313 N 
ATOM      8  C   UNL     1      -3.905   4.364  -4.199  0.00  0.00    +0.244 C 
ATOM      9  O   UNL     1      -4.197   5.400  -4.763  0.00  0.00    -0.270 OA
ATOM     10  H   UNL     1      -4.327   2.398  -4.051  0.00  0.00    +0.149 HD
BRANCH   7  11
ATOM     11  C   UNL     1      -5.621   3.236  -5.510  0.00  0.00    +0.094 C 
BRANCH  11  12
ATOM     12  C   UNL     1      -6.118   1.808  -5.744  0.00  0.00    -0.021 C 
BRANCH  12  13
ATOM     13  C   UNL     1      -7.316   1.835  -6.658  0.00  0.00    -0.057 A 
ATOM     14  C   UNL     1      -7.339   1.043  -7.791  0.00  0.00    +0.002 A 
ATOM     15  C   UNL     1      -8.437   1.068  -8.630  0.00  0.00    +0.003 A 
ATOM     16  C   UNL     1      -9.513   1.884  -8.337  0.00  0.00    +0.038 A 
ATOM     17  C   UNL     1      -9.491   2.678  -7.203  0.00  0.00    +0.124 A 
ATOM     18  C   UNL     1      -8.393   2.648  -6.360  0.00  0.00    +0.040 A 
ATOM     19  F   UNL     1     -10.543   3.476  -6.915  0.00  0.00    -0.205 F 
ENDBRANCH  12  13
BRANCH  12  22
ATOM     20  C   UNL     1      -7.415   2.078  -3.717  0.00  0.00    -0.096 C 
ATOM     21  C   UNL     1      -7.080  -0.129  -4.655  0.00  0.00    -0.096 C 
ATOM     22  N   UNL     1      -6.472   1.201  -4.443  0.00  0.00    +0.382 N 
ATOM     23  H   UNL     1      -5.619   1.092  -3.883  0.00  0.00    -0.082 HD
ENDBRANCH  12  22
ENDBRANCH  11  12
ENDBRANCH   7  11
ENDBRANCH   1   8
BRANCH   4  24
ATOM     24  N   UNL     1       0.180   4.321  -0.315  0.00  0.00    -0.216 N 
ATOM     25  H   UNL     1       0.850   3.619  -0.323  0.00  0.00    +0.174 HD
BRANCH  24  26
ATOM     26  S   UNL     1       0.238   5.507   0.840  0.00  0.00    +0.072 S 
ATOM     27  O   UNL     1       0.102   6.745   0.157  0.00  0.00    -0.150 OA
ATOM     28  O   UNL     1       1.353   5.212   1.669  0.00  0.00    -0.150 OA
BRANCH  26  29
ATOM     29  C   UNL     1      -1.199   5.325   1.844  0.00  0.00    +0.111 A 
ATOM     30  C   UNL     1      -1.196   4.433   2.900  0.00  0.00    +0.029 A 
ATOM     31  C   UNL     1      -2.323   4.290   3.687  0.00  0.00    +0.004 A 
ATOM     32  C   UNL     1      -3.453   5.040   3.419  0.00  0.00    +0.033 A 
ATOM     33  C   UNL     1      -3.457   5.929   2.360  0.00  0.00    +0.128 A 
ATOM     34  C   UNL     1      -2.328   6.075   1.576  0.00  0.00    +0.061 A 
BRANCH  33  35
ATOM     35  N   UNL     1      -4.669   6.728   2.070  0.00  0.00    +0.056 N 
ATOM     36  O   UNL     1      -5.662   6.602   2.764  0.00  0.00    -0.126 OA
ATOM     37  O   UNL     1      -4.673   7.511   1.137  0.00  0.00    -0.126 OA
ENDBRANCH  33  35
ENDBRANCH  26  29
ENDBRANCH  24  26
ENDBRANCH   4  24
TORSDOF 9
