REMARK  Name = ZINC49151632
REMARK  7 active torsions:
REMARK  status: ('A' for Active; 'I' for Inactive)
REMARK    1  A    between atoms: C_1  and  C_2
REMARK    2  A    between atoms: C_2  and  C_4
REMARK    3  A    between atoms: C_2  and  N_10
REMARK    4  A    between atoms: C_4  and  C_5
REMARK    5  A    between atoms: N_10  and  S_11
REMARK    6  A    between atoms: S_11  and  C_14
REMARK    7  A    between atoms: C_17  and  N_21
REMARK                            x       y       z     vdW  Elec       q    Type
REMARK                         _______ _______ _______ _____ _____    ______ ____
ROOT
ATOM      1  S   UNL     1      -2.050  -1.039   1.429  0.00  0.00    +0.060 S 
ATOM      2  O   UNL     1      -3.326  -1.625   1.213  0.00  0.00    -0.153 OA
ATOM      3  O   UNL     1      -0.969  -1.758   2.008  0.00  0.00    -0.153 OA
ENDROOT
BRANCH   1   4
ATOM      4  C   UNL     1      -2.311   0.379   2.441  0.00  0.00    +0.119 A 
ATOM      5  C   UNL     1      -1.543   0.568   3.575  0.00  0.00    +0.031 A 
ATOM      6  C   UNL     1      -1.746   1.678   4.372  0.00  0.00    +0.025 A 
ATOM      7  C   UNL     1      -2.723   2.606   4.032  0.00  0.00    +0.026 A 
ATOM      8  C   UNL     1      -3.492   2.414   2.892  0.00  0.00    +0.040 A 
ATOM      9  C   UNL     1      -3.281   1.304   2.097  0.00  0.00    +0.046 A 
ATOM     10 BR   UNL     1      -4.323   1.045   0.540  0.00  0.00    -0.048 Br
BRANCH   7  11
ATOM     11  N   UNL     1      -2.930   3.729   4.836  0.00  0.00    -0.358 N 
ATOM     12  H   UNL     1      -2.392   3.862   5.632  0.00  0.00    +0.142 HD
ATOM     13  H   UNL     1      -3.612   4.377   4.598  0.00  0.00    +0.142 HD
ENDBRANCH   7  11
ENDBRANCH   1   4
BRANCH   1  14
ATOM     14  N   UNL     1      -1.522  -0.498  -0.045  0.00  0.00    -0.187 NA
ATOM     15  H   UNL     1      -2.064  -0.641  -0.837  0.00  0.00    +0.148 HD
BRANCH  14  17
ATOM     16  C   UNL     1      -0.478   1.653  -0.561  0.00  0.00    +0.026 C 
ATOM     17  C   UNL     1      -0.237   0.198  -0.153  0.00  0.00    +0.078 C 
BRANCH  17  18
ATOM     18  C   UNL     1       0.629  -0.492  -1.209  0.00  0.00    +0.055 C 
BRANCH  18  19
ATOM     19  C   UNL     1       0.968  -1.886  -0.748  0.00  0.00    -0.039 A 
ATOM     20  C   UNL     1       2.104  -2.119   0.005  0.00  0.00    +0.011 A 
ATOM     21  C   UNL     1       2.380  -3.385   0.404  0.00  0.00    +0.045 A 
ATOM     22  S   UNL     1       1.011  -4.298  -0.290  0.00  0.00    -0.105 S 
ATOM     23  C   UNL     1       0.161  -2.929  -1.060  0.00  0.00    +0.048 A 
ENDBRANCH  18  19
ENDBRANCH  17  18
ENDBRANCH  14  17
ENDBRANCH   1  14
TORSDOF 6
