REMARK  Name = ZINC67181059
REMARK  9 active torsions:
REMARK  status: ('A' for Active; 'I' for Inactive)
REMARK    1  A    between atoms: C_1  and  C_2
REMARK    2  A    between atoms: C_2  and  C_3
REMARK    3  A    between atoms: C_3  and  C_5
REMARK    4  A    between atoms: C_3  and  C_6
REMARK    5  A    between atoms: C_6  and  C_8
REMARK    6  A    between atoms: C_6  and  N_23
REMARK    7  A    between atoms: N_10  and  C_11
REMARK    8  A    between atoms: C_15  and  C_17
REMARK    9  A    between atoms: C_18  and  C_22
REMARK                            x       y       z     vdW  Elec       q    Type
REMARK                         _______ _______ _______ _____ _____    ______ ____
ROOT
ATOM      1  C   UNL     1       1.527  -2.175  -2.570  0.00  0.00    +0.238 C 
ATOM      2  O   UNL     1       0.835  -2.442  -3.529  0.00  0.00    -0.273 OA
ATOM      3  N   UNL     1       2.852  -2.422  -2.605  0.00  0.00    -0.284 N 
ATOM      4  H   UNL     1       3.417  -2.145  -1.866  0.00  0.00    +0.155 HD
ENDROOT
BRANCH   3   5
ATOM      5  C   UNL     1       3.413  -3.078  -3.706  0.00  0.00    +0.034 A 
ATOM      6  C   UNL     1       4.467  -3.966  -3.524  0.00  0.00    +0.023 A 
ATOM      7  C   UNL     1       5.024  -4.616  -4.609  0.00  0.00    +0.002 A 
ATOM      8  C   UNL     1       4.538  -4.388  -5.880  0.00  0.00    +0.009 A 
ATOM      9  C   UNL     1       3.480  -3.499  -6.074  0.00  0.00    -0.009 A 
ATOM     10  C   UNL     1       2.913  -2.847  -4.978  0.00  0.00    +0.032 A 
BRANCH   9  11
ATOM     11  C   UNL     1       2.957  -3.253  -7.435  0.00  0.00    +0.022 A 
ATOM     12  C   UNL     1       3.645  -2.995  -8.590  0.00  0.00    -0.036 A 
ATOM     13  C   UNL     1       2.935  -2.796  -9.754  0.00  0.00    +0.011 A 
ATOM     14  C   UNL     1       1.579  -2.861  -9.720  0.00  0.00    +0.046 A 
ATOM     15  S   UNL     1       1.264  -3.222  -8.001  0.00  0.00    -0.096 S 
ATOM     16  C   UNL     1       5.151  -2.930  -8.588  0.00  0.00    +0.045 C 
ENDBRANCH   9  11
ENDBRANCH   3   5
BRANCH   1  17
ATOM     17  C   UNL     1       0.906  -1.567  -1.339  0.00  0.00    +0.163 C 
BRANCH  17  18
ATOM     18  N   UNL     1      -0.535  -1.830  -1.338  0.00  0.00    -0.288 N 
ATOM     19  C   UNL     1      -1.303  -1.376  -2.348  0.00  0.00    +0.298 C 
ATOM     20  O   UNL     1      -0.800  -0.749  -3.260  0.00  0.00    -0.253 OA
ATOM     21  N   UNL     1      -2.629  -1.618  -2.348  0.00  0.00    -0.313 N 
ATOM     22  H   UNL     1      -0.936  -2.331  -0.611  0.00  0.00    +0.151 HD
ATOM     23  H   UNL     1      -3.030  -2.119  -1.620  0.00  0.00    +0.146 HD
ATOM     24  H   UNL     1      -3.182  -1.292  -3.075  0.00  0.00    +0.146 HD
ENDBRANCH  17  18
BRANCH  17  25
ATOM     25  C   UNL     1       1.149  -0.057  -1.338  0.00  0.00    +0.015 C 
ATOM     26  C   UNL     1       2.654   0.218  -1.338  0.00  0.00    +0.010 C 
BRANCH  25  28
ATOM     27  C   UNL     1       0.652   2.083  -0.148  0.00  0.00    +0.004 C 
ATOM     28  C   UNL     1       0.519   0.560  -0.088  0.00  0.00    +0.002 C 
ENDBRANCH  25  28
ENDBRANCH  17  25
ENDBRANCH   1  17
TORSDOF 6
