REMARK  Name = ZINC58970784
REMARK  10 active torsions:
REMARK  status: ('A' for Active; 'I' for Inactive)
REMARK    1  A    between atoms: C_1  and  C_2
REMARK    2  A    between atoms: C_7  and  C_8
REMARK    3  A    between atoms: C_8  and  N_9
REMARK    4  A    between atoms: C_15  and  C_17
REMARK    5  A    between atoms: C_17  and  C_18
REMARK    6  A    between atoms: C_18  and  C_19
REMARK    7  A    between atoms: C_19  and  S_20
REMARK    8  A    between atoms: S_20  and  C_21
REMARK    9  A    between atoms: C_23  and  C_31
REMARK   10  A    between atoms: C_25  and  C_27
REMARK                            x       y       z     vdW  Elec       q    Type
REMARK                         _______ _______ _______ _____ _____    ______ ____
ROOT
ATOM      1  C   UNL     1      -7.993   2.392   3.743  0.00  0.00    +0.020 C 
ENDROOT
BRANCH   1   2
ATOM      2  C   UNL     1      -6.921   2.497   2.656  0.00  0.00    +0.097 C 
BRANCH   2   9
ATOM      3  N   UNL     1      -1.352   0.373   2.882  0.00  0.00    -0.265 N 
ATOM      4  C   UNL     1      -1.949   0.059   4.051  0.00  0.00    +0.110 A 
ATOM      5  C   UNL     1      -3.214   0.536   4.011  0.00  0.00    +0.065 A 
ATOM      6  C   UNL     1      -3.398   1.167   2.770  0.00  0.00    +0.147 A 
ATOM      7  N   UNL     1      -2.276   1.072   2.096  0.00  0.00    -0.156 NA
ATOM      8  N   UNL     1      -4.573   1.792   2.331  0.00  0.00    -0.269 N 
ATOM      9  C   UNL     1      -5.658   1.824   3.128  0.00  0.00    +0.218 C 
ATOM     10  O   UNL     1      -5.619   1.311   4.227  0.00  0.00    -0.275 OA
ATOM     11  H   UNL     1      -4.604   2.203   1.452  0.00  0.00    +0.156 HD
BRANCH   3  12
ATOM     12  C   UNL     1       0.025   0.045   2.504  0.00  0.00    +0.178 C 
BRANCH  12  19
ATOM     13  C   UNL     1      -0.018   1.503   0.010  0.00  0.00    +0.044 C 
ATOM     14  C   UNL     1       0.002  -0.004   0.002  0.00  0.00    -0.046 A 
ATOM     15  C   UNL     1       0.006  -0.689  -1.199  0.00  0.00    +0.004 A 
ATOM     16  C   UNL     1       0.025  -2.071  -1.207  0.00  0.00    +0.000 A 
ATOM     17  C   UNL     1       0.040  -2.768  -0.013  0.00  0.00    +0.000 A 
ATOM     18  C   UNL     1       0.037  -2.084   1.188  0.00  0.00    +0.006 A 
ATOM     19  C   UNL     1       0.023  -0.702   1.195  0.00  0.00    -0.023 A 
ENDBRANCH  12  19
ENDBRANCH   3  12
ENDBRANCH   2   9
ENDBRANCH   1   2
BRANCH   1  20
ATOM     20  C   UNL     1      -9.275   3.075   3.263  0.00  0.00    +0.078 C 
BRANCH  20  21
ATOM     21  S   UNL     1     -10.545   2.950   4.552  0.00  0.00    -0.086 S 
BRANCH  21  22
ATOM     22  C   UNL     1     -11.940   3.772   3.857  0.00  0.00    +0.189 A 
ATOM     23  N   UNL     1     -13.056   3.861   4.565  0.00  0.00    -0.222 NA
ATOM     24  C   UNL     1     -14.126   4.476   4.068  0.00  0.00    +0.076 A 
ATOM     25  C   UNL     1     -14.057   5.026   2.786  0.00  0.00    +0.060 A 
ATOM     26  C   UNL     1     -12.872   4.910   2.081  0.00  0.00    +0.148 A 
ATOM     27  N   UNL     1     -11.845   4.290   2.640  0.00  0.00    -0.218 NA
BRANCH  24  28
ATOM     28  C   UNL     1     -15.375   4.574   4.863  0.00  0.00    +0.000 A 
ATOM     29  C   UNL     1     -16.493   5.214   4.333  0.00  0.00    +0.010 A 
ATOM     30  C   UNL     1     -17.652   5.302   5.077  0.00  0.00    +0.001 A 
ATOM     31  C   UNL     1     -17.705   4.757   6.347  0.00  0.00    +0.000 A 
ATOM     32  C   UNL     1     -16.598   4.121   6.879  0.00  0.00    +0.001 A 
ATOM     33  C   UNL     1     -15.435   4.022   6.141  0.00  0.00    +0.010 A 
ENDBRANCH  24  28
BRANCH  26  34
ATOM     34  C   UNL     1     -12.750   5.488   0.695  0.00  0.00    +0.434 C 
ATOM     35  F   UNL     1     -12.295   6.808   0.779  0.00  0.00    -0.164 F 
ATOM     36  F   UNL     1     -11.841   4.728  -0.049  0.00  0.00    -0.164 F 
ATOM     37  F   UNL     1     -14.000   5.464   0.068  0.00  0.00    -0.164 F 
ENDBRANCH  26  34
ENDBRANCH  21  22
ENDBRANCH  20  21
ENDBRANCH   1  20
TORSDOF 9
