REMARK  Name = ZINC00748458
REMARK  10 active torsions:
REMARK  status: ('A' for Active; 'I' for Inactive)
REMARK    1  A    between atoms: C_1  and  O_2
REMARK    2  A    between atoms: O_2  and  C_3
REMARK    3  A    between atoms: C_7  and  C_9
REMARK    4  A    between atoms: C_9  and  S_10
REMARK    5  A    between atoms: S_10  and  C_11
REMARK    6  A    between atoms: C_14  and  C_25
REMARK    7  A    between atoms: N_15  and  C_16
REMARK    8  A    between atoms: C_19  and  N_22
REMARK    9  A    between atoms: C_25  and  N_26
REMARK   10  A    between atoms: C_27  and  C_29
REMARK                            x       y       z     vdW  Elec       q    Type
REMARK                         _______ _______ _______ _____ _____    ______ ____
ROOT
ATOM      1  C   UNL     1      -4.534   6.198   5.031  0.00  0.00    +0.196 A 
ATOM      2  N   UNL     1      -3.791   6.426   6.090  0.00  0.00    -0.122 NA
ATOM      3  N   UNL     1      -4.515   6.906   7.037  0.00  0.00    -0.132 NA
ATOM      4  C   UNL     1      -5.755   7.004   6.649  0.00  0.00    +0.156 A 
ATOM      5  N   UNL     1      -5.814   6.556   5.356  0.00  0.00    -0.273 N 
ENDROOT
BRANCH   5   6
ATOM      6  C   UNL     1      -6.949   6.480   4.536  0.00  0.00    +0.050 A 
ATOM      7  C   UNL     1      -7.609   7.640   4.152  0.00  0.00    +0.028 A 
ATOM      8  C   UNL     1      -8.723   7.562   3.340  0.00  0.00    +0.035 A 
ATOM      9  C   UNL     1      -9.189   6.330   2.918  0.00  0.00    +0.126 A 
ATOM     10  C   UNL     1      -8.537   5.173   3.304  0.00  0.00    +0.035 A 
ATOM     11  C   UNL     1      -7.419   5.245   4.111  0.00  0.00    +0.028 A 
BRANCH   9  12
ATOM     12  N   UNL     1     -10.387   6.250   2.053  0.00  0.00    +0.056 N 
ATOM     13  O   UNL     1     -10.798   5.166   1.682  0.00  0.00    -0.126 OA
ATOM     14  O   UNL     1     -10.962   7.269   1.713  0.00  0.00    -0.126 OA
ENDBRANCH   9  12
ENDBRANCH   5   6
BRANCH   1  15
ATOM     15  S   UNL     1      -3.987   5.548   3.488  0.00  0.00    -0.081 S 
BRANCH  15  16
ATOM     16  C   UNL     1      -2.224   5.338   3.842  0.00  0.00    +0.112 C 
BRANCH  16  21
ATOM     17  C   UNL     1      -0.787   2.892   1.346  0.00  0.00    +0.120 A 
ATOM     18  C   UNL     1      -0.258   3.751   0.393  0.00  0.00    +0.045 A 
ATOM     19  C   UNL     1      -0.367   5.117   0.561  0.00  0.00    +0.004 A 
ATOM     20  C   UNL     1      -1.003   5.630   1.677  0.00  0.00    +0.005 A 
ATOM     21  C   UNL     1      -1.532   4.776   2.627  0.00  0.00    -0.034 A 
ATOM     22  C   UNL     1      -1.429   3.408   2.462  0.00  0.00    +0.050 A 
BRANCH  17  24
ATOM     23  C   UNL     1      -0.013   1.086   0.008  0.00  0.00    +0.277 C 
ATOM     24  O   UNL     1      -0.682   1.547   1.184  0.00  0.00    -0.495 OA
ENDBRANCH  17  24
ENDBRANCH  16  21
ENDBRANCH  15  16
ENDBRANCH   1  15
BRANCH   4  25
ATOM     25  C   UNL     1      -6.911   7.514   7.471  0.00  0.00    +0.181 C 
BRANCH  25  26
ATOM     26  N   UNL     1      -7.528   6.398   8.191  0.00  0.00    -0.304 N 
ATOM     27  C   UNL     1      -8.588   6.619   8.995  0.00  0.00    +0.247 C 
ATOM     28  O   UNL     1      -9.031   7.744   9.122  0.00  0.00    -0.270 OA
ATOM     29  H   UNL     1      -7.128   5.380   8.077  0.00  0.00    +0.149 HD
BRANCH  27  30
ATOM     30  C   UNL     1      -9.210   5.494   9.721  0.00  0.00    +0.072 A 
ATOM     31  C   UNL     1      -8.708   4.199   9.574  0.00  0.00    +0.016 A 
ATOM     32  C   UNL     1      -9.290   3.154  10.259  0.00  0.00    +0.001 A 
ATOM     33  C   UNL     1     -10.378   3.382  11.084  0.00  0.00    +0.003 A 
ATOM     34  C   UNL     1     -10.886   4.659  11.232  0.00  0.00    +0.039 A 
ATOM     35  C   UNL     1     -10.310   5.718  10.556  0.00  0.00    +0.135 A 
ATOM     36  F   UNL     1     -10.807   6.966  10.700  0.00  0.00    -0.205 F 
ENDBRANCH  27  30
ENDBRANCH  25  26
ENDBRANCH   4  25
TORSDOF 9
