REMARK  Name = ZINC39577237
REMARK  11 active torsions:
REMARK  status: ('A' for Active; 'I' for Inactive)
REMARK    1  A    between atoms: C_1  and  C_2
REMARK    2  A    between atoms: C_5  and  C_8
REMARK    3  A    between atoms: C_10  and  C_13
REMARK    4  A    between atoms: C_13  and  O_14
REMARK    5  A    between atoms: O_14  and  C_15
REMARK    6  A    between atoms: C_15  and  C_17
REMARK    7  A    between atoms: C_17  and  C_19
REMARK    8  A    between atoms: C_17  and  N_26
REMARK    9  A    between atoms: C_19  and  C_20
REMARK   10  A    between atoms: N_26  and  S_27
REMARK   11  A    between atoms: S_27  and  C_30
REMARK                            x       y       z     vdW  Elec       q    Type
REMARK                         _______ _______ _______ _____ _____    ______ ____
ROOT
ATOM      1  C   UNL     1      -3.005  -9.831   2.940  0.00  0.00    +0.189 C 
ENDROOT
BRANCH   1   2
ATOM      2  C   UNL     1      -1.577  -9.383   2.768  0.00  0.00    +0.327 C 
ATOM      3  O   UNL     1      -0.688  -9.963   3.345  0.00  0.00    -0.249 OA
BRANCH   2   4
ATOM      4  O   UNL     1      -1.292  -8.339   1.974  0.00  0.00    -0.454 OA
BRANCH   4   5
ATOM      5  C   UNL     1       0.083  -7.968   1.857  0.00  0.00    +0.330 C 
BRANCH   5   8
ATOM      6  C   UNL     1       0.309  -4.743   0.207  0.00  0.00    +0.202 A 
ATOM      7  N   UNL     1       0.164  -5.533   1.286  0.00  0.00    -0.188 NA
ATOM      8  C   UNL     1       0.207  -6.785   0.931  0.00  0.00    +0.265 A 
ATOM      9  O   UNL     1       0.383  -6.845  -0.395  0.00  0.00    -0.334 OA
ATOM     10  N   UNL     1       0.442  -5.502  -0.852  0.00  0.00    -0.056 NA
BRANCH   6  15
ATOM     11  C   UNL     1       0.316   1.016   0.237  0.00  0.00    +0.044 C 
ATOM     12  C   UNL     1       0.314  -0.490   0.230  0.00  0.00    -0.050 A 
ATOM     13  C   UNL     1       0.465  -1.174  -0.964  0.00  0.00    +0.004 A 
ATOM     14  C   UNL     1       0.464  -2.554  -0.977  0.00  0.00    +0.012 A 
ATOM     15  C   UNL     1       0.311  -3.259   0.215  0.00  0.00    +0.022 A 
ATOM     16  C   UNL     1       0.159  -2.566   1.414  0.00  0.00    +0.012 A 
ATOM     17  C   UNL     1       0.167  -1.186   1.417  0.00  0.00    +0.004 A 
ENDBRANCH   6  15
ENDBRANCH   5   8
ENDBRANCH   4   5
ENDBRANCH   2   4
ENDBRANCH   1   2
BRANCH   1  18
ATOM     18  N   UNL     1      -3.050 -10.979   3.849  0.00  0.00    -0.176 NA
ATOM     19  H   UNL     1      -2.925 -11.877   3.503  0.00  0.00    +0.149 HD
BRANCH  18  20
ATOM     20  S   UNL     1      -3.315 -10.745   5.467  0.00  0.00    +0.062 S 
ATOM     21  O   UNL     1      -3.291 -12.030   6.072  0.00  0.00    -0.153 OA
ATOM     22  O   UNL     1      -2.447  -9.696   5.872  0.00  0.00    -0.153 OA
BRANCH  20  23
ATOM     23  C   UNL     1      -4.958 -10.136   5.643  0.00  0.00    +0.140 A 
ATOM     24  C   UNL     1      -5.942 -10.945   6.180  0.00  0.00    +0.031 A 
ATOM     25  C   UNL     1      -7.232 -10.467   6.319  0.00  0.00    +0.002 A 
ATOM     26  C   UNL     1      -7.539  -9.180   5.921  0.00  0.00    +0.003 A 
ATOM     27  C   UNL     1      -6.558  -8.368   5.385  0.00  0.00    +0.040 A 
ATOM     28  C   UNL     1      -5.264  -8.844   5.250  0.00  0.00    +0.150 A 
ATOM     29  F   UNL     1      -4.302  -8.050   4.730  0.00  0.00    -0.203 F 
ENDBRANCH  20  23
ENDBRANCH  18  20
ENDBRANCH   1  18
BRANCH   1  30
ATOM     30  C   UNL     1      -3.581 -10.233   1.581  0.00  0.00    +0.067 C 
BRANCH  30  31
ATOM     31  C   UNL     1      -5.046 -10.553   1.731  0.00  0.00    -0.045 A 
ATOM     32  C   UNL     1      -5.441 -11.822   2.112  0.00  0.00    +0.004 A 
ATOM     33  C   UNL     1      -6.785 -12.115   2.249  0.00  0.00    +0.000 A 
ATOM     34  C   UNL     1      -7.734 -11.139   2.006  0.00  0.00    +0.000 A 
ATOM     35  C   UNL     1      -7.339  -9.870   1.625  0.00  0.00    +0.000 A 
ATOM     36  C   UNL     1      -5.995  -9.576   1.492  0.00  0.00    +0.004 A 
ENDBRANCH  30  31
ENDBRANCH   1  30
TORSDOF 10
