REMARK  Name = ZINC32604479
REMARK  5 active torsions:
REMARK  status: ('A' for Active; 'I' for Inactive)
REMARK    1  A    between atoms: C_1  and  C_2
REMARK    2  A    between atoms: C_13  and  S_18
REMARK    3  A    between atoms: C_15  and  N_17
REMARK    4  A    between atoms: S_18  and  C_19
REMARK    5  A    between atoms: C_19  and  C_20
REMARK                            x       y       z     vdW  Elec       q    Type
REMARK                         _______ _______ _______ _____ _____    ______ ____
ROOT
ATOM      1  C   UNL     1      -9.035   7.189  -2.821  0.00  0.00    +0.012 C 
ATOM      2  C   UNL     1      -8.954   7.948  -1.495  0.00  0.00    +0.017 C 
ATOM      3  C   UNL     1     -10.329   7.958  -0.825  0.00  0.00    +0.008 C 
ATOM      4  C   UNL     1     -10.222   8.556   0.580  0.00  0.00    +0.006 C 
ATOM      5  C   UNL     1      -9.468   7.566   1.481  0.00  0.00    +0.043 C 
ATOM      6  C   UNL     1      -8.244   7.109   0.756  0.00  0.00    -0.004 A 
ATOM      7  C   UNL     1      -7.960   7.253  -0.567  0.00  0.00    -0.029 A 
ATOM      8  C   UNL     1      -6.740   6.742  -1.022  0.00  0.00    -0.009 A 
ATOM      9  C   UNL     1      -5.920   6.125  -0.100  0.00  0.00    +0.107 A 
ATOM     10  S   UNL     1      -6.831   6.257   1.411  0.00  0.00    -0.074 S 
ATOM     11  N   UNL     1      -4.725   5.560  -0.371  0.00  0.00    -0.219 NA
ATOM     12  C   UNL     1      -4.391   5.407  -1.642  0.00  0.00    +0.154 C 
ATOM     13  N   UNL     1      -5.276   5.733  -2.643  0.00  0.00    -0.334 N 
ATOM     14  C   UNL     1      -6.250   6.822  -2.467  0.00  0.00    +0.045 C 
ATOM     15  H   UNL     1      -5.249   5.167  -3.585  0.00  0.00    +0.146 HD
ENDROOT
BRANCH  14  16
ATOM     16  N   UNL     1      -5.603   8.119  -2.708  0.00  0.00    +0.393 N 
ATOM     17  H   UNL     1      -5.254   8.166  -3.750  0.00  0.00    -0.087 HD
ATOM     18  H   UNL     1      -4.745   8.232  -2.028  0.00  0.00    -0.087 HD
ATOM     19  H   UNL     1      -6.325   8.928  -2.526  0.00  0.00    -0.087 HD
ENDBRANCH  14  16
BRANCH  12  20
ATOM     20  S   UNL     1      -2.800   4.772  -2.057  0.00  0.00    -0.086 S 
BRANCH  20  21
ATOM     21  C   UNL     1      -2.114   4.538  -0.399  0.00  0.00    +0.112 C 
BRANCH  21  22
ATOM     22  C   UNL     1      -0.716   3.985  -0.507  0.00  0.00    -0.029 A 
ATOM     23  C   UNL     1      -0.513   2.640  -0.539  0.00  0.00    +0.005 A 
ATOM     24  C   UNL     1       0.773   2.111  -0.632  0.00  0.00    +0.001 A 
ATOM     25  C   UNL     1       1.862   2.924  -0.707  0.00  0.00    +0.008 A 
ATOM     26  C   UNL     1       1.691   4.318  -0.684  0.00  0.00    -0.018 A 
ATOM     27  C   UNL     1       0.384   4.856  -0.583  0.00  0.00    -0.014 A 
ATOM     28  C   UNL     1       0.213   6.251  -0.559  0.00  0.00    +0.009 A 
ATOM     29  C   UNL     1       1.302   7.064  -0.635  0.00  0.00    +0.001 A 
ATOM     30  C   UNL     1       2.587   6.535  -0.735  0.00  0.00    +0.001 A 
ATOM     31  C   UNL     1       2.791   5.190  -0.760  0.00  0.00    +0.008 A 
ENDBRANCH  21  22
ENDBRANCH  20  21
ENDBRANCH  12  20
TORSDOF 4
