REMARK  Name = ZINC20806295
REMARK  8 active torsions:
REMARK  status: ('A' for Active; 'I' for Inactive)
REMARK    1  A    between atoms: C_3  and  C_8
REMARK    2  A    between atoms: C_5  and  O_7
REMARK    3  A    between atoms: N_9  and  N_10
REMARK    4  A    between atoms: C_14  and  S_17
REMARK    5  A    between atoms: N_15  and  N_16
REMARK    6  A    between atoms: S_17  and  C_18
REMARK    7  A    between atoms: C_18  and  C_19
REMARK    8  A    between atoms: N_21  and  C_22
REMARK                            x       y       z     vdW  Elec       q    Type
REMARK                         _______ _______ _______ _____ _____    ______ ____
ROOT
ATOM      1  N   UNL     1      -8.650  -0.705  -0.200  0.00  0.00    -0.204 N 
ATOM      2  C   UNL     1      -7.273  -0.542  -0.148  0.00  0.00    +0.254 A 
ATOM      3  N   UNL     1      -6.393  -1.488   0.079  0.00  0.00    -0.109 NA
ATOM      4  N   UNL     1      -5.118  -0.909   0.043  0.00  0.00    -0.119 NA
ATOM      5  C   UNL     1      -5.260   0.372  -0.196  0.00  0.00    +0.210 A 
ATOM      6  N   UNL     1      -6.595   0.632  -0.324  0.00  0.00    -0.211 N 
ATOM      7  H   UNL     1      -9.299   0.161  -0.398  0.00  0.00    +0.177 HD
ENDROOT
BRANCH   6   8
ATOM      8  N   UNL     1      -7.155   1.851  -0.581  0.00  0.00    -0.294 N 
ATOM      9  H   UNL     1      -6.513   2.736  -0.705  0.00  0.00    +0.163 HD
ATOM     10  H   UNL     1      -8.248   1.948  -0.663  0.00  0.00    +0.163 HD
ENDBRANCH   6   8
BRANCH   1  12
ATOM     11  C   UNL     1     -10.502  -2.124  -0.049  0.00  0.00    +0.138 C 
ATOM     12  N   UNL     1      -9.214  -1.972  -0.000  0.00  0.00    -0.188 NA
BRANCH  11  15
ATOM     13  C   UNL     1     -10.833  -5.805   0.608  0.00  0.00    +0.004 A 
ATOM     14  C   UNL     1     -10.274  -4.559   0.412  0.00  0.00    +0.010 A 
ATOM     15  C   UNL     1     -11.095  -3.458   0.161  0.00  0.00    -0.002 A 
ATOM     16  C   UNL     1     -12.482  -3.623   0.115  0.00  0.00    +0.054 A 
ATOM     17  C   UNL     1     -13.030  -4.879   0.309  0.00  0.00    +0.117 A 
ATOM     18  C   UNL     1     -12.205  -5.968   0.558  0.00  0.00    +0.045 A 
BRANCH  17  19
ATOM     19  O   UNL     1     -14.378  -5.046   0.262  0.00  0.00    -0.507 OA
ATOM     20  H   UNL     1     -14.815  -6.043   0.416  0.00  0.00    +0.292 HD
ENDBRANCH  17  19
ENDBRANCH  11  15
ENDBRANCH   1  12
BRANCH   5  21
ATOM     21  S   UNL     1      -3.958   1.551  -0.336  0.00  0.00    -0.075 S 
BRANCH  21  22
ATOM     22  C   UNL     1      -2.453   0.576  -0.066  0.00  0.00    +0.173 C 
BRANCH  22  23
ATOM     23  C   UNL     1      -1.247   1.476  -0.160  0.00  0.00    +0.227 C 
ATOM     24  O   UNL     1      -1.390   2.659  -0.387  0.00  0.00    -0.275 OA
ATOM     25  N   UNL     1      -0.011   0.966   0.007  0.00  0.00    -0.285 N 
ATOM     26  H   UNL     1       0.125  -0.119   0.129  0.00  0.00    +0.155 HD
BRANCH  25  27
ATOM     27  C   UNL     1       1.100   1.817   0.026  0.00  0.00    +0.036 A 
ATOM     28  C   UNL     1       2.318   1.381  -0.478  0.00  0.00    +0.023 A 
ATOM     29  C   UNL     1       3.412   2.224  -0.464  0.00  0.00    +0.005 A 
ATOM     30  C   UNL     1       3.299   3.497   0.062  0.00  0.00    +0.038 A 
ATOM     31  C   UNL     1       2.088   3.934   0.572  0.00  0.00    +0.125 A 
ATOM     32  C   UNL     1       0.987   3.095   0.555  0.00  0.00    +0.061 A 
ATOM     33  F   UNL     1       1.980   5.178   1.086  0.00  0.00    -0.205 F 
ENDBRANCH  25  27
ENDBRANCH  22  23
ENDBRANCH  21  22
ENDBRANCH   5  21
TORSDOF 8
