REMARK  Name = ZINC20333468
REMARK  11 active torsions:
REMARK  status: ('A' for Active; 'I' for Inactive)
REMARK    1  A    between atoms: C_1  and  C_2
REMARK    2  A    between atoms: C_2  and  N_3
REMARK    3  A    between atoms: C_4  and  C_22
REMARK    4  A    between atoms: C_7  and  S_8
REMARK    5  A    between atoms: S_8  and  C_9
REMARK    6  A    between atoms: C_9  and  C_10
REMARK    7  A    between atoms: N_12  and  C_13
REMARK    8  A    between atoms: C_18  and  O_19
REMARK    9  A    between atoms: O_19  and  C_20
REMARK   10  A    between atoms: C_28  and  C_30
REMARK   11  A    between atoms: C_34  and  C_36
REMARK                            x       y       z     vdW  Elec       q    Type
REMARK                         _______ _______ _______ _____ _____    ______ ____
ROOT
ATOM      1  N   UNL     1      -3.316  -5.686   0.811  0.00  0.00    -0.305 N 
ATOM      2  C   UNL     1      -2.812  -6.957   0.831  0.00  0.00    +0.155 A 
ATOM      3  N   UNL     1      -1.525  -6.861   1.013  0.00  0.00    -0.132 NA
ATOM      4  N   UNL     1      -1.183  -5.625   1.103  0.00  0.00    -0.122 NA
ATOM      5  C   UNL     1      -2.244  -4.860   0.991  0.00  0.00    +0.192 A 
ENDROOT
BRANCH   2   6
ATOM      6  C   UNL     1      -3.598  -8.233   0.673  0.00  0.00    +0.144 C 
ATOM      7  C   UNL     1      -3.711  -8.952   2.034  0.00  0.00    +0.032 C 
ATOM      8  C   UNL     1      -3.566 -10.450   1.646  0.00  0.00    +0.021 C 
ATOM      9  C   UNL     1      -2.548 -10.374   0.480  0.00  0.00    +0.109 C 
ATOM     10  N   UNL     1      -2.899  -9.141  -0.248  0.00  0.00    -0.287 N 
ATOM     11  C   UNL     1      -2.624  -8.888  -1.543  0.00  0.00    +0.247 C 
ATOM     12  O   UNL     1      -2.888  -7.801  -2.019  0.00  0.00    -0.270 OA
BRANCH  11  13
ATOM     13  C   UNL     1      -2.002  -9.932  -2.384  0.00  0.00    +0.037 A 
ATOM     14  C   UNL     1      -1.312 -10.992  -1.791  0.00  0.00    +0.013 A 
ATOM     15  C   UNL     1      -0.735 -11.963  -2.582  0.00  0.00    +0.001 A 
ATOM     16  C   UNL     1      -0.838 -11.889  -3.960  0.00  0.00    +0.003 A 
ATOM     17  C   UNL     1      -1.520 -10.842  -4.554  0.00  0.00    -0.050 A 
ATOM     18  C   UNL     1      -2.107  -9.867  -3.774  0.00  0.00    +0.016 A 
ATOM     19  C   UNL     1      -1.626 -10.770  -6.055  0.00  0.00    +0.044 C 
ENDBRANCH  11  13
ENDBRANCH   2   6
BRANCH   1  21
ATOM     20  C   UNL     1      -5.006  -5.101  -0.857  0.00  0.00    +0.027 C 
ATOM     21  C   UNL     1      -4.716  -5.293   0.633  0.00  0.00    +0.122 C 
ENDBRANCH   1  21
BRANCH   5  22
ATOM     22  S   UNL     1      -2.277  -3.099   1.054  0.00  0.00    -0.077 S 
BRANCH  22  23
ATOM     23  C   UNL     1      -0.518  -2.761   1.310  0.00  0.00    +0.173 C 
BRANCH  23  24
ATOM     24  C   UNL     1      -0.300  -1.272   1.397  0.00  0.00    +0.228 C 
ATOM     25  O   UNL     1      -1.242  -0.515   1.296  0.00  0.00    -0.275 OA
ATOM     26  N   UNL     1       0.941  -0.783   1.588  0.00  0.00    -0.282 N 
ATOM     27  H   UNL     1       1.805  -1.464   1.602  0.00  0.00    +0.155 HD
BRANCH  26  28
ATOM     28  C   UNL     1       1.131   0.594   1.767  0.00  0.00    +0.077 A 
ATOM     29  C   UNL     1       0.317   1.501   1.105  0.00  0.00    +0.047 A 
ATOM     30  C   UNL     1       0.503   2.859   1.288  0.00  0.00    +0.043 A 
ATOM     31  C   UNL     1       1.508   3.316   2.123  0.00  0.00    +0.024 A 
ATOM     32  C   UNL     1       2.327   2.417   2.781  0.00  0.00    +0.049 A 
ATOM     33  C   UNL     1       2.143   1.055   2.607  0.00  0.00    +0.141 A 
ATOM     34 CL   UNL     1      -0.521   3.992   0.465  0.00  0.00    -0.083 Cl
BRANCH  33  35
ATOM     35  O   UNL     1       2.947   0.171   3.255  0.00  0.00    -0.493 OA
ATOM     36  C   UNL     1       3.963   0.715   4.099  0.00  0.00    +0.277 C 
ENDBRANCH  33  35
ENDBRANCH  26  28
ENDBRANCH  23  24
ENDBRANCH  22  23
ENDBRANCH   5  22
TORSDOF 8
