REMARK  Name = ZINC19944165
REMARK  9 active torsions:
REMARK  status: ('A' for Active; 'I' for Inactive)
REMARK    1  A    between atoms: C_1  and  C_2
REMARK    2  A    between atoms: C_2  and  C_33
REMARK    3  A    between atoms: C_4  and  N_10
REMARK    4  A    between atoms: C_6  and  C_8
REMARK    5  A    between atoms: C_6  and  C_9
REMARK    6  A    between atoms: N_10  and  C_11
REMARK    7  A    between atoms: C_13  and  C_27
REMARK    8  A    between atoms: N_15  and  C_18
REMARK    9  A    between atoms: C_21  and  N_24
REMARK                            x       y       z     vdW  Elec       q    Type
REMARK                         _______ _______ _______ _____ _____    ______ ____
ROOT
ATOM      1  C   UNL     1       3.861  -0.432  -3.052  0.00  0.00    +0.083 C 
ATOM      2  C   UNL     1       4.310  -0.867  -4.284  0.00  0.00    +0.080 C 
ATOM      3  C   UNL     1       5.457  -0.343  -5.053  0.00  0.00    +0.103 C 
ATOM      4  N   UNL     1       5.530  -1.037  -6.159  0.00  0.00    -0.171 NA
ATOM      5  N   UNL     1       4.515  -1.995  -6.194  0.00  0.00    -0.156 N 
ATOM      6  C   UNL     1       3.769  -1.919  -5.075  0.00  0.00    +0.274 C 
ATOM      7  O   UNL     1       2.810  -2.618  -4.793  0.00  0.00    -0.268 OA
ENDROOT
BRANCH   5   8
ATOM      8  C   UNL     1       4.306  -2.905  -7.237  0.00  0.00    +0.060 A 
ATOM      9  C   UNL     1       3.257  -3.813  -7.169  0.00  0.00    +0.028 A 
ATOM     10  C   UNL     1       3.053  -4.709  -8.200  0.00  0.00    +0.034 A 
ATOM     11  C   UNL     1       3.893  -4.703  -9.299  0.00  0.00    +0.126 A 
ATOM     12  C   UNL     1       4.938  -3.801  -9.370  0.00  0.00    +0.034 A 
ATOM     13  C   UNL     1       5.143  -2.898  -8.345  0.00  0.00    +0.028 A 
BRANCH  11  14
ATOM     14  N   UNL     1       3.672  -5.665 -10.402  0.00  0.00    +0.056 N 
ATOM     15  O   UNL     1       2.758  -6.455 -10.341  0.00  0.00    -0.126 OA
ATOM     16  O   UNL     1       4.404  -5.661 -11.364  0.00  0.00    -0.126 OA
ENDBRANCH  11  14
ENDBRANCH   5   8
BRANCH   3  17
ATOM     17  C   UNL     1       6.355   0.764  -4.648  0.00  0.00    +0.003 A 
ATOM     18  C   UNL     1       7.673   0.797  -5.102  0.00  0.00    +0.010 A 
ATOM     19  C   UNL     1       8.505   1.830  -4.722  0.00  0.00    +0.001 A 
ATOM     20  C   UNL     1       8.034   2.832  -3.892  0.00  0.00    +0.000 A 
ATOM     21  C   UNL     1       6.727   2.804  -3.438  0.00  0.00    +0.001 A 
ATOM     22  C   UNL     1       5.884   1.779  -3.816  0.00  0.00    +0.010 A 
ENDBRANCH   3  17
BRANCH   1  23
ATOM     23  N   UNL     1       2.729  -0.946  -2.526  0.00  0.00    -0.346 N 
ATOM     24  H   UNL     1       2.232  -1.622  -3.013  0.00  0.00    +0.146 HD
BRANCH  23  28
ATOM     25  C   UNL     1       0.191   1.272   0.308  0.00  0.00    -0.010 C 
ATOM     26  C   UNL     1       0.222  -0.259   0.238  0.00  0.00    -0.072 C 
ATOM     27  C   UNL     1       0.741  -0.702  -1.126  0.00  0.00    +0.009 C 
ATOM     28  C   UNL     1       2.252  -0.484  -1.217  0.00  0.00    +0.067 C 
ATOM     29  C   UNL     1       2.919  -1.308  -0.117  0.00  0.00    +0.009 C 
ATOM     30  C   UNL     1       2.416  -0.870   1.255  0.00  0.00    -0.072 C 
ATOM     31  N   UNL     1       0.968  -0.823   1.348  0.00  0.00    +0.386 N 
ATOM     32  C   UNL     1       3.043   0.476   1.631  0.00  0.00    -0.010 C 
ATOM     33  C   UNL     1       2.921  -1.908   2.284  0.00  0.00    -0.010 C 
ATOM     34  C   UNL     1      -1.240  -0.747   0.356  0.00  0.00    -0.010 C 
ATOM     35  H   UNL     1       0.718  -0.308   2.198  0.00  0.00    -0.084 HD
ATOM     36  H   UNL     1       0.626  -1.776   1.512  0.00  0.00    -0.084 HD
ENDBRANCH  23  28
ENDBRANCH   1  23
TORSDOF 5
