REMARK  Name = ZINC39962495
REMARK  6 active torsions:
REMARK  status: ('A' for Active; 'I' for Inactive)
REMARK    1  A    between atoms: C_9  and  C_27
REMARK    2  A    between atoms: C_11  and  N_14
REMARK    3  A    between atoms: C_15  and  C_17
REMARK    4  A    between atoms: C_17  and  S_18
REMARK    5  A    between atoms: S_18  and  C_19
REMARK    6  A    between atoms: C_24  and  N_26
REMARK                            x       y       z     vdW  Elec       q    Type
REMARK                         _______ _______ _______ _____ _____    ______ ____
ROOT
ATOM      1  N   UNL     1      -0.675  -0.598   5.669  0.00  0.00    -0.301 N 
ATOM      2  C   UNL     1      -0.179   0.254   6.588  0.00  0.00    +0.224 C 
ATOM      3  O   UNL     1      -0.402   1.442   6.495  0.00  0.00    -0.275 OA
ATOM      4  H   UNL     1      -0.497  -1.549   5.743  0.00  0.00    +0.150 HD
ENDROOT
BRANCH   1  14
ATOM      5  C   UNL     1      -0.019   1.531   0.011  0.00  0.00    +0.000 C 
ATOM      6  C   UNL     1       1.429   1.974  -0.001  0.00  0.00    +0.000 C 
ATOM      7  C   UNL     1       2.069   1.966   1.378  0.00  0.00    +0.005 C 
ATOM      8  C   UNL     1       1.095   2.444   2.453  0.00  0.00    +0.042 C 
ATOM      9  C   UNL     1       0.117   1.365   2.870  0.00  0.00    -0.012 C 
ATOM     10  C   UNL     1      -0.053   0.133   2.470  0.00  0.00    -0.041 C 
ATOM     11  C   UNL     1       0.663  -0.497   1.285  0.00  0.00    +0.033 C 
ATOM     12  C   UNL     1       0.002  -0.004   0.002  0.00  0.00    +0.004 C 
ATOM     13  C   UNL     1      -1.066  -0.722   3.215  0.00  0.00    +0.149 C 
ATOM     14  C   UNL     1      -1.484  -0.089   4.559  0.00  0.00    +0.156 C 
ATOM     15  S   UNL     1      -1.077   1.663   4.172  0.00  0.00    -0.106 S 
BRANCH  13  16
ATOM     16  C   UNL     1      -2.263  -0.888   2.375  0.00  0.00    +0.073 C 
ATOM     17  N   UNL     1      -3.186  -1.016   1.726  0.00  0.00    -0.196 NA
ENDBRANCH  13  16
ENDBRANCH   1  14
BRANCH   2  18
ATOM     18  C   UNL     1       0.653  -0.270   7.730  0.00  0.00    +0.173 C 
BRANCH  18  19
ATOM     19  S   UNL     1       1.169   1.111   8.786  0.00  0.00    -0.078 S 
BRANCH  19  20
ATOM     20  C   UNL     1       2.119   0.345  10.057  0.00  0.00    +0.171 A 
ATOM     21  N   UNL     1       2.662   1.115  11.040  0.00  0.00    -0.302 N 
ATOM     22  C   UNL     1       3.393   0.545  12.021  0.00  0.00    +0.254 A 
ATOM     23  O   UNL     1       3.883   1.228  12.907  0.00  0.00    -0.268 OA
ATOM     24  C   UNL     1       3.578  -0.841  12.007  0.00  0.00    +0.113 A 
ATOM     25  C   UNL     1       3.003  -1.580  10.983  0.00  0.00    +0.124 A 
ATOM     26  N   UNL     1       2.285  -0.962  10.040  0.00  0.00    -0.209 NA
ATOM     27  H   UNL     1       2.524   2.075  11.035  0.00  0.00    +0.171 HD
BRANCH  25  28
ATOM     28  N   UNL     1       3.168  -2.950  10.941  0.00  0.00    -0.343 N 
ATOM     29  H   UNL     1       3.687  -3.398  11.628  0.00  0.00    +0.144 HD
ATOM     30  H   UNL     1       2.766  -3.466  10.225  0.00  0.00    +0.144 HD
ENDBRANCH  25  28
ENDBRANCH  19  20
ENDBRANCH  18  19
ENDBRANCH   2  18
TORSDOF 6
