REMARK  Name = ZINC48310684
REMARK  11 active torsions:
REMARK  status: ('A' for Active; 'I' for Inactive)
REMARK    1  A    between atoms: C_1  and  C_2
REMARK    2  A    between atoms: C_4  and  C_27
REMARK    3  A    between atoms: N_6  and  C_8
REMARK    4  A    between atoms: C_8  and  C_9
REMARK    5  A    between atoms: C_12  and  C_15
REMARK    6  A    between atoms: C_15  and  N_16
REMARK    7  A    between atoms: C_17  and  C_19
REMARK    8  A    between atoms: C_19  and  C_20
REMARK    9  A    between atoms: C_20  and  C_21
REMARK   10  A    between atoms: C_21  and  C_22
REMARK   11  A    between atoms: C_22  and  N_23
REMARK                            x       y       z     vdW  Elec       q    Type
REMARK                         _______ _______ _______ _____ _____    ______ ____
ROOT
ATOM      1  C   UNL     1       2.138   0.211   3.655  0.00  0.00    -0.064 A 
ATOM      2  C   UNL     1       2.572   1.442   4.109  0.00  0.00    +0.002 A 
ATOM      3  C   UNL     1       1.963   2.031   5.201  0.00  0.00    +0.005 A 
ATOM      4  C   UNL     1       0.919   1.388   5.840  0.00  0.00    -0.030 A 
ATOM      5  C   UNL     1       0.484   0.157   5.386  0.00  0.00    +0.005 A 
ATOM      6  C   UNL     1       1.090  -0.429   4.290  0.00  0.00    +0.002 A 
ENDROOT
BRANCH   1   7
ATOM      7  C   UNL     1       2.802  -0.431   2.464  0.00  0.00    -0.043 C 
BRANCH   7  13
ATOM      8  C   UNL     1      -0.019   1.526   0.010  0.00  0.00    +0.005 C 
ATOM      9  C   UNL     1       0.002  -0.004   0.002  0.00  0.00    -0.031 C 
ATOM     10  C   UNL     1       0.724  -0.499  -1.255  0.00  0.00    +0.003 C 
ATOM     11  C   UNL     1       2.180  -0.027  -1.215  0.00  0.00    -0.031 C 
ATOM     12  C   UNL     1       2.839  -0.534   0.070  0.00  0.00    -0.075 C 
ATOM     13  N   UNL     1       2.120  -0.005   1.235  0.00  0.00    +0.383 N 
ATOM     14  C   UNL     1       0.742  -0.512   1.241  0.00  0.00    -0.075 C 
ATOM     15  C   UNL     1       2.930  -0.582  -2.427  0.00  0.00    +0.005 C 
ATOM     16  H   UNL     1       2.106   1.002   1.192  0.00  0.00    -0.081 HD
ENDBRANCH   7  13
ENDBRANCH   1   7
BRANCH   4  17
ATOM     17  C   UNL     1       0.255   2.029   7.031  0.00  0.00    +0.139 C 
BRANCH  17  18
ATOM     18  N   UNL     1      -0.859   2.865   6.578  0.00  0.00    -0.311 N 
ATOM     19  C   UNL     1      -1.603   3.541   7.476  0.00  0.00    +0.213 C 
ATOM     20  O   UNL     1      -1.350   3.457   8.659  0.00  0.00    -0.276 OA
ATOM     21  H   UNL     1      -1.062   2.933   5.632  0.00  0.00    +0.149 HD
BRANCH  19  22
ATOM     22  C   UNL     1      -2.749   4.401   7.010  0.00  0.00    +0.096 C 
BRANCH  22  23
ATOM     23  C   UNL     1      -3.423   5.052   8.220  0.00  0.00    +0.011 C 
BRANCH  23  24
ATOM     24  C   UNL     1      -4.587   5.925   7.747  0.00  0.00    +0.019 C 
BRANCH  24  25
ATOM     25  C   UNL     1      -5.261   6.576   8.957  0.00  0.00    +0.106 C 
BRANCH  25  26
ATOM     26  N   UNL     1      -6.375   7.412   8.504  0.00  0.00    -0.300 N 
ATOM     27  C   UNL     1      -7.119   8.088   9.402  0.00  0.00    +0.297 C 
ATOM     28  O   UNL     1      -6.865   8.004  10.588  0.00  0.00    -0.253 OA
ATOM     29  N   UNL     1      -8.144   8.857   8.985  0.00  0.00    -0.313 N 
ATOM     30  H   UNL     1      -6.578   7.480   7.557  0.00  0.00    +0.150 HD
ATOM     31  H   UNL     1      -8.347   8.925   8.039  0.00  0.00    +0.146 HD
ATOM     32  H   UNL     1      -8.680   9.344   9.631  0.00  0.00    +0.146 HD
ENDBRANCH  25  26
ENDBRANCH  24  25
ENDBRANCH  23  24
ENDBRANCH  22  23
ENDBRANCH  19  22
ENDBRANCH  17  18
ENDBRANCH   4  17
TORSDOF 9
