REMARK  Name = ZINC20562421
REMARK  4 active torsions:
REMARK  status: ('A' for Active; 'I' for Inactive)
REMARK    1  A    between atoms: C_4  and  N_6
REMARK    2  A    between atoms: N_6  and  S_7
REMARK    3  A    between atoms: S_7  and  C_10
REMARK    4  A    between atoms: C_12  and  N_18
REMARK                            x       y       z     vdW  Elec       q    Type
REMARK                         _______ _______ _______ _____ _____    ______ ____
ROOT
ATOM      1  C   UNL     1       0.085   1.755   0.051  0.00  0.00    +0.147 A 
ATOM      2  C   UNL     1      -1.075   2.498   0.168  0.00  0.00    +0.057 A 
ATOM      3  C   UNL     1      -1.010   3.883   0.211  0.00  0.00    +0.062 A 
ATOM      4  C   UNL     1       0.223   4.522   0.126  0.00  0.00    +0.147 A 
ATOM      5  C   UNL     1       1.380   3.775   0.004  0.00  0.00    +0.080 A 
ATOM      6  C   UNL     1       1.311   2.392  -0.034  0.00  0.00    +0.153 A 
ATOM      7  F   UNL     1       2.442   1.663  -0.153  0.00  0.00    -0.203 F 
ATOM      8  F   UNL     1       0.289   5.871   0.162  0.00  0.00    -0.203 F 
ENDROOT
BRANCH   1   9
ATOM      9  S   UNL     1       0.002  -0.004   0.002  0.00  0.00    +0.096 S 
ATOM     10  O   UNL     1       0.953  -0.482   0.943  0.00  0.00    -0.148 OA
ATOM     11  O   UNL     1      -1.375  -0.348   0.070  0.00  0.00    -0.148 OA
BRANCH   9  12
ATOM     12  N   UNL     1       0.535  -0.478  -1.492  0.00  0.00    -0.070 NA
BRANCH  12  16
ATOM     13  C   UNL     1      -1.780   0.919  -3.904  0.00  0.00    +0.120 A 
ATOM     14  C   UNL     1      -1.244   0.343  -5.006  0.00  0.00    +0.068 A 
ATOM     15  S   UNL     1       0.106  -0.574  -4.279  0.00  0.00    -0.058 S 
ATOM     16  C   UNL     1      -0.170  -0.113  -2.628  0.00  0.00    +0.201 A 
ATOM     17  N   UNL     1      -1.228   0.669  -2.731  0.00  0.00    -0.231 NA
ENDBRANCH  12  16
ENDBRANCH   9  12
ENDBRANCH   1   9
BRANCH   3  18
ATOM     18  N   UNL     1      -2.183   4.637   0.335  0.00  0.00    -0.356 N 
ATOM     19  H   UNL     1      -2.130   5.735   0.369  0.00  0.00    +0.142 HD
ATOM     20  H   UNL     1      -3.158   4.131   0.398  0.00  0.00    +0.142 HD
ENDBRANCH   3  18
TORSDOF 4
