REMARK  Name = ZINC41001300
REMARK  15 active torsions:
REMARK  status: ('A' for Active; 'I' for Inactive)
REMARK    1  A    between atoms: C_1  and  C_2
REMARK    2  A    between atoms: C_2  and  C_3
REMARK    3  A    between atoms: C_3  and  C_4
REMARK    4  A    between atoms: C_4  and  O_5
REMARK    5  A    between atoms: O_5  and  C_6
REMARK    6  A    between atoms: C_11  and  C_12
REMARK    7  A    between atoms: C_14  and  C_28
REMARK    8  A    between atoms: C_15  and  C_27
REMARK    9  A    between atoms: C_20  and  S_22
REMARK   10  A    between atoms: S_22  and  C_23
REMARK   11  A    between atoms: C_23  and  C_24
REMARK   12  A    between atoms: C_24  and  C_25
REMARK   13  A    between atoms: C_25  and  C_26
REMARK   14  A    between atoms: C_28  and  O_30
REMARK   15  A    between atoms: O_30  and  C_31
REMARK                            x       y       z     vdW  Elec       q    Type
REMARK                         _______ _______ _______ _____ _____    ______ ____
ROOT
ATOM      1  C   UNL     1       2.750  -3.415   4.749  0.00  0.00    +0.183 C 
ATOM      2  C   UNL     1       4.251  -3.514   4.824  0.00  0.00    +0.082 C 
ATOM      3  C   UNL     1       4.893  -4.186   5.792  0.00  0.00    +0.020 C 
ATOM      4  N   UNL     1       4.224  -4.829   6.803  0.00  0.00    -0.287 N 
ATOM      5  C   UNL     1       2.872  -4.551   6.952  0.00  0.00    +0.219 A 
ATOM      6  N   UNL     1       2.169  -3.886   6.003  0.00  0.00    -0.220 N 
ATOM      7  N   UNL     1       0.863  -3.775   6.477  0.00  0.00    -0.141 NA
ATOM      8  C   UNL     1       0.835  -4.364   7.653  0.00  0.00    +0.210 A 
ATOM      9  N   UNL     1       2.060  -4.835   7.934  0.00  0.00    -0.187 NA
ATOM     10  C   UNL     1       6.399  -4.235   5.769  0.00  0.00    +0.061 C 
ATOM     11  H   UNL     1       4.678  -5.454   7.390  0.00  0.00    +0.155 HD
ENDROOT
BRANCH   1  17
ATOM     12  C   UNL     1       1.537  -3.683   2.571  0.00  0.00    +0.126 A 
ATOM     13  C   UNL     1       1.080  -4.467   1.521  0.00  0.00    +0.047 A 
ATOM     14  C   UNL     1       1.327  -5.825   1.516  0.00  0.00    +0.019 A 
ATOM     15  C   UNL     1       2.031  -6.405   2.557  0.00  0.00    +0.018 A 
ATOM     16  C   UNL     1       2.487  -5.626   3.605  0.00  0.00    +0.025 A 
ATOM     17  C   UNL     1       2.247  -4.265   3.611  0.00  0.00    +0.024 A 
ATOM     18 BR   UNL     1       2.369  -8.266   2.548  0.00  0.00    -0.050 Br
BRANCH  12  19
ATOM     19  O   UNL     1       1.294  -2.346   2.578  0.00  0.00    -0.492 OA
BRANCH  19  20
ATOM     20  C   UNL     1       0.556  -1.815   1.475  0.00  0.00    +0.229 C 
BRANCH  20  21
ATOM     21  C   UNL     1       0.383  -0.305   1.657  0.00  0.00    +0.041 C 
BRANCH  21  23
ATOM     22  C   UNL     1      -0.580   1.772   0.658  0.00  0.00    +0.004 C 
ATOM     23  C   UNL     1      -0.407   0.263   0.476  0.00  0.00    -0.000 C 
ENDBRANCH  21  23
ENDBRANCH  20  21
ENDBRANCH  19  20
ENDBRANCH  12  19
ENDBRANCH   1  17
BRANCH   2  24
ATOM     24  C   UNL     1       5.018  -2.871   3.828  0.00  0.00    +0.339 C 
ATOM     25  O   UNL     1       5.238  -1.676   3.905  0.00  0.00    -0.245 OA
BRANCH  24  26
ATOM     26  O   UNL     1       5.509  -3.581   2.790  0.00  0.00    -0.465 OA
ATOM     27  C   UNL     1       6.276  -2.865   1.819  0.00  0.00    +0.280 C 
ENDBRANCH  24  26
ENDBRANCH   2  24
BRANCH   8  28
ATOM     28  S   UNL     1      -0.581  -4.512   8.691  0.00  0.00    -0.084 S 
BRANCH  28  29
ATOM     29  C   UNL     1       0.031  -5.412  10.143  0.00  0.00    +0.077 C 
BRANCH  29  30
ATOM     30  C   UNL     1      -1.113  -5.611  11.139  0.00  0.00    +0.011 C 
BRANCH  30  31
ATOM     31  C   UNL     1      -0.598  -6.370  12.363  0.00  0.00    -0.003 C 
ATOM     32  C   UNL     1      -1.742  -6.569  13.359  0.00  0.00    +0.004 C 
ENDBRANCH  30  31
ENDBRANCH  29  30
ENDBRANCH  28  29
ENDBRANCH   8  28
TORSDOF 11
