REMARK  Name = ZINC31158954
REMARK  6 active torsions:
REMARK  status: ('A' for Active; 'I' for Inactive)
REMARK    1  A    between atoms: C_1  and  C_2
REMARK    2  A    between atoms: C_15  and  O_28
REMARK    3  A    between atoms: C_17  and  O_27
REMARK    4  A    between atoms: C_19  and  O_26
REMARK    5  A    between atoms: C_20  and  O_25
REMARK    6  A    between atoms: C_22  and  O_24
REMARK                            x       y       z     vdW  Elec       q    Type
REMARK                         _______ _______ _______ _____ _____    ______ ____
ROOT
ATOM      1  C   UNL     1      -0.992   1.633   0.808  0.00  0.00    +0.008 C 
ATOM      2  C   UNL     1      -0.789   0.128   0.622  0.00  0.00    -0.003 C 
ATOM      3  C   UNL     1      -2.135  -0.584   0.684  0.00  0.00    +0.037 C 
ATOM      4  C   UNL     1      -1.979  -2.087   0.627  0.00  0.00    -0.031 C 
ATOM      5  C   UNL     1      -0.859  -2.685   1.015  0.00  0.00    +0.010 C 
ATOM      6  C   UNL     1      -0.682  -4.179   1.000  0.00  0.00    +0.130 C 
ATOM      7  C   UNL     1       0.705  -4.541   0.511  0.00  0.00    +0.174 C 
ATOM      8  O   UNL     1       1.596  -3.720   0.468  0.00  0.00    -0.291 OA
ATOM      9  C   UNL     1       0.921  -5.942   0.090  0.00  0.00    +0.027 A 
ATOM     10  C   UNL     1       2.221  -6.401  -0.136  0.00  0.00    +0.012 A 
ATOM     11  C   UNL     1       2.430  -7.706  -0.531  0.00  0.00    +0.004 A 
ATOM     12  C   UNL     1       1.354  -8.558  -0.704  0.00  0.00    +0.046 A 
ATOM     13  C   UNL     1       0.060  -8.110  -0.481  0.00  0.00    +0.123 A 
ATOM     14  C   UNL     1      -0.166  -6.800  -0.082  0.00  0.00    +0.036 A 
ATOM     15  C   UNL     1      -1.582  -6.343   0.156  0.00  0.00    +0.184 C 
ATOM     16  C   UNL     1      -1.687  -4.827   0.042  0.00  0.00    +0.138 C 
ATOM     17  C   UNL     1      -3.081  -4.339   0.439  0.00  0.00    +0.182 C 
ATOM     18  C   UNL     1      -3.167  -2.853   0.090  0.00  0.00    +0.172 C 
ATOM     19  C   UNL     1       0.294  -1.891   1.478  0.00  0.00    +0.160 C 
ATOM     20  O   UNL     1       1.378  -2.411   1.637  0.00  0.00    -0.292 OA
ATOM     21  C   UNL     1       0.102  -0.417   1.749  0.00  0.00    +0.083 C 
ENDROOT
BRANCH  18  22
ATOM     22  O   UNL     1      -4.363  -2.316   0.659  0.00  0.00    -0.385 OA
ATOM     23  H   UNL     1      -4.508  -1.381   0.461  0.00  0.00    +0.210 HD
ENDBRANCH  18  22
BRANCH  17  24
ATOM     24  O   UNL     1      -4.073  -5.062  -0.292  0.00  0.00    -0.386 OA
ATOM     25  H   UNL     1      -4.981  -4.801  -0.087  0.00  0.00    +0.210 HD
ENDBRANCH  17  24
BRANCH  16  26
ATOM     26  O   UNL     1      -1.393  -4.432  -1.300  0.00  0.00    -0.382 OA
ATOM     27  H   UNL     1      -1.992  -4.807  -1.960  0.00  0.00    +0.210 HD
ENDBRANCH  16  26
BRANCH  15  28
ATOM     28  O   UNL     1      -2.442  -6.946  -0.813  0.00  0.00    -0.384 OA
ATOM     29  H   UNL     1      -2.170  -6.796  -1.728  0.00  0.00    +0.210 HD
ENDBRANCH  15  28
BRANCH  13  30
ATOM     30  O   UNL     1      -0.989  -8.956  -0.654  0.00  0.00    -0.506 OA
ATOM     31  H   UNL     1      -1.232  -9.449   0.141  0.00  0.00    +0.292 HD
ENDBRANCH  13  30
TORSDOF 5
