REMARK  Name = ZINC25548423
REMARK  8 active torsions:
REMARK  status: ('A' for Active; 'I' for Inactive)
REMARK    1  A    between atoms: C_1  and  C_2
REMARK    2  A    between atoms: C_16  and  O_36
REMARK    3  A    between atoms: C_19  and  C_35
REMARK    4  A    between atoms: C_25  and  C_31
REMARK    5  A    between atoms: C_27  and  C_29
REMARK    6  A    between atoms: C_27  and  C_30
REMARK    7  A    between atoms: C_31  and  C_33
REMARK    8  A    between atoms: C_33  and  O_34
REMARK                            x       y       z     vdW  Elec       q    Type
REMARK                         _______ _______ _______ _____ _____    ______ ____
ROOT
ATOM      1  C   UNL     1       0.005   1.470  -0.010  0.00  0.00    +0.016 C 
ATOM      2  C   UNL     1       0.013  -0.059  -0.009  0.00  0.00    -0.002 C 
ATOM      3  C   UNL     1       0.776  -0.554  -1.248  0.00  0.00    +0.019 C 
ATOM      4  C   UNL     1       2.209  -0.024  -1.244  0.00  0.00    +0.080 C 
ATOM      5  C   UNL     1       2.876  -0.397   0.057  0.00  0.00    +0.156 C 
ATOM      6  O   UNL     1       4.087  -0.478   0.119  0.00  0.00    -0.293 OA
ATOM      7  C   UNL     1       2.066  -0.663   1.243  0.00  0.00    +0.049 C 
ATOM      8  C   UNL     1       0.746  -0.515   1.228  0.00  0.00    -0.027 C 
ATOM      9  C   UNL     1      -0.066  -0.796   2.466  0.00  0.00    +0.193 C 
ATOM     10  C   UNL     1      -1.022  -1.942   2.159  0.00  0.00    +0.045 C 
ATOM     11  C   UNL     1      -1.512  -1.943   0.730  0.00  0.00    +0.002 C 
ATOM     12  C   UNL     1      -1.389  -0.647  -0.052  0.00  0.00    +0.031 C 
ATOM     13  C   UNL     1      -2.525   0.336   0.089  0.00  0.00    +0.119 C 
ATOM     14  C   UNL     1      -3.902  -0.350  -0.074  0.00  0.00    +0.042 C 
ATOM     15  C   UNL     1      -4.000  -1.479   0.923  0.00  0.00    +0.012 C 
ATOM     16  C   UNL     1      -2.903  -2.510   0.593  0.00  0.00    +0.004 C 
ATOM     17  C   UNL     1      -3.280  -3.680   1.511  0.00  0.00    +0.039 C 
ATOM     18  C   UNL     1      -4.824  -3.740   1.363  0.00  0.00    +0.162 C 
ATOM     19  C   UNL     1      -5.276  -2.335   0.869  0.00  0.00    +0.164 C 
ATOM     20  O   UNL     1      -6.191  -1.870   1.878  0.00  0.00    -0.332 OA
ATOM     21  C   UNL     1      -6.558  -3.010   2.674  0.00  0.00    +0.166 C 
ATOM     22  O   UNL     1      -5.413  -3.885   2.664  0.00  0.00    -0.343 OA
ATOM     23  C   UNL     1      -7.783  -3.715   2.086  0.00  0.00    +0.074 C 
ATOM     24  C   UNL     1      -6.862  -2.570   4.114  0.00  0.00    +0.074 C 
ATOM     25  C   UNL     1      -3.901  -0.908   2.337  0.00  0.00    +0.015 C 
ATOM     26  F   UNL     1      -0.788   0.339   2.837  0.00  0.00    -0.241 F 
ENDROOT
BRANCH  19  27
ATOM     27  C   UNL     1      -5.892  -2.374  -0.504  0.00  0.00    +0.193 C 
ATOM     28  O   UNL     1      -5.556  -3.225  -1.292  0.00  0.00    -0.292 OA
BRANCH  27  29
ATOM     29  C   UNL     1      -6.927  -1.351  -0.894  0.00  0.00    +0.233 C 
BRANCH  29  30
ATOM     30  O   UNL     1      -7.442  -1.665  -2.189  0.00  0.00    -0.387 OA
ATOM     31  H   UNL     1      -8.115  -1.046  -2.506  0.00  0.00    +0.210 HD
ENDBRANCH  29  30
ENDBRANCH  27  29
ENDBRANCH  19  27
BRANCH  13  32
ATOM     32  O   UNL     1      -2.478   1.297  -0.987  0.00  0.00    -0.391 OA
ATOM     33  H   UNL     1      -3.183   1.958  -0.954  0.00  0.00    +0.210 HD
ENDBRANCH  13  32
TORSDOF 4
