REMARK  Name = ZINC39533337
REMARK  10 active torsions:
REMARK  status: ('A' for Active; 'I' for Inactive)
REMARK    1  A    between atoms: C_1  and  C_2
REMARK    2  A    between atoms: C_2  and  C_3
REMARK    3  A    between atoms: C_2  and  C_4
REMARK    4  A    between atoms: C_4  and  C_5
REMARK    5  A    between atoms: C_8  and  C_11
REMARK    6  A    between atoms: C_11  and  C_13
REMARK    7  A    between atoms: C_11  and  N_16
REMARK    8  A    between atoms: C_13  and  N_14
REMARK    9  A    between atoms: C_20  and  C_23
REMARK   10  A    between atoms: C_28  and  O_29
REMARK                            x       y       z     vdW  Elec       q    Type
REMARK                         _______ _______ _______ _____ _____    ______ ____
ROOT
ATOM      1  N   UNL     1      -0.499  -6.948   0.491  0.00  0.00    -0.297 NA
ATOM      2  C   UNL     1       0.828  -6.315   0.504  0.00  0.00    +0.066 C 
ATOM      3  C   UNL     1       1.699  -6.987   1.568  0.00  0.00    -0.066 C 
ATOM      4  N   UNL     1       1.823  -8.419   1.266  0.00  0.00    +0.385 N 
ATOM      5  C   UNL     1       0.493  -9.042   1.280  0.00  0.00    -0.023 C 
ATOM      6  C   UNL     1      -0.388  -8.387   0.214  0.00  0.00    +0.074 C 
ATOM      7  H   UNL     1       2.239  -8.536   0.354  0.00  0.00    -0.085 HD
ATOM      8  H   UNL     1       2.408  -8.860   1.960  0.00  0.00    -0.085 HD
ENDROOT
BRANCH   5   9
ATOM      9  C   UNL     1       0.624 -10.514   0.988  0.00  0.00    -0.019 A 
ATOM     10  C   UNL     1       1.762 -10.998   0.370  0.00  0.00    +0.005 A 
ATOM     11  C   UNL     1       1.883 -12.349   0.101  0.00  0.00    +0.000 A 
ATOM     12  C   UNL     1       0.866 -13.219   0.450  0.00  0.00    +0.004 A 
ATOM     13  C   UNL     1      -0.273 -12.741   1.068  0.00  0.00    +0.045 A 
ATOM     14  C   UNL     1      -0.394 -11.386   1.344  0.00  0.00    +0.118 A 
BRANCH  14  15
ATOM     15  O   UNL     1      -1.511 -10.914   1.957  0.00  0.00    -0.507 OA
ATOM     16  H   UNL     1      -2.215 -10.655   1.347  0.00  0.00    +0.292 HD
ENDBRANCH  14  15
ENDBRANCH   5   9
BRANCH   1  17
ATOM     17  C   UNL     1      -1.385  -6.292  -0.480  0.00  0.00    +0.103 C 
BRANCH  17  21
ATOM     18  C   UNL     1      -1.833  -2.172   0.556  0.00  0.00    -0.047 A 
ATOM     19  C   UNL     1      -1.704  -2.541  -0.770  0.00  0.00    +0.004 A 
ATOM     20  C   UNL     1      -1.559  -3.874  -1.105  0.00  0.00    +0.005 A 
ATOM     21  C   UNL     1      -1.542  -4.838  -0.114  0.00  0.00    -0.029 A 
ATOM     22  C   UNL     1      -1.670  -4.469   1.212  0.00  0.00    +0.005 A 
ATOM     23  C   UNL     1      -1.811  -3.135   1.547  0.00  0.00    +0.004 A 
BRANCH  18  24
ATOM     24  C   UNL     1      -1.991  -0.718   0.922  0.00  0.00    +0.038 C 
BRANCH  24  26
ATOM     25  C   UNL     1      -0.764   1.407   1.391  0.00  0.00    +0.007 C 
ATOM     26  C   UNL     1      -0.611  -0.095   1.142  0.00  0.00    -0.013 C 
ATOM     27  C   UNL     1       0.055  -0.747   2.355  0.00  0.00    +0.007 C 
ENDBRANCH  24  26
ENDBRANCH  18  24
ENDBRANCH  17  21
BRANCH  17  28
ATOM     28  C   UNL     1      -2.755  -6.973  -0.462  0.00  0.00    +0.140 C 
BRANCH  28  29
ATOM     29  N   UNL     1      -3.614  -6.372  -1.490  0.00  0.00    -0.157 NA
ATOM     30  F   UNL     1      -4.822  -6.850  -1.426  0.00  0.00    -0.136 F 
ATOM     31  H   UNL     1      -3.222  -6.503  -2.411  0.00  0.00    +0.159 HD
ENDBRANCH  28  29
ENDBRANCH  17  28
ENDBRANCH   1  17
TORSDOF 8
