REMARK  Name = ZINC12406660
REMARK  6 active torsions:
REMARK  status: ('A' for Active; 'I' for Inactive)
REMARK    1  A    between atoms: C_1  and  C_2
REMARK    2  A    between atoms: C_3  and  C_14
REMARK    3  A    between atoms: C_5  and  C_7
REMARK    4  A    between atoms: N_16  and  CA_17
REMARK    5  A    between atoms: CA_17  and  CB_19
REMARK    6  A    between atoms: CA_17  and  C_20
REMARK                            x       y       z     vdW  Elec       q    Type
REMARK                         _______ _______ _______ _____ _____    ______ ____
ROOT
ATOM      1  C   UNK A   0       4.083   7.439   1.549  0.00  0.00    +0.067 C 
ATOM      2  C   UNK A   0       4.933   6.356   0.934  0.00  0.00    +0.058 A 
ATOM      3  C   UNK A   0       4.368   5.171   0.481  0.00  0.00    +0.097 A 
ATOM      4  S   UNK A   0       5.824   4.319  -0.111  0.00  0.00    -0.062 S 
ATOM      5  C   UNK A   0       6.981   5.557   0.269  0.00  0.00    +0.109 A 
ATOM      6  N   UNK A   0       6.224   6.503   0.809  0.00  0.00    -0.243 NA
ENDROOT
BRANCH   5   7
ATOM      7  C   UNK A   0       8.443   5.555   0.051  0.00  0.00    +0.007 A 
ATOM      8  C   UNK A   0       9.062   4.449  -0.534  0.00  0.00    +0.012 A 
ATOM      9  C   UNK A   0      10.426   4.455  -0.740  0.00  0.00    +0.020 A 
ATOM     10  C   UNK A   0      11.182   5.550  -0.357  0.00  0.00    +0.041 A 
ATOM     11  C   UNK A   0      10.574   6.648   0.230  0.00  0.00    +0.020 A 
ATOM     12  C   UNK A   0       9.210   6.656   0.435  0.00  0.00    +0.012 A 
ATOM     13 CL   UNK A   0      12.899   5.547  -0.612  0.00  0.00    -0.084 Cl
ENDBRANCH   5   7
BRANCH   3  14
ATOM     14  C   UNK A   0       2.969   4.736   0.492  0.00  0.00    +0.253 C 
ATOM     15  O   UNK A   0       2.108   5.466   0.950  0.00  0.00    -0.270 OA
ATOM     16  N   ALA A   1       2.634   3.529  -0.004  0.00  0.00    -0.298 N 
ATOM     17  H   ALA A   1       3.320   2.947  -0.369  0.00  0.00    +0.150 HD
BRANCH  16  18
ATOM     18  CA  ALA A   1       1.235   3.094   0.007  0.00  0.00    +0.183 C 
ATOM     19  CB  ALA A   1       0.522   3.639  -1.233  0.00  0.00    +0.040 C 
BRANCH  18  20
ATOM     20  C   ALA A   1       1.177   1.588  -0.001  0.00  0.00    +0.376 C 
ATOM     21  O   ALA A   1       2.199   0.944  -0.014  0.00  0.00    -0.244 OA
ATOM     22  OXT ALA A   1      -0.011   0.963   0.007  0.00  0.00    -0.244 OA
ENDBRANCH  18  20
ENDBRANCH  16  18
ENDBRANCH   3  14
TORSDOF 4
