REMARK  Name = ZINC44861271
REMARK  7 active torsions:
REMARK  status: ('A' for Active; 'I' for Inactive)
REMARK    1  A    between atoms: C_1  and  C_2
REMARK    2  A    between atoms: C_2  and  C_3
REMARK    3  A    between atoms: C_3  and  C_4
REMARK    4  A    between atoms: C_4  and  C_6
REMARK    5  A    between atoms: C_4  and  C_10
REMARK    6  A    between atoms: N_7  and  O_8
REMARK    7  A    between atoms: N_12  and  C_13
REMARK                            x       y       z     vdW  Elec       q    Type
REMARK                         _______ _______ _______ _____ _____    ______ ____
ROOT
ATOM      1  C   UNL     1       2.449  -2.955  -1.531  0.00  0.00    +0.228 C 
ATOM      2  O   UNL     1       2.688  -4.144  -1.552  0.00  0.00    -0.275 OA
ATOM      3  N   UNL     1       2.848  -2.168  -2.550  0.00  0.00    -0.283 N 
ATOM      4  H   UNL     1       2.595  -1.232  -2.568  0.00  0.00    +0.155 HD
ENDROOT
BRANCH   3   5
ATOM      5  C   UNL     1       3.628  -2.703  -3.583  0.00  0.00    +0.062 A 
ATOM      6  C   UNL     1       3.019  -3.229  -4.715  0.00  0.00    +0.041 A 
ATOM      7  C   UNL     1       3.792  -3.756  -5.732  0.00  0.00    +0.032 A 
ATOM      8  C   UNL     1       5.171  -3.759  -5.624  0.00  0.00    +0.020 A 
ATOM      9  C   UNL     1       5.781  -3.236  -4.498  0.00  0.00    +0.032 A 
ATOM     10  C   UNL     1       5.014  -2.702  -3.480  0.00  0.00    +0.041 A 
ATOM     11 BR   UNL     1       5.848  -1.980  -1.945  0.00  0.00    -0.048 Br
ATOM     12 BR   UNL     1       6.225  -4.481  -7.019  0.00  0.00    -0.050 Br
ATOM     13 BR   UNL     1       1.134  -3.227  -4.862  0.00  0.00    -0.048 Br
ENDBRANCH   3   5
BRANCH   1  14
ATOM     14  C   UNL     1       1.706  -2.357  -0.364  0.00  0.00    +0.141 C 
BRANCH  14  15
ATOM     15  C   UNL     1       1.377  -3.440   0.631  0.00  0.00    +0.144 C 
ATOM     16  N   UNL     1       0.225  -4.024   0.593  0.00  0.00    -0.076 NA
ATOM     17  N   UNL     1       2.305  -3.808   1.580  0.00  0.00    -0.343 N 
ATOM     18  H   UNL     1       3.170  -3.370   1.608  0.00  0.00    +0.144 HD
ATOM     19  H   UNL     1       2.093  -4.505   2.220  0.00  0.00    +0.144 HD
BRANCH  16  20
ATOM     20  O   UNL     1      -0.084  -5.041   1.528  0.00  0.00    -0.408 OA
ATOM     21  H   UNL     1      -0.968  -5.418   1.421  0.00  0.00    +0.328 HD
ENDBRANCH  16  20
ENDBRANCH  14  15
BRANCH  14  22
ATOM     22  C   UNL     1       0.411  -1.710  -0.861  0.00  0.00    +0.020 C 
BRANCH  22  24
ATOM     23  C   UNL     1      -1.576  -0.350  -0.195  0.00  0.00    +0.004 C 
ATOM     24  C   UNL     1      -0.281  -0.996   0.302  0.00  0.00    -0.002 C 
ENDBRANCH  22  24
ENDBRANCH  14  22
ENDBRANCH   1  14
TORSDOF 6
