REMARK  Name = ZINC12690165
REMARK  7 active torsions:
REMARK  status: ('A' for Active; 'I' for Inactive)
REMARK    1  A    between atoms: C_1  and  C_2
REMARK    2  A    between atoms: C_2  and  C_4
REMARK    3  A    between atoms: C_2  and  N_14
REMARK    4  A    between atoms: C_15  and  C_17
REMARK    5  A    between atoms: C_17  and  N_63
REMARK    6  A    between atoms: C_20  and  C_23
REMARK    7  A    between atoms: N_25  and  C_26
REMARK                            x       y       z     vdW  Elec       q    Type
REMARK                         _______ _______ _______ _____ _____    ______ ____
ROOT
ATOM      1  C   UNL     1       8.804   1.797   0.826  0.00  0.00    -0.077 C 
ATOM      2  C   UNL     1       7.561   0.921   0.995  0.00  0.00    -0.006 C 
ATOM      3  C   UNL     1       6.319   1.814   1.061  0.00  0.00    +0.072 C 
ATOM      4  C   UNL     1       6.242   2.664  -0.211  0.00  0.00    -0.006 C 
ATOM      5  C   UNL     1       7.524   3.489  -0.344  0.00  0.00    -0.077 C 
ATOM      6  N   UNL     1       8.680   2.571  -0.427  0.00  0.00    +0.385 N 
ATOM      7  H   UNL     1       8.532   1.919  -1.207  0.00  0.00    -0.081 HD
ENDROOT
BRANCH   3   8
ATOM      8  C   UNL     1       5.085   0.954   1.167  0.00  0.00    +0.220 C 
ATOM      9  O   UNL     1       5.188  -0.254   1.187  0.00  0.00    -0.275 OA
ATOM     10  N   UNL     1       3.868   1.528   1.238  0.00  0.00    -0.285 N 
ATOM     11  H   UNL     1       3.780   2.490   1.154  0.00  0.00    +0.155 HD
BRANCH  10  12
ATOM     12  C   UNL     1       2.730   0.735   1.433  0.00  0.00    +0.037 A 
ATOM     13  C   UNL     1       2.805  -0.405   2.223  0.00  0.00    +0.027 A 
ATOM     14  C   UNL     1       1.683  -1.188   2.417  0.00  0.00    +0.051 A 
ATOM     15  C   UNL     1       0.481  -0.838   1.825  0.00  0.00    +0.166 A 
ATOM     16  C   UNL     1       0.402   0.304   1.032  0.00  0.00    +0.168 A 
ATOM     17  C   UNL     1       1.527   1.088   0.838  0.00  0.00    +0.072 A 
ATOM     18  O   UNL     1      -0.875   0.424   0.564  0.00  0.00    -0.453 OA
ATOM     19  C   UNL     1      -1.477  -0.869   0.750  0.00  0.00    +0.466 C 
ATOM     20  O   UNL     1      -0.750  -1.431   1.858  0.00  0.00    -0.453 OA
ENDBRANCH  10  12
ENDBRANCH   3   8
BRANCH   6  21
ATOM     21  C   UNL     1       9.918   3.339  -0.671  0.00  0.00    +0.019 C 
BRANCH  21  23
ATOM     22  N   UNL     1      12.296   2.829  -1.125  0.00  0.00    -0.310 N 
ATOM     23  C   UNL     1      11.037   2.374  -0.968  0.00  0.00    +0.197 C 
ATOM     24  O   UNL     1      10.805   1.187  -1.066  0.00  0.00    -0.278 OA
ATOM     25  H   UNL     1      12.482   3.778  -1.046  0.00  0.00    +0.149 HD
BRANCH  22  27
ATOM     26  C   UNL     1      13.503   1.699  -2.927  0.00  0.00    +0.033 C 
ATOM     27  C   UNL     1      13.383   1.891  -1.414  0.00  0.00    +0.101 C 
BRANCH  27  28
ATOM     28  C   UNL     1      14.678   2.441  -0.873  0.00  0.00    -0.020 A 
ATOM     29  C   UNL     1      14.812   3.776  -0.644  0.00  0.00    +0.006 A 
ATOM     30  C   UNL     1      15.999   4.303  -0.141  0.00  0.00    +0.001 A 
ATOM     31  C   UNL     1      17.064   3.498   0.128  0.00  0.00    +0.008 A 
ATOM     32  C   UNL     1      16.965   2.115  -0.100  0.00  0.00    -0.018 A 
ATOM     33  C   UNL     1      15.756   1.579  -0.608  0.00  0.00    -0.013 A 
ATOM     34  C   UNL     1      15.658   0.196  -0.836  0.00  0.00    +0.009 A 
ATOM     35  C   UNL     1      16.722  -0.608  -0.567  0.00  0.00    +0.001 A 
ATOM     36  C   UNL     1      17.911  -0.081  -0.067  0.00  0.00    +0.001 A 
ATOM     37  C   UNL     1      18.043   1.253   0.166  0.00  0.00    +0.008 A 
ENDBRANCH  27  28
ENDBRANCH  22  27
ENDBRANCH  21  23
ENDBRANCH   6  21
TORSDOF 6
