REMARK  Name = ZINC36618614
REMARK  6 active torsions:
REMARK  status: ('A' for Active; 'I' for Inactive)
REMARK    1  A    between atoms: C_1  and  C_2
REMARK    2  A    between atoms: C_2  and  N_3
REMARK    3  A    between atoms: C_5  and  C_9
REMARK    4  A    between atoms: C_6  and  C_8
REMARK    5  A    between atoms: C_11  and  C_23
REMARK    6  A    between atoms: C_19  and  C_22
REMARK                            x       y       z     vdW  Elec       q    Type
REMARK                         _______ _______ _______ _____ _____    ______ ____
ROOT
ATOM      1  C   UNL     1       3.178  -2.361  -3.050  0.00  0.00    +0.080 A 
ATOM      2  C   UNL     1       3.986  -3.078  -2.162  0.00  0.00    +0.061 A 
ATOM      3  C   UNL     1       5.001  -3.860  -2.680  0.00  0.00    +0.149 A 
ATOM      4  N   UNL     1       5.178  -3.908  -3.991  0.00  0.00    -0.210 NA
ATOM      5  C   UNL     1       4.397  -3.218  -4.810  0.00  0.00    +0.219 A 
ATOM      6  N   UNL     1       3.410  -2.461  -4.357  0.00  0.00    -0.214 NA
ATOM      7  N   UNL     1       4.615  -3.296  -6.175  0.00  0.00    -0.299 N 
ATOM      8  C   UNL     1       3.773  -2.540  -7.112  0.00  0.00    +0.108 C 
ATOM      9  C   UNL     1       3.203  -3.508  -8.154  0.00  0.00    +0.019 C 
ATOM     10  C   UNL     1       4.352  -4.272  -8.817  0.00  0.00    +0.006 C 
ATOM     11  C   UNL     1       5.103  -5.086  -7.760  0.00  0.00    +0.003 C 
ATOM     12  C   UNL     1       5.697  -4.132  -6.713  0.00  0.00    +0.111 C 
ATOM     13  C   UNL     1       6.230  -5.875  -8.429  0.00  0.00    +0.009 C 
ENDROOT
BRANCH   1  16
ATOM     14  N   UNL     1       0.688  -0.476  -1.203  0.00  0.00    -0.271 N 
ATOM     15  C   UNL     1       1.737  -1.319  -1.234  0.00  0.00    +0.118 A 
ATOM     16  C   UNL     1       2.077  -1.507  -2.544  0.00  0.00    +0.041 A 
ATOM     17  C   UNL     1       1.190  -0.741  -3.327  0.00  0.00    +0.069 A 
ATOM     18  N   UNL     1       0.360  -0.134  -2.521  0.00  0.00    -0.176 NA
ATOM     19  C   UNL     1       1.192  -0.645  -4.831  0.00  0.00    +0.068 C 
BRANCH  14  21
ATOM     20  C   UNL     1      -0.019   1.526   0.010  0.00  0.00    +0.029 C 
ATOM     21  C   UNL     1       0.002  -0.004   0.002  0.00  0.00    +0.140 C 
ENDBRANCH  14  21
ENDBRANCH   1  16
BRANCH   3  22
ATOM     22  C   UNL     1       5.898  -4.650  -1.761  0.00  0.00    +0.434 C 
ATOM     23  F   UNL     1       5.348  -5.919  -1.550  0.00  0.00    -0.164 F 
ATOM     24  F   UNL     1       7.163  -4.781  -2.344  0.00  0.00    -0.164 F 
ATOM     25  F   UNL     1       6.015  -3.983  -0.537  0.00  0.00    -0.164 F 
ENDBRANCH   3  22
TORSDOF 3
