REMARK  Name = ZINC00805142
REMARK  5 active torsions:
REMARK  status: ('A' for Active; 'I' for Inactive)
REMARK    1  A    between atoms: C_4  and  O_25
REMARK    2  A    between atoms: C_5  and  C_7
REMARK    3  A    between atoms: N_9  and  N_10
REMARK    4  A    between atoms: C_11  and  C_12
REMARK    5  A    between atoms: C_15  and  C_17
REMARK                            x       y       z     vdW  Elec       q    Type
REMARK                         _______ _______ _______ _____ _____    ______ ____
ROOT
ATOM      1  N   UNL     1       0.049   0.008   4.876  0.00  0.00    -0.184 NA
ATOM      2  C   UNL     1       0.069  -0.656   5.996  0.00  0.00    +0.176 C 
ENDROOT
BRANCH   2   3
ATOM      3  C   UNL     1       0.071   0.062   7.272  0.00  0.00    +0.148 A 
ATOM      4  C   UNL     1       0.086  -0.514   8.524  0.00  0.00    +0.051 A 
ATOM      5  C   UNL     1       0.086   0.536   9.452  0.00  0.00    +0.050 A 
ATOM      6  C   UNL     1       0.063   1.699   8.741  0.00  0.00    +0.137 A 
ATOM      7  O   UNL     1       0.054   1.401   7.428  0.00  0.00    -0.454 OA
BRANCH   6   8
ATOM      8  C   UNL     1       0.050   3.058   9.315  0.00  0.00    +0.037 A 
ATOM      9  C   UNL     1      -0.874   3.392  10.308  0.00  0.00    +0.013 A 
ATOM     10  C   UNL     1      -0.877   4.662  10.845  0.00  0.00    +0.002 A 
ATOM     11  C   UNL     1       0.025   5.611  10.395  0.00  0.00    +0.021 A 
ATOM     12  C   UNL     1       0.940   5.290   9.406  0.00  0.00    +0.060 A 
ATOM     13  C   UNL     1       0.959   4.020   8.864  0.00  0.00    +0.070 A 
ATOM     14 CL   UNL     1       2.107   3.619   7.625  0.00  0.00    -0.081 Cl
ATOM     15 CL   UNL     1       2.068   6.487   8.849  0.00  0.00    -0.082 Cl
ENDBRANCH   6   8
ENDBRANCH   2   3
BRANCH   1  18
ATOM     16  C   UNL     1       0.026   0.008   2.496  0.00  0.00    +0.267 C 
ATOM     17  O   UNL     1       0.010   1.224   2.510  0.00  0.00    -0.268 OA
ATOM     18  N   UNL     1       0.046  -0.679   3.655  0.00  0.00    -0.203 N 
ATOM     19  H   UNL     1       0.059  -1.649   3.644  0.00  0.00    +0.178 HD
BRANCH  16  24
ATOM     20  C   UNL     1       0.040  -2.781  -0.015  0.00  0.00    +0.001 A 
ATOM     21  C   UNL     1       0.019  -2.075  -1.207  0.00  0.00    +0.004 A 
ATOM     22  C   UNL     1      -0.006  -0.694  -1.201  0.00  0.00    +0.046 A 
ATOM     23  C   UNL     1       0.002  -0.004   0.002  0.00  0.00    +0.129 A 
ATOM     24  C   UNL     1       0.023  -0.715   1.210  0.00  0.00    +0.080 A 
ATOM     25  C   UNL     1       0.042  -2.111   1.189  0.00  0.00    +0.017 A 
BRANCH  23  26
ATOM     26  O   UNL     1      -0.016   1.352   0.009  0.00  0.00    -0.506 OA
ATOM     27  H   UNL     1       0.862   1.758   0.003  0.00  0.00    +0.292 HD
ENDBRANCH  23  26
ENDBRANCH  16  24
ENDBRANCH   1  18
TORSDOF 5
