REMARK  Name = ZINC19703168
REMARK  7 active torsions:
REMARK  status: ('A' for Active; 'I' for Inactive)
REMARK    1  A    between atoms: C_1  and  C_2
REMARK    2  A    between atoms: C_17  and  C_37
REMARK    3  A    between atoms: C_22  and  C_23
REMARK    4  A    between atoms: C_22  and  O_36
REMARK    5  A    between atoms: C_23  and  N_24
REMARK    6  A    between atoms: C_25  and  C_26
REMARK    7  A    between atoms: C_28  and  N_33
REMARK                            x       y       z     vdW  Elec       q    Type
REMARK                         _______ _______ _______ _____ _____    ______ ____
ROOT
ATOM      1  C   UNL     1       3.196   2.137   0.585  0.00  0.00    +0.012 C 
ATOM      2  C   UNL     1       2.211   0.973   0.468  0.00  0.00    -0.026 C 
ATOM      3  C   UNL     1       0.797   1.469   0.776  0.00  0.00    +0.007 C 
ATOM      4  C   UNL     1       0.753   2.034   2.197  0.00  0.00    +0.001 C 
ATOM      5  C   UNL     1       1.137   0.938   3.194  0.00  0.00    +0.000 C 
ATOM      6  C   UNL     1       2.551   0.442   2.886  0.00  0.00    +0.004 C 
ATOM      7  C   UNL     1       2.596  -0.123   1.464  0.00  0.00    -0.005 C 
ATOM      8  C   UNL     1       4.011  -0.616   1.156  0.00  0.00    +0.004 C 
ATOM      9  C   UNL     1       4.056  -1.181  -0.265  0.00  0.00    +0.004 C 
ATOM     10  C   UNL     1       3.667  -0.087  -1.263  0.00  0.00    -0.004 C 
ATOM     11  C   UNL     1       2.255   0.408  -0.953  0.00  0.00    -0.001 C 
ATOM     12  C   UNL     1       1.900   1.517  -1.950  0.00  0.00    +0.005 C 
ATOM     13  C   UNL     1       1.881   0.920  -3.354  0.00  0.00    +0.010 C 
ATOM     14  C   UNL     1       3.265   0.389  -3.737  0.00  0.00    +0.001 C 
ATOM     15  C   UNL     1       3.758  -0.607  -2.677  0.00  0.00    +0.001 C 
ATOM     16  C   UNL     1       2.893  -1.861  -2.903  0.00  0.00    +0.007 C 
ATOM     17  C   UNL     1       2.770  -1.941  -4.442  0.00  0.00    +0.037 C 
ATOM     18  C   UNL     1       3.067  -0.509  -4.987  0.00  0.00    +0.089 C 
ATOM     19  C   UNL     1       4.251   1.528  -4.006  0.00  0.00    +0.014 C 
ENDROOT
BRANCH  18  20
ATOM     20  O   UNL     1       1.932  -0.067  -5.734  0.00  0.00    -0.386 OA
ATOM     21  H   UNL     1       1.756  -0.590  -6.529  0.00  0.00    +0.210 HD
ENDBRANCH  18  20
BRANCH  18  22
ATOM     22  C   UNL     1       4.321  -0.472  -5.864  0.00  0.00    +0.147 C 
BRANCH  22  23
ATOM     23  N   UNL     1       4.114  -1.311  -7.047  0.00  0.00    -0.387 N 
ATOM     24  C   UNL     1       4.183  -0.771  -8.272  0.00  0.00    +0.090 C 
ATOM     25  H   UNL     1       3.927  -2.257  -6.944  0.00  0.00    +0.159 HD
BRANCH  24  26
ATOM     26  C   UNL     1       3.502   0.417  -8.551  0.00  0.00    +0.039 A 
ATOM     27  C   UNL     1       3.058   1.257  -7.507  0.00  0.00    +0.045 A 
ATOM     28  C   UNL     1       2.397   2.409  -7.798  0.00  0.00    +0.127 A 
ATOM     29  C   UNL     1       2.144   2.788  -9.113  0.00  0.00    +0.036 A 
ATOM     30  C   UNL     1       2.546   2.024 -10.166  0.00  0.00    +0.054 A 
ATOM     31  C   UNL     1       3.240   0.824  -9.938  0.00  0.00    +0.188 A 
ATOM     32  O   UNL     1       3.612   0.129 -10.873  0.00  0.00    -0.287 OA
BRANCH  28  33
ATOM     33  N   UNL     1       1.937   3.278  -6.693  0.00  0.00    +0.056 N 
ATOM     34  O   UNL     1       2.237   3.015  -5.551  0.00  0.00    -0.126 OA
ATOM     35  O   UNL     1       1.261   4.252  -6.931  0.00  0.00    -0.126 OA
ENDBRANCH  28  33
ENDBRANCH  24  26
ENDBRANCH  22  23
ENDBRANCH  18  22
TORSDOF 5
