REMARK  Name = ZINC14274009
REMARK  9 active torsions:
REMARK  status: ('A' for Active; 'I' for Inactive)
REMARK    1  A    between atoms: C_1  and  C_2
REMARK    2  A    between atoms: C_2  and  C_3
REMARK    3  A    between atoms: C_9  and  C_11
REMARK    4  A    between atoms: C_14  and  C_17
REMARK    5  A    between atoms: C_17  and  N_18
REMARK    6  A    between atoms: N_18  and  C_19
REMARK    7  A    between atoms: C_19  and  N_21
REMARK    8  A    between atoms: C_22  and  C_24
REMARK    9  A    between atoms: C_25  and  C_26
REMARK                            x       y       z     vdW  Elec       q    Type
REMARK                         _______ _______ _______ _____ _____    ______ ____
ROOT
ATOM      1  C   UNL     1      -1.397  -7.019   5.731  0.00  0.00    +0.138 C 
ENDROOT
BRANCH   1   5
ATOM      2  C   UNL     1      -2.451  -3.449   3.625  0.00  0.00    +0.009 A 
ATOM      3  C   UNL     1      -1.125  -3.679   3.994  0.00  0.00    +0.011 A 
ATOM      4  C   UNL     1      -0.792  -4.831   4.677  0.00  0.00    +0.006 A 
ATOM      5  C   UNL     1      -1.769  -5.761   4.989  0.00  0.00    -0.030 A 
ATOM      6  C   UNL     1      -3.084  -5.540   4.622  0.00  0.00    +0.006 A 
ATOM      7  C   UNL     1      -3.430  -4.390   3.942  0.00  0.00    +0.011 A 
BRANCH   2  14
ATOM      8  C   UNL     1      -2.143   1.058   1.278  0.00  0.00    +0.155 A 
ATOM      9  N   UNL     1      -3.183   1.655   0.768  0.00  0.00    -0.132 NA
ATOM     10  N   UNL     1      -4.236   0.935   0.946  0.00  0.00    -0.120 NA
ATOM     11  C   UNL     1      -3.915  -0.148   1.586  0.00  0.00    +0.218 A 
ATOM     12  N   UNL     1      -2.563  -0.133   1.833  0.00  0.00    -0.190 N 
ATOM     13  N   UNL     1      -2.046  -1.227   2.515  0.00  0.00    -0.156 NA
ATOM     14  C   UNL     1      -2.816  -2.214   2.896  0.00  0.00    +0.132 A 
ATOM     15  S   UNL     1      -4.419  -1.688   2.312  0.00  0.00    -0.026 S 
BRANCH   8  17
ATOM     16  C   UNL     1      -0.013   1.086   0.008  0.00  0.00    +0.012 C 
ATOM     17  C   UNL     1      -0.729   1.579   1.267  0.00  0.00    +0.075 C 
ENDBRANCH   8  17
ENDBRANCH   2  14
ENDBRANCH   1   5
BRANCH   1  18
ATOM     18  N   UNL     1      -1.049  -8.068   4.769  0.00  0.00    -0.322 N 
ATOM     19  H   UNL     1      -1.083  -7.884   3.818  0.00  0.00    +0.148 HD
BRANCH  18  20
ATOM     20  C   UNL     1      -0.682  -9.288   5.207  0.00  0.00    +0.137 C 
ATOM     21  S   UNL     1      -0.623  -9.613   6.888  0.00  0.00    -0.018 S 
BRANCH  20  22
ATOM     22  N   UNL     1      -0.362 -10.254   4.323  0.00  0.00    -0.264 N 
ATOM     23  C   UNL     1       0.006 -11.474   4.761  0.00  0.00    +0.242 C 
ATOM     24  O   UNL     1       0.048 -11.704   5.955  0.00  0.00    -0.270 OA
ATOM     25  H   UNL     1      -0.395 -10.070   3.371  0.00  0.00    +0.157 HD
BRANCH  23  26
ATOM     26  C   UNL     1       0.353 -12.521   3.801  0.00  0.00    +0.068 C 
ATOM     27  C   UNL     1       0.721 -13.743   4.240  0.00  0.00    +0.013 C 
BRANCH  27  28
ATOM     28  C   UNL     1       1.071 -14.797   3.275  0.00  0.00    -0.025 A 
ATOM     29  C   UNL     1       1.018 -14.537   1.901  0.00  0.00    +0.009 A 
ATOM     30  C   UNL     1       1.352 -15.528   1.003  0.00  0.00    +0.020 A 
ATOM     31  C   UNL     1       1.729 -16.781   1.457  0.00  0.00    +0.041 A 
ATOM     32  C   UNL     1       1.778 -17.047   2.816  0.00  0.00    +0.020 A 
ATOM     33  C   UNL     1       1.452 -16.065   3.726  0.00  0.00    +0.009 A 
ATOM     34 CL   UNL     1       2.140 -18.025   0.318  0.00  0.00    -0.084 Cl
ENDBRANCH  27  28
ENDBRANCH  23  26
ENDBRANCH  20  22
ENDBRANCH  18  20
ENDBRANCH   1  18
TORSDOF 8
