REMARK  Name = ZINC60201208
REMARK  7 active torsions:
REMARK  status: ('A' for Active; 'I' for Inactive)
REMARK    1  A    between atoms: C_3  and  C_8
REMARK    2  A    between atoms: C_5  and  O_7
REMARK    3  A    between atoms: C_8  and  C_9
REMARK    4  A    between atoms: N_11  and  N_12
REMARK    5  A    between atoms: C_13  and  C_15
REMARK    6  A    between atoms: C_18  and  S_21
REMARK    7  A    between atoms: S_21  and  N_24
REMARK                            x       y       z     vdW  Elec       q    Type
REMARK                         _______ _______ _______ _____ _____    ______ ____
ROOT
ATOM      1  N   UNL     1       5.667   3.355   2.954  0.00  0.00    -0.230 N 
ATOM      2  C   UNL     1       6.805   4.036   3.193  0.00  0.00    +0.260 C 
ATOM      3  O   UNL     1       7.474   4.447   2.265  0.00  0.00    -0.269 OA
ATOM      4  H   UNL     1       5.133   3.027   3.695  0.00  0.00    +0.173 HD
ENDROOT
BRANCH   2   5
ATOM      5  C   UNL     1       7.241   4.282   4.584  0.00  0.00    +0.038 A 
ATOM      6  C   UNL     1       6.479   3.806   5.652  0.00  0.00    +0.015 A 
ATOM      7  C   UNL     1       6.891   4.038   6.948  0.00  0.00    +0.029 A 
ATOM      8  C   UNL     1       8.058   4.743   7.190  0.00  0.00    +0.106 A 
ATOM      9  C   UNL     1       8.818   5.218   6.136  0.00  0.00    +0.029 A 
ATOM     10  C   UNL     1       8.419   4.986   4.835  0.00  0.00    +0.015 A 
BRANCH   8  11
ATOM     11  S   UNL     1       8.577   5.036   8.848  0.00  0.00    +0.061 S 
ATOM     12  O   UNL     1       9.411   6.186   8.815  0.00  0.00    -0.153 OA
ATOM     13  O   UNL     1       7.412   4.963   9.658  0.00  0.00    -0.153 OA
BRANCH  11  14
ATOM     14  N   UNL     1       9.542   3.765   9.291  0.00  0.00    -0.177 NA
ATOM     15  C   UNL     1       9.081   2.518   9.919  0.00  0.00    +0.109 C 
ATOM     16  C   UNL     1      10.328   1.645  10.172  0.00  0.00    +0.018 C 
ATOM     17  C   UNL     1      11.481   2.682  10.191  0.00  0.00    +0.018 C 
ATOM     18  C   UNL     1      11.004   3.694   9.116  0.00  0.00    +0.109 C 
ENDBRANCH  11  14
ENDBRANCH   8  11
ENDBRANCH   2   5
BRANCH   1  21
ATOM     19  C   UNL     1       4.115   2.441   1.397  0.00  0.00    +0.233 C 
ATOM     20  O   UNL     1       3.449   2.030   2.323  0.00  0.00    -0.274 OA
ATOM     21  N   UNL     1       5.254   3.122   1.636  0.00  0.00    -0.234 N 
ATOM     22  H   UNL     1       5.787   3.450   0.895  0.00  0.00    +0.173 HD
BRANCH  19  23
ATOM     23  C   UNL     1       3.671   2.190  -0.021  0.00  0.00    +0.132 C 
BRANCH  23  26
ATOM     24  C   UNL     1      -0.017   1.377   0.010  0.00  0.00    +0.004 A 
ATOM     25  C   UNL     1       1.171   2.086   0.002  0.00  0.00    +0.004 A 
ATOM     26  C   UNL     1       2.379   1.415  -0.013  0.00  0.00    -0.035 A 
ATOM     27  C   UNL     1       2.403   0.033  -0.021  0.00  0.00    +0.049 A 
ATOM     28  C   UNL     1       1.214  -0.680  -0.013  0.00  0.00    +0.117 A 
ATOM     29  C   UNL     1       0.002  -0.004   0.002  0.00  0.00    +0.045 A 
BRANCH  28  30
ATOM     30  O   UNL     1       1.235  -2.039  -0.021  0.00  0.00    -0.507 OA
ATOM     31  H   UNL     1       1.249  -2.437   0.860  0.00  0.00    +0.292 HD
ENDBRANCH  28  30
ENDBRANCH  23  26
ENDBRANCH  19  23
ENDBRANCH   1  21
TORSDOF 7
