REMARK  Name = ZINC09610845
REMARK  12 active torsions:
REMARK  status: ('A' for Active; 'I' for Inactive)
REMARK    1  A    between atoms: C_1  and  C_2
REMARK    2  A    between atoms: C_7  and  S_11
REMARK    3  A    between atoms: S_11  and  N_14
REMARK    4  A    between atoms: N_14  and  C_15
REMARK    5  A    between atoms: C_15  and  C_17
REMARK    6  A    between atoms: C_15  and  C_21
REMARK    7  A    between atoms: C_17  and  C_18
REMARK    8  A    between atoms: C_18  and  C_19
REMARK    9  A    between atoms: C_18  and  C_20
REMARK   10  A    between atoms: N_26  and  C_29
REMARK   11  A    between atoms: C_33  and  O_35
REMARK   12  A    between atoms: O_35  and  C_36
REMARK                            x       y       z     vdW  Elec       q    Type
REMARK                         _______ _______ _______ _____ _____    ______ ____
ROOT
ATOM      1  C   UNL     1      -5.892   0.624   8.360  0.00  0.00    +0.162 C 
ENDROOT
BRANCH   1   2
ATOM      2  C   UNL     1      -6.401   0.797   6.952  0.00  0.00    +0.234 C 
ATOM      3  O   UNL     1      -7.571   0.597   6.701  0.00  0.00    -0.274 OA
ATOM      4  N   UNL     1      -5.557   1.175   5.972  0.00  0.00    -0.297 N 
ATOM      5  C   UNL     1      -6.004   1.237   4.572  0.00  0.00    +0.126 C 
ATOM      6  C   UNL     1      -5.009   0.455   3.708  0.00  0.00    +0.124 C 
ATOM      7  N   UNL     1      -3.652   0.961   3.949  0.00  0.00    -0.327 N 
ATOM      8  C   UNL     1      -3.241   0.743   5.343  0.00  0.00    +0.124 C 
ATOM      9  C   UNL     1      -4.163   1.537   6.274  0.00  0.00    +0.126 C 
BRANCH   7  10
ATOM     10  C   UNL     1      -2.738   0.386   3.063  0.00  0.00    +0.033 A 
ATOM     11  C   UNL     1      -3.172  -0.534   2.116  0.00  0.00    +0.023 A 
ATOM     12  C   UNL     1      -2.269  -1.102   1.239  0.00  0.00    +0.005 A 
ATOM     13  C   UNL     1      -0.933  -0.753   1.297  0.00  0.00    +0.046 A 
ATOM     14  C   UNL     1      -0.493   0.162   2.244  0.00  0.00    +0.122 A 
ATOM     15  C   UNL     1      -1.396   0.734   3.126  0.00  0.00    +0.068 A 
BRANCH  14  16
ATOM     16  O   UNL     1       0.822   0.500   2.302  0.00  0.00    -0.495 OA
ATOM     17  C   UNL     1       1.696  -0.129   1.363  0.00  0.00    +0.277 C 
ENDBRANCH  14  16
ENDBRANCH   7  10
ENDBRANCH   1   2
BRANCH   1  18
ATOM     18  N   UNL     1      -6.853  -0.167   9.132  0.00  0.00    -0.178 NA
ATOM     19  H   UNL     1      -7.603   0.270   9.566  0.00  0.00    +0.149 HD
BRANCH  18  20
ATOM     20  S   UNL     1      -6.660  -1.806   9.265  0.00  0.00    +0.059 S 
ATOM     21  O   UNL     1      -7.715  -2.274  10.094  0.00  0.00    -0.153 OA
ATOM     22  O   UNL     1      -6.450  -2.298   7.948  0.00  0.00    -0.153 OA
BRANCH  20  29
ATOM     23  C   UNL     1       0.941  -2.931  11.857  0.00  0.00    +0.073 C 
ATOM     24  C   UNL     1      -0.482  -2.725  11.404  0.00  0.00    +0.076 A 
ATOM     25  N   UNL     1      -1.568  -2.730  12.124  0.00  0.00    -0.244 NA
ATOM     26  C   UNL     1      -2.792  -2.531  11.592  0.00  0.00    +0.079 A 
ATOM     27  C   UNL     1      -4.050  -2.509  12.234  0.00  0.00    +0.031 A 
ATOM     28  C   UNL     1      -5.189  -2.291  11.523  0.00  0.00    +0.030 A 
ATOM     29  C   UNL     1      -5.162  -2.084  10.151  0.00  0.00    +0.106 A 
ATOM     30  C   UNL     1      -3.952  -2.104   9.484  0.00  0.00    +0.045 A 
ATOM     31  C   UNL     1      -2.795  -2.318  10.194  0.00  0.00    +0.041 A 
ATOM     32  S   UNL     1      -1.068  -2.423   9.798  0.00  0.00    -0.072 S 
ENDBRANCH  20  29
ENDBRANCH  18  20
ENDBRANCH   1  18
BRANCH   1  33
ATOM     33  C   UNL     1      -5.720   1.997   9.012  0.00  0.00    +0.032 C 
BRANCH  33  34
ATOM     34  C   UNL     1      -5.048   1.833  10.377  0.00  0.00    -0.015 C 
ATOM     35  C   UNL     1      -4.738   3.212  10.962  0.00  0.00    +0.007 C 
ATOM     36  C   UNL     1      -5.986   1.077  11.320  0.00  0.00    +0.007 C 
ENDBRANCH  33  34
ENDBRANCH   1  33
TORSDOF 8
