REMARK  Name = ZINC13501001
REMARK  14 active torsions:
REMARK  status: ('A' for Active; 'I' for Inactive)
REMARK    1  A    between atoms: C_1  and  C_2
REMARK    2  A    between atoms: C_2  and  C_3
REMARK    3  A    between atoms: C_3  and  C_4
REMARK    4  A    between atoms: C_4  and  C_6
REMARK    5  A    between atoms: C_4  and  N_76
REMARK    6  A    between atoms: N_10  and  C_11
REMARK    7  A    between atoms: C_11  and  C_12
REMARK    8  A    between atoms: C_18  and  C_19
REMARK    9  A    between atoms: C_18  and  N_76
REMARK   10  A    between atoms: C_19  and  C_20
REMARK   11  A    between atoms: C_24  and  C_26
REMARK   12  A    between atoms: C_27  and  C_28
REMARK   13  A    between atoms: C_27  and  N_76
REMARK   14  A    between atoms: C_32  and  C_40
REMARK                            x       y       z     vdW  Elec       q    Type
REMARK                         _______ _______ _______ _____ _____    ______ ____
ROOT
ATOM      1  N   UNL     1       3.855   5.049  -1.463  0.00  0.00    +0.389 N 
ATOM      2  H   UNL     1       4.444   4.292  -1.097  0.00  0.00    -0.080 HD
ENDROOT
BRANCH   1   3
ATOM      3  C   UNL     1       4.122   6.282  -0.692  0.00  0.00    +0.003 C 
BRANCH   3   4
ATOM      4  C   UNL     1       3.441   7.463  -1.332  0.00  0.00    +0.138 A 
ATOM      5  N   UNL     1       3.510   7.819  -2.592  0.00  0.00    -0.115 NA
ATOM      6  N   UNL     1       2.790   8.876  -2.747  0.00  0.00    -0.023 NA
ATOM      7  N   UNL     1       2.270   9.209  -1.617  0.00  0.00    -0.044 NA
ATOM      8  N   UNL     1       2.648   8.362  -0.720  0.00  0.00    -0.228 N 
BRANCH   8   9
ATOM      9  C   UNL     1       2.282   8.376   0.699  0.00  0.00    +0.178 C 
BRANCH   9  10
ATOM     10  C   UNL     1       3.306   9.200   1.482  0.00  0.00    +0.140 C 
ATOM     11  C   UNL     1       2.994   9.126   2.992  0.00  0.00    +0.035 C 
ATOM     12  C   UNL     1       3.289  10.576   3.461  0.00  0.00    +0.031 C 
ATOM     13  C   UNL     1       2.847  11.384   2.216  0.00  0.00    +0.160 C 
ATOM     14  O   UNL     1       3.224  10.576   1.090  0.00  0.00    -0.375 OA
ENDBRANCH   9  10
ENDBRANCH   8   9
ENDBRANCH   3   4
BRANCH   3  15
ATOM     15  C   UNL     1       5.633   6.522  -0.655  0.00  0.00    -0.008 C 
BRANCH  15  17
ATOM     16  C   UNL     1       7.806   5.689   0.252  0.00  0.00    +0.004 C 
ATOM     17  C   UNL     1       6.310   5.396   0.128  0.00  0.00    -0.005 C 
ENDBRANCH  15  17
ENDBRANCH   3  15
ENDBRANCH   1   3
BRANCH   1  18
ATOM     18  C   UNL     1       2.435   4.663  -1.321  0.00  0.00    -0.073 C 
BRANCH  18  19
ATOM     19  C   UNL     1       2.221   4.082   0.078  0.00  0.00    +0.016 C 
BRANCH  19  20
ATOM     20  C   UNL     1       0.780   3.672   0.237  0.00  0.00    -0.049 A 
ATOM     21  C   UNL     1       0.384   2.392  -0.103  0.00  0.00    +0.003 A 
ATOM     22  C   UNL     1      -0.937   2.015   0.044  0.00  0.00    +0.001 A 
ATOM     23  C   UNL     1      -1.865   2.920   0.524  0.00  0.00    +0.003 A 
ATOM     24  C   UNL     1      -1.469   4.199   0.868  0.00  0.00    -0.050 A 
ATOM     25  C   UNL     1      -0.146   4.576   0.723  0.00  0.00    +0.007 A 
ATOM     26  C   UNL     1      -2.479   5.184   1.397  0.00  0.00    +0.044 C 
ENDBRANCH  19  20
ENDBRANCH  18  19
ENDBRANCH   1  18
BRANCH   1  27
ATOM     27  C   UNL     1       4.180   5.265  -2.889  0.00  0.00    -0.037 C 
BRANCH  27  28
ATOM     28  C   UNL     1       4.354   3.923  -3.552  0.00  0.00    +0.001 A 
ATOM     29  C   UNL     1       3.313   3.354  -4.210  0.00  0.00    +0.017 A 
ATOM     30  C   UNL     1       3.517   2.052  -4.848  0.00  0.00    -0.001 A 
ATOM     31  C   UNL     1       2.483   1.419  -5.546  0.00  0.00    +0.013 A 
ATOM     32  C   UNL     1       2.704   0.203  -6.127  0.00  0.00    -0.050 A 
ATOM     33  C   UNL     1       3.946  -0.411  -6.031  0.00  0.00    +0.005 A 
ATOM     34  C   UNL     1       4.979   0.194  -5.348  0.00  0.00    +0.026 A 
ATOM     35  C   UNL     1       4.777   1.433  -4.749  0.00  0.00    +0.049 A 
ATOM     36  N   UNL     1       5.793   2.062  -4.061  0.00  0.00    -0.322 N 
ATOM     37  H   UNL     1       6.661   1.634  -3.993  0.00  0.00    +0.169 HD
ATOM     38  C   UNL     1       5.598   3.260  -3.482  0.00  0.00    +0.251 A 
ATOM     39  O   UNL     1       6.519   3.787  -2.882  0.00  0.00    -0.268 OA
ATOM     40  C   UNL     1       1.590  -0.480  -6.878  0.00  0.00    +0.044 C 
ENDBRANCH  27  28
ENDBRANCH   1  27
TORSDOF 11
