REMARK  Name = ZINC03664542
REMARK  10 active torsions:
REMARK  status: ('A' for Active; 'I' for Inactive)
REMARK    1  A    between atoms: C_1  and  C_2
REMARK    2  A    between atoms: C_2  and  O_3
REMARK    3  A    between atoms: O_3  and  C_4
REMARK    4  A    between atoms: C_6  and  C_19
REMARK    5  A    between atoms: C_9  and  O_10
REMARK    6  A    between atoms: O_10  and  C_11
REMARK    7  A    between atoms: C_11  and  C_12
REMARK    8  A    between atoms: N_20  and  C_21
REMARK    9  A    between atoms: C_24  and  S_27
REMARK   10  A    between atoms: S_27  and  N_30
REMARK                            x       y       z     vdW  Elec       q    Type
REMARK                         _______ _______ _______ _____ _____    ______ ____
ROOT
ATOM      1  C   UNL     1       0.615  -4.950  -0.019  0.00  0.00    +0.119 C 
ATOM      2  N   UNL     1       0.456  -6.244  -0.025  0.00  0.00    -0.255 NA
ENDROOT
BRANCH   1   5
ATOM      3  C   UNL     1      -1.498  -1.849   0.006  0.00  0.00    +0.163 A 
ATOM      4  C   UNL     1      -0.392  -2.675  -0.003  0.00  0.00    +0.058 A 
ATOM      5  C   UNL     1      -0.560  -4.064  -0.009  0.00  0.00    -0.003 A 
ATOM      6  C   UNL     1      -1.849  -4.609  -0.005  0.00  0.00    +0.013 A 
ATOM      7  C   UNL     1      -2.947  -3.777   0.004  0.00  0.00    +0.050 A 
ATOM      8  C   UNL     1      -2.779  -2.399   0.016  0.00  0.00    +0.162 A 
BRANCH   3   9
ATOM      9  O   UNL     1      -1.339  -0.499   0.012  0.00  0.00    -0.489 OA
BRANCH   9  11
ATOM     10  C   UNL     1      -0.019   1.526   0.010  0.00  0.00    +0.048 C 
ATOM     11  C   UNL     1       0.002  -0.004   0.002  0.00  0.00    +0.226 C 
ENDBRANCH   9  11
ENDBRANCH   3   9
BRANCH   8  12
ATOM     12  O   UNL     1      -3.866  -1.585   0.031  0.00  0.00    -0.484 OA
BRANCH  12  13
ATOM     13  C   UNL     1      -5.149  -2.214   0.040  0.00  0.00    +0.264 C 
BRANCH  13  14
ATOM     14  C   UNL     1      -6.226  -1.160   0.056  0.00  0.00    -0.009 A 
ATOM     15  C   UNL     1      -6.704  -0.680   1.261  0.00  0.00    +0.007 A 
ATOM     16  C   UNL     1      -7.692   0.287   1.277  0.00  0.00    +0.002 A 
ATOM     17  C   UNL     1      -8.203   0.773   0.088  0.00  0.00    +0.020 A 
ATOM     18  C   UNL     1      -7.724   0.293  -1.118  0.00  0.00    +0.041 A 
ATOM     19  C   UNL     1      -6.731  -0.670  -1.133  0.00  0.00    +0.027 A 
ATOM     20 CL   UNL     1      -8.365   0.903  -2.611  0.00  0.00    -0.084 Cl
ENDBRANCH  13  14
ENDBRANCH  12  13
ENDBRANCH   8  12
ENDBRANCH   1   5
BRANCH   2  21
ATOM     21  C   UNL     1       1.549  -7.067  -0.034  0.00  0.00    +0.064 A 
ATOM     22  C   UNL     1       2.621  -6.800  -0.888  0.00  0.00    +0.029 A 
ATOM     23  C   UNL     1       3.719  -7.635  -0.893  0.00  0.00    +0.031 A 
ATOM     24  C   UNL     1       3.760  -8.734  -0.054  0.00  0.00    +0.109 A 
ATOM     25  C   UNL     1       2.701  -9.005   0.795  0.00  0.00    +0.031 A 
ATOM     26  C   UNL     1       1.599  -8.176   0.814  0.00  0.00    +0.029 A 
BRANCH  24  27
ATOM     27  S   UNL     1       5.167  -9.796  -0.068  0.00  0.00    +0.073 S 
ATOM     28  O   UNL     1       4.727 -11.058   0.413  0.00  0.00    -0.150 OA
ATOM     29  O   UNL     1       5.783  -9.637  -1.338  0.00  0.00    -0.150 OA
BRANCH  27  30
ATOM     30  N   UNL     1       6.234  -9.207   1.054  0.00  0.00    -0.199 N 
ATOM     31  C   UNL     1       5.896  -9.207   2.402  0.00  0.00    +0.138 A 
ATOM     32  C   UNL     1       6.795  -8.706   3.338  0.00  0.00    +0.045 A 
ATOM     33  C   UNL     1       6.446  -8.711   4.676  0.00  0.00    +0.005 A 
ATOM     34  C   UNL     1       5.204  -9.219   5.035  0.00  0.00    +0.020 A 
ATOM     35  C   UNL     1       4.361  -9.700   4.053  0.00  0.00    +0.113 A 
ATOM     36  N   UNL     1       4.719  -9.678   2.783  0.00  0.00    -0.239 NA
ATOM     37  H   UNL     1       7.095  -8.864   0.769  0.00  0.00    +0.175 HD
ENDBRANCH  27  30
ENDBRANCH  24  27
ENDBRANCH   2  21
TORSDOF 9
