REMARK  Name = ZINC64479949
REMARK  13 active torsions:
REMARK  status: ('A' for Active; 'I' for Inactive)
REMARK    1  A    between atoms: C_1  and  C_2
REMARK    2  A    between atoms: C_2  and  C_3
REMARK    3  A    between atoms: C_3  and  C_4
REMARK    4  A    between atoms: C_3  and  C_6
REMARK    5  A    between atoms: C_4  and  C_5
REMARK    6  A    between atoms: C_6  and  N_8
REMARK    7  A    between atoms: N_10  and  C_11
REMARK    8  A    between atoms: C_11  and  C_12
REMARK    9  A    between atoms: C_12  and  C_13
REMARK   10  A    between atoms: C_16  and  O_22
REMARK   11  A    between atoms: O_22  and  C_23
REMARK   12  A    between atoms: C_27  and  C_32
REMARK   13  A    between atoms: C_29  and  C_31
REMARK                            x       y       z     vdW  Elec       q    Type
REMARK                         _______ _______ _______ _____ _____    ______ ____
ROOT
ATOM      1  N   UNL     1      -1.106  -1.842   1.527  0.00  0.00    -0.147 NA
ATOM      2  C   UNL     1      -1.087  -3.166   1.603  0.00  0.00    +0.196 C 
ATOM      3  N   UNL     1      -1.553  -3.914   0.564  0.00  0.00    -0.357 N 
ATOM      4  N   UNL     1      -0.602  -3.779   2.723  0.00  0.00    -0.297 N 
ATOM      5  C   UNL     1      -0.227  -3.020   3.823  0.00  0.00    +0.231 A 
ATOM      6  N   UNL     1      -0.256  -1.699   3.737  0.00  0.00    -0.217 NA
ATOM      7  C   UNL     1       0.094  -0.946   4.766  0.00  0.00    +0.044 A 
ATOM      8  C   UNL     1       0.494  -1.556   5.945  0.00  0.00    +0.046 A 
ATOM      9  C   UNL     1       0.513  -2.941   6.001  0.00  0.00    +0.044 A 
ATOM     10  N   UNL     1       0.146  -3.634   4.936  0.00  0.00    -0.217 NA
ATOM     11  C   UNL     1       0.942  -3.648   7.261  0.00  0.00    +0.066 C 
ATOM     12  C   UNL     1       0.059   0.557   4.659  0.00  0.00    +0.066 C 
ATOM     13  H   UNL     1      -0.518  -4.745   2.749  0.00  0.00    +0.171 HD
ATOM     14  H   UNL     1      -1.815  -3.483  -0.264  0.00  0.00    +0.162 HD
ENDROOT
BRANCH   1  15
ATOM     15  C   UNL     1      -1.768  -1.240   0.541  0.00  0.00    +0.242 C 
ATOM     16  O   UNL     1      -2.445  -1.898  -0.226  0.00  0.00    -0.273 OA
BRANCH  15  17
ATOM     17  C   UNL     1      -1.679   0.255   0.374  0.00  0.00    +0.077 C 
BRANCH  17  19
ATOM     18  C   UNL     1      -0.108   2.180   0.114  0.00  0.00    +0.004 C 
ATOM     19  C   UNL     1      -0.221   0.655   0.139  0.00  0.00    +0.009 C 
ENDBRANCH  17  19
BRANCH  17  20
ATOM     20  C   UNL     1      -2.526   0.686  -0.824  0.00  0.00    +0.009 C 
ATOM     21  C   UNL     1      -4.004   0.428  -0.523  0.00  0.00    +0.004 C 
ENDBRANCH  17  20
ENDBRANCH  15  17
ENDBRANCH   1  15
BRANCH   3  22
ATOM     22  C   UNL     1      -1.657  -5.369   0.698  0.00  0.00    +0.120 C 
BRANCH  22  23
ATOM     23  C   UNL     1      -2.086  -5.975  -0.639  0.00  0.00    +0.054 C 
BRANCH  23  24
ATOM     24  C   UNL     1      -2.311  -7.456  -0.471  0.00  0.00    -0.040 C 
ATOM     25  C   UNL     1      -3.490  -8.077  -0.241  0.00  0.00    +0.002 A 
ATOM     26  C   UNL     1      -4.862  -7.583  -0.085  0.00  0.00    +0.055 A 
ATOM     27  C   UNL     1      -5.867  -8.463   0.143  0.00  0.00    +0.121 A 
ATOM     28  C   UNL     1      -5.644  -9.848   0.237  0.00  0.00    +0.047 A 
ATOM     29  C   UNL     1      -4.418 -10.398   0.108  0.00  0.00    +0.029 A 
ATOM     30  C   UNL     1      -3.257  -9.537  -0.142  0.00  0.00    +0.043 A 
ATOM     31  N   UNL     1      -1.986  -9.806  -0.303  0.00  0.00    -0.380 N 
ATOM     32  C   UNL     1      -1.266  -8.547  -0.530  0.00  0.00    +0.144 C 
ATOM     33  H   UNL     1      -1.587 -10.690  -0.280  0.00  0.00    +0.160 HD
BRANCH  27  34
ATOM     34  O   UNL     1      -7.133  -7.990   0.286  0.00  0.00    -0.495 OA
ATOM     35  C   UNL     1      -8.161  -8.954   0.525  0.00  0.00    +0.277 C 
ENDBRANCH  27  34
ENDBRANCH  23  24
ENDBRANCH  22  23
ENDBRANCH   3  22
TORSDOF 8
