REMARK  Name = ZINC58005081
REMARK  10 active torsions:
REMARK  status: ('A' for Active; 'I' for Inactive)
REMARK    1  A    between atoms: C_1  and  C_2
REMARK    2  A    between atoms: C_5  and  O_32
REMARK    3  A    between atoms: C_6  and  C_8
REMARK    4  A    between atoms: C_8  and  C_10
REMARK    5  A    between atoms: C_8  and  N_11
REMARK    6  A    between atoms: C_12  and  C_14
REMARK    7  A    between atoms: C_15  and  C_23
REMARK    8  A    between atoms: C_23  and  S_24
REMARK    9  A    between atoms: S_24  and  C_25
REMARK   10  A    between atoms: O_32  and  C_33
REMARK                            x       y       z     vdW  Elec       q    Type
REMARK                         _______ _______ _______ _____ _____    ______ ____
ROOT
ATOM      1  C   UNL     1      -1.682  -1.764   5.689  0.00  0.00    +0.194 A 
ATOM      2  C   UNL     1      -2.261  -2.237   6.823  0.00  0.00    +0.021 A 
ATOM      3  C   UNL     1      -2.704  -1.062   7.573  0.00  0.00    +0.025 A 
ATOM      4  C   UNL     1      -3.355  -0.876   8.795  0.00  0.00    +0.012 A 
ATOM      5  C   UNL     1      -3.634   0.390   9.227  0.00  0.00    +0.001 A 
ATOM      6  C   UNL     1      -3.275   1.490   8.460  0.00  0.00    +0.004 A 
ATOM      7  C   UNL     1      -2.632   1.327   7.253  0.00  0.00    +0.047 A 
ATOM      8  C   UNL     1      -2.337   0.049   6.792  0.00  0.00    +0.136 A 
ATOM      9  O   UNL     1      -1.727  -0.415   5.684  0.00  0.00    -0.450 OA
ENDROOT
BRANCH   1  11
ATOM     10  N   UNL     1      -0.537  -2.013   3.548  0.00  0.00    -0.302 N 
ATOM     11  C   UNL     1      -1.091  -2.594   4.631  0.00  0.00    +0.280 C 
ATOM     12  O   UNL     1      -1.101  -3.806   4.732  0.00  0.00    -0.267 OA
ATOM     13  H   UNL     1      -0.529  -1.046   3.468  0.00  0.00    +0.150 HD
BRANCH  10  14
ATOM     14  C   UNL     1       0.052  -2.841   2.493  0.00  0.00    +0.104 C 
ATOM     15  C   UNL     1       1.496  -3.187   2.864  0.00  0.00    +0.033 C 
BRANCH  14  21
ATOM     16  C   UNL     1      -0.018   1.503   0.010  0.00  0.00    +0.044 C 
ATOM     17  C   UNL     1       0.002  -0.004   0.002  0.00  0.00    -0.050 A 
ATOM     18  C   UNL     1       0.006  -0.688  -1.200  0.00  0.00    +0.007 A 
ATOM     19  C   UNL     1       0.024  -2.069  -1.210  0.00  0.00    +0.046 A 
ATOM     20  C   UNL     1       0.039  -2.770  -0.013  0.00  0.00    +0.125 A 
ATOM     21  C   UNL     1       0.036  -2.082   1.191  0.00  0.00    +0.014 A 
ATOM     22  C   UNL     1       0.023  -0.701   1.196  0.00  0.00    +0.012 A 
BRANCH  20  23
ATOM     23  O   UNL     1       0.057  -4.129  -0.021  0.00  0.00    -0.495 OA
ATOM     24  C   UNL     1       0.058  -4.771  -1.298  0.00  0.00    +0.277 C 
ENDBRANCH  20  23
ENDBRANCH  14  21
ENDBRANCH  10  14
ENDBRANCH   1  11
BRANCH   2  25
ATOM     25  C   UNL     1      -2.416  -3.681   7.226  0.00  0.00    +0.117 C 
BRANCH  25  26
ATOM     26  S   UNL     1      -0.966  -4.200   8.185  0.00  0.00    -0.083 S 
BRANCH  26  27
ATOM     27  C   UNL     1      -1.294  -5.886   8.576  0.00  0.00    +0.169 A 
ATOM     28  N   UNL     1      -2.413  -6.444   8.153  0.00  0.00    -0.232 NA
ATOM     29  C   UNL     1      -2.699  -7.714   8.426  0.00  0.00    +0.119 A 
ATOM     30  C   UNL     1      -1.829  -8.470   9.158  0.00  0.00    +0.090 A 
ATOM     31  C   UNL     1      -0.635  -7.884   9.613  0.00  0.00    +0.252 A 
ATOM     32  N   UNL     1      -0.387  -6.593   9.306  0.00  0.00    -0.302 N 
ATOM     33  O   UNL     1       0.164  -8.531  10.270  0.00  0.00    -0.268 OA
ATOM     34  H   UNL     1       0.432  -6.170   9.606  0.00  0.00    +0.171 HD
ENDBRANCH  26  27
ENDBRANCH  25  26
ENDBRANCH   2  25
TORSDOF 7
