REMARK  Name = ZINC54398566
REMARK  11 active torsions:
REMARK  status: ('A' for Active; 'I' for Inactive)
REMARK    1  A    between atoms: C_1  and  N_2
REMARK    2  A    between atoms: N_2  and  C_3
REMARK    3  A    between atoms: N_2  and  C_4
REMARK    4  A    between atoms: C_4  and  C_5
REMARK    5  A    between atoms: C_10  and  C_11
REMARK    6  A    between atoms: C_11  and  N_12
REMARK    7  A    between atoms: N_15  and  C_16
REMARK    8  A    between atoms: C_16  and  C_17
REMARK    9  A    between atoms: C_17  and  C_18
REMARK   10  A    between atoms: C_21  and  S_24
REMARK   11  A    between atoms: S_24  and  N_27
REMARK                            x       y       z     vdW  Elec       q    Type
REMARK                         _______ _______ _______ _____ _____    ______ ____
ROOT
ATOM      1  N   UNL     1       2.469  -3.139  -0.530  0.00  0.00    -0.295 N 
ATOM      2  C   UNL     1       2.070  -4.335  -0.054  0.00  0.00    +0.300 C 
ATOM      3  O   UNL     1       1.800  -4.461   1.125  0.00  0.00    -0.253 OA
ATOM      4  N   UNL     1       1.970  -5.391  -0.885  0.00  0.00    -0.299 N 
ATOM      5  H   UNL     1       2.685  -3.038  -1.470  0.00  0.00    +0.151 HD
ATOM      6  H   UNL     1       2.186  -5.291  -1.826  0.00  0.00    +0.150 HD
ENDROOT
BRANCH   1   7
ATOM      7  C   UNL     1       2.578  -1.990   0.373  0.00  0.00    +0.141 C 
BRANCH   7  13
ATOM      8  C   UNL     1       2.137  -0.060  -1.158  0.00  0.00    -0.059 A 
ATOM      9  C   UNL     1       2.560   1.051  -1.864  0.00  0.00    +0.002 A 
ATOM     10  C   UNL     1       3.887   1.434  -1.820  0.00  0.00    +0.000 A 
ATOM     11  C   UNL     1       4.791   0.708  -1.068  0.00  0.00    +0.000 A 
ATOM     12  C   UNL     1       4.368  -0.402  -0.361  0.00  0.00    +0.005 A 
ATOM     13  C   UNL     1       3.040  -0.783  -0.402  0.00  0.00    -0.029 A 
BRANCH   8  14
ATOM     14  C   UNL     1       0.690  -0.478  -1.207  0.00  0.00    -0.043 C 
BRANCH  14  16
ATOM     15  C   UNL     1      -0.018   1.465   0.010  0.00  0.00    -0.096 C 
ATOM     16  N   UNL     1       0.002  -0.004   0.002  0.00  0.00    +0.379 N 
ATOM     17  C   UNL     1      -1.376  -0.512   0.012  0.00  0.00    -0.096 C 
ATOM     18  H   UNL     1       0.490  -0.338   0.820  0.00  0.00    -0.082 HD
ENDBRANCH  14  16
ENDBRANCH   8  14
ENDBRANCH   7  13
ENDBRANCH   1   7
BRANCH   4  19
ATOM     19  C   UNL     1       1.537  -6.691  -0.368  0.00  0.00    +0.110 C 
BRANCH  19  20
ATOM     20  C   UNL     1       1.509  -7.710  -1.509  0.00  0.00    +0.054 C 
BRANCH  20  21
ATOM     21  C   UNL     1       1.063  -9.048  -0.977  0.00  0.00    -0.046 A 
ATOM     22  C   UNL     1       1.997  -9.948  -0.498  0.00  0.00    +0.005 A 
ATOM     23  C   UNL     1       1.587 -11.175  -0.010  0.00  0.00    +0.029 A 
ATOM     24  C   UNL     1       0.244 -11.502  -0.000  0.00  0.00    +0.105 A 
ATOM     25  C   UNL     1      -0.690 -10.602  -0.479  0.00  0.00    +0.029 A 
ATOM     26  C   UNL     1      -0.281  -9.373  -0.963  0.00  0.00    +0.005 A 
BRANCH  24  27
ATOM     27  S   UNL     1      -0.277 -13.066   0.621  0.00  0.00    +0.056 S 
ATOM     28  O   UNL     1      -1.532 -13.345   0.016  0.00  0.00    -0.153 OA
ATOM     29  O   UNL     1       0.836 -13.941   0.503  0.00  0.00    -0.153 OA
BRANCH  27  30
ATOM     30  N   UNL     1      -0.564 -12.879   2.241  0.00  0.00    -0.204 NA
ATOM     31  H   UNL     1      -0.432 -12.014   2.660  0.00  0.00    +0.144 HD
ATOM     32  H   UNL     1      -0.863 -13.634   2.771  0.00  0.00    +0.144 HD
ENDBRANCH  27  30
ENDBRANCH  24  27
ENDBRANCH  20  21
ENDBRANCH  19  20
ENDBRANCH   4  19
TORSDOF 9
