REMARK  Name = ZINC12802128
REMARK  8 active torsions:
REMARK  status: ('A' for Active; 'I' for Inactive)
REMARK    1  A    between atoms: C_1  and  C_2
REMARK    2  A    between atoms: C_5  and  O_9
REMARK    3  A    between atoms: C_7  and  C_8
REMARK    4  A    between atoms: O_9  and  C_10
REMARK    5  A    between atoms: C_10  and  C_11
REMARK    6  A    between atoms: N_13  and  N_14
REMARK    7  A    between atoms: N_14  and  S_15
REMARK    8  A    between atoms: S_15  and  C_18
REMARK                            x       y       z     vdW  Elec       q    Type
REMARK                         _______ _______ _______ _____ _____    ______ ____
ROOT
ATOM      1  C   UNL     1       5.555   0.871  -3.145  0.00  0.00    +0.265 C 
ATOM      2  O   UNL     1       6.580   0.233  -3.026  0.00  0.00    -0.271 OA
ATOM      3  N   UNL     1       4.449   0.502  -2.469  0.00  0.00    -0.229 N 
ATOM      4  H   UNL     1       3.630   1.012  -2.565  0.00  0.00    +0.171 HD
ENDROOT
BRANCH   3   5
ATOM      5  N   UNL     1       4.483  -0.617  -1.627  0.00  0.00    -0.107 NA
ATOM      6  H   UNL     1       4.770  -1.476  -1.974  0.00  0.00    +0.172 HD
BRANCH   5   7
ATOM      7  S   UNL     1       4.034  -0.474  -0.040  0.00  0.00    +0.080 S 
ATOM      8  O   UNL     1       4.814   0.579   0.509  0.00  0.00    -0.151 OA
ATOM      9  O   UNL     1       4.036  -1.787   0.503  0.00  0.00    -0.151 OA
BRANCH   7  10
ATOM     10  C   UNL     1       2.360   0.076  -0.020  0.00  0.00    +0.145 A 
ATOM     11  C   UNL     1       1.220  -0.657  -0.013  0.00  0.00    +0.037 A 
ATOM     12  C   UNL     1       0.002  -0.004   0.002  0.00  0.00    +0.025 A 
ATOM     13  C   UNL     1      -0.016   1.352   0.009  0.00  0.00    +0.057 A 
ATOM     14  S   UNL     1       1.725   1.745  -0.005  0.00  0.00    -0.062 S 
ATOM     15 BR   UNL     1      -1.501   2.523   0.023  0.00  0.00    -0.043 Br
ENDBRANCH   7  10
ENDBRANCH   5   7
ENDBRANCH   3   5
BRANCH   1  16
ATOM     16  C   UNL     1       5.518   2.075  -4.051  0.00  0.00    +0.325 C 
BRANCH  16  17
ATOM     17  O   UNL     1       6.802   2.259  -4.651  0.00  0.00    -0.483 OA
BRANCH  17  22
ATOM     18  C   UNL     1       7.376   6.613  -8.177  0.00  0.00    +0.044 C 
ATOM     19  C   UNL     1       7.223   5.448  -7.233  0.00  0.00    -0.047 A 
ATOM     20  C   UNL     1       6.006   5.213  -6.619  0.00  0.00    +0.007 A 
ATOM     21  C   UNL     1       5.861   4.143  -5.758  0.00  0.00    +0.046 A 
ATOM     22  C   UNL     1       6.941   3.310  -5.501  0.00  0.00    +0.121 A 
ATOM     23  C   UNL     1       8.160   3.547  -6.119  0.00  0.00    +0.049 A 
ATOM     24  C   UNL     1       8.298   4.616  -6.983  0.00  0.00    -0.044 A 
ATOM     25  C   UNL     1       9.622   4.876  -7.654  0.00  0.00    +0.044 C 
ENDBRANCH  17  22
ENDBRANCH  16  17
ENDBRANCH   1  16
TORSDOF 6
