REMARK  Name = ZINC49074608
REMARK  7 active torsions:
REMARK  status: ('A' for Active; 'I' for Inactive)
REMARK    1  A    between atoms: C_1  and  C_2
REMARK    2  A    between atoms: C_2  and  C_4
REMARK    3  A    between atoms: C_2  and  N_10
REMARK    4  A    between atoms: C_4  and  N_5
REMARK    5  A    between atoms: N_10  and  S_11
REMARK    6  A    between atoms: S_11  and  C_14
REMARK    7  A    between atoms: C_15  and  N_22
REMARK                            x       y       z     vdW  Elec       q    Type
REMARK                         _______ _______ _______ _____ _____    ______ ____
ROOT
ATOM      1  S   UNL     1       3.294  -1.228   1.052  0.00  0.00    +0.062 S 
ATOM      2  O   UNL     1       4.098  -1.591   2.166  0.00  0.00    -0.153 OA
ATOM      3  O   UNL     1       3.380  -1.895  -0.199  0.00  0.00    -0.153 OA
ENDROOT
BRANCH   1   4
ATOM      4  C   UNL     1       3.612   0.476   0.737  0.00  0.00    +0.140 A 
ATOM      5  C   UNL     1       3.496   0.978  -0.554  0.00  0.00    +0.053 A 
ATOM      6  C   UNL     1       3.746   2.322  -0.798  0.00  0.00    +0.040 A 
ATOM      7  C   UNL     1       4.110   3.156   0.242  0.00  0.00    +0.021 A 
ATOM      8  C   UNL     1       4.226   2.654   1.526  0.00  0.00    +0.032 A 
ATOM      9  C   UNL     1       3.971   1.316   1.773  0.00  0.00    +0.047 A 
ATOM     10 BR   UNL     1       4.122   0.636   3.531  0.00  0.00    -0.048 Br
ATOM     11 BR   UNL     1       4.452   4.986  -0.090  0.00  0.00    -0.050 Br
BRANCH   5  12
ATOM     12  N   UNL     1       3.128   0.132  -1.603  0.00  0.00    -0.356 N 
ATOM     13  H   UNL     1       2.592  -0.656  -1.425  0.00  0.00    +0.142 HD
ATOM     14  H   UNL     1       3.409   0.334  -2.509  0.00  0.00    +0.142 HD
ENDBRANCH   5  12
ENDBRANCH   1   4
BRANCH   1  15
ATOM     15  N   UNL     1       1.718  -1.349   1.546  0.00  0.00    -0.185 NA
ATOM     16  H   UNL     1       1.514  -1.643   2.447  0.00  0.00    +0.148 HD
BRANCH  15  18
ATOM     17  C   UNL     1       0.208   0.441   0.842  0.00  0.00    +0.027 C 
ATOM     18  C   UNL     1       0.633  -1.012   0.621  0.00  0.00    +0.095 C 
BRANCH  18  19
ATOM     19  C   UNL     1      -0.559  -1.937   0.876  0.00  0.00    +0.163 C 
BRANCH  19  20
ATOM     20  N   UNL     1      -0.186  -3.316   0.551  0.00  0.00    -0.270 N 
ATOM     21  C   UNL     1      -0.287  -4.380   1.373  0.00  0.00    +0.108 A 
ATOM     22  C   UNL     1       0.158  -5.466   0.699  0.00  0.00    +0.041 A 
ATOM     23  C   UNL     1       0.543  -5.050  -0.580  0.00  0.00    +0.134 A 
ATOM     24  N   UNL     1       0.332  -3.762  -0.672  0.00  0.00    -0.180 NA
ENDBRANCH  19  20
ENDBRANCH  18  19
ENDBRANCH  15  18
ENDBRANCH   1  15
TORSDOF 6
