REMARK  Name = ZINC40783828
REMARK  7 active torsions:
REMARK  status: ('A' for Active; 'I' for Inactive)
REMARK    1  A    between atoms: C_1  and  C_2
REMARK    2  A    between atoms: C_5  and  C_8
REMARK    3  A    between atoms: C_8  and  N_9
REMARK    4  A    between atoms: C_11  and  N_28
REMARK    5  A    between atoms: C_12  and  N_16
REMARK    6  A    between atoms: N_16  and  C_17
REMARK    7  A    between atoms: C_25  and  C_27
REMARK                            x       y       z     vdW  Elec       q    Type
REMARK                         _______ _______ _______ _____ _____    ______ ____
ROOT
ATOM      1  N   UNL     1       1.487  -4.805  -0.886  0.00  0.00    -0.323 N 
ATOM      2  C   UNL     1       1.747  -6.150  -0.652  0.00  0.00    +0.145 A 
ATOM      3  C   UNL     1       3.057  -6.599  -0.474  0.00  0.00    +0.105 A 
ATOM      4  C   UNL     1       3.262  -7.960  -0.241  0.00  0.00    +0.149 A 
ATOM      5  N   UNL     1       2.208  -8.772  -0.199  0.00  0.00    -0.219 NA
ATOM      6  C   UNL     1       0.988  -8.308  -0.372  0.00  0.00    +0.225 A 
ATOM      7  N   UNL     1       0.750  -7.029  -0.589  0.00  0.00    -0.219 NA
ATOM      8  H   UNL     1       2.219  -4.170  -0.930  0.00  0.00    +0.148 HD
ENDROOT
BRANCH   3   9
ATOM      9  N   UNL     1       4.139  -5.706  -0.527  0.00  0.00    -0.353 N 
ATOM     10  H   UNL     1       3.982  -4.762  -0.690  0.00  0.00    +0.143 HD
ATOM     11  H   UNL     1       5.044  -6.032  -0.401  0.00  0.00    +0.143 HD
ENDBRANCH   3   9
BRANCH   4  12
ATOM     12  N   UNL     1       4.546  -8.459  -0.058  0.00  0.00    -0.297 N 
ATOM     13  H   UNL     1       5.299  -7.851   0.003  0.00  0.00    +0.154 HD
BRANCH  12  14
ATOM     14  C   UNL     1       4.752  -9.833   0.039  0.00  0.00    +0.042 A 
ATOM     15  C   UNL     1       3.867 -10.713  -0.551  0.00  0.00    +0.024 A 
ATOM     16  C   UNL     1       4.067 -12.087  -0.458  0.00  0.00    +0.004 A 
ATOM     17  C   UNL     1       5.135 -12.600   0.214  0.00  0.00    +0.026 A 
ATOM     18  C   UNL     1       6.060 -11.740   0.828  0.00  0.00    +0.048 A 
ATOM     19  C   UNL     1       5.869 -10.339   0.736  0.00  0.00    +0.020 A 
ATOM     20  C   UNL     1       6.799  -9.482   1.348  0.00  0.00    +0.013 A 
ATOM     21  C   UNL     1       7.858 -10.042   2.006  0.00  0.00    +0.021 A 
ATOM     22  C   UNL     1       7.990 -11.427   2.056  0.00  0.00    +0.013 A 
ATOM     23  N   UNL     1       7.115 -12.225   1.493  0.00  0.00    -0.358 N 
ATOM     24  C   UNL     1       9.165 -12.026   2.786  0.00  0.00    +0.063 C 
ATOM     25  H   UNL     1       7.241 -13.185   1.549  0.00  0.00    +0.166 HD
ENDBRANCH  12  14
ENDBRANCH   4  12
BRANCH   1  26
ATOM     26  C   UNL     1       0.108  -4.346  -1.065  0.00  0.00    +0.138 C 
BRANCH  26  31
ATOM     27  C   UNL     1       0.077   1.361  -1.974  0.00  0.00    +0.044 C 
ATOM     28  C   UNL     1       0.086  -0.127  -1.737  0.00  0.00    -0.050 A 
ATOM     29  C   UNL     1       0.181  -0.997  -2.807  0.00  0.00    +0.003 A 
ATOM     30  C   UNL     1       0.188  -2.362  -2.590  0.00  0.00    +0.005 A 
ATOM     31  C   UNL     1       0.101  -2.857  -1.302  0.00  0.00    -0.030 A 
ATOM     32  C   UNL     1       0.006  -1.987  -0.232  0.00  0.00    +0.005 A 
ATOM     33  C   UNL     1       0.003  -0.622  -0.449  0.00  0.00    +0.003 A 
ENDBRANCH  26  31
ENDBRANCH   1  26
TORSDOF 5
