REMARK  Name = ZINC09309702
REMARK  5 active torsions:
REMARK  status: ('A' for Active; 'I' for Inactive)
REMARK    1  A    between atoms: C_1  and  C_2
REMARK    2  A    between atoms: C_2  and  O_3
REMARK    3  A    between atoms: O_3  and  C_4
REMARK    4  A    between atoms: C_9  and  C_10
REMARK    5  A    between atoms: C_28  and  C_30
REMARK                            x       y       z     vdW  Elec       q    Type
REMARK                         _______ _______ _______ _____ _____    ______ ____
ROOT
ATOM      1  C   UNL     1       2.055  -1.434   3.442  0.00  0.00    +0.238 C 
ATOM      2  C   UNL     1       0.970  -0.950   4.358  0.00  0.00    +0.027 C 
ATOM      3  C   UNL     1       0.656  -1.637   5.475  0.00  0.00    +0.083 C 
ATOM      4  C   UNL     1       1.430  -2.872   5.760  0.00  0.00    +0.044 A 
ATOM      5  C   UNL     1       0.986  -3.811   6.680  0.00  0.00    +0.033 A 
ATOM      6  C   UNL     1       1.738  -4.947   6.913  0.00  0.00    +0.042 A 
ATOM      7  C   UNL     1       2.927  -5.147   6.232  0.00  0.00    +0.023 A 
ATOM      8  C   UNL     1       3.376  -4.216   5.314  0.00  0.00    +0.048 A 
ATOM      9  C   UNL     1       2.634  -3.073   5.072  0.00  0.00    +0.131 A 
ATOM     10  O   UNL     1       3.051  -2.141   4.184  0.00  0.00    -0.479 OA
ATOM     11 CL   UNL     1       1.190  -6.127   8.062  0.00  0.00    -0.084 Cl
ATOM     12  N   UNL     1      -0.326  -1.219   6.312  0.00  0.00    -0.213 NA
ATOM     13  C   UNL     1      -1.043  -0.135   6.129  0.00  0.00    +0.237 C 
ATOM     14  N   UNL     1      -2.041   0.419   6.852  0.00  0.00    -0.205 NA
ATOM     15  C   UNL     1      -2.461   1.515   6.281  0.00  0.00    +0.203 C 
ATOM     16  N   UNL     1      -1.750   1.734   5.141  0.00  0.00    -0.251 N 
ATOM     17  N   UNL     1      -0.839   0.681   5.034  0.00  0.00    -0.208 N 
ATOM     18  C   UNL     1       0.198   0.317   4.061  0.00  0.00    +0.160 C 
ATOM     19  H   UNL     1      -1.855   2.475   4.524  0.00  0.00    +0.171 HD
ENDROOT
BRANCH   1  25
ATOM     20  C   UNL     1       0.902  -1.827   1.250  0.00  0.00    +0.127 A 
ATOM     21  C   UNL     1       0.360  -2.676   0.296  0.00  0.00    +0.046 A 
ATOM     22  C   UNL     1       0.372  -4.042   0.502  0.00  0.00    +0.004 A 
ATOM     23  C   UNL     1       0.924  -4.563   1.657  0.00  0.00    +0.001 A 
ATOM     24  C   UNL     1       1.465  -3.719   2.610  0.00  0.00    +0.011 A 
ATOM     25  C   UNL     1       1.460  -2.353   2.406  0.00  0.00    +0.039 A 
BRANCH  20  26
ATOM     26  O   UNL     1       0.892  -0.483   1.050  0.00  0.00    -0.492 OA
BRANCH  26  28
ATOM     27  C   UNL     1       0.381   1.515  -0.210  0.00  0.00    +0.048 C 
ATOM     28  C   UNL     1       0.301  -0.012  -0.163  0.00  0.00    +0.225 C 
ENDBRANCH  26  28
ENDBRANCH  20  26
ENDBRANCH   1  25
BRANCH  18  29
ATOM     29  C   UNL     1       1.180   1.456   3.972  0.00  0.00    -0.003 A 
ATOM     30  C   UNL     1       1.600   1.926   2.736  0.00  0.00    +0.009 A 
ATOM     31  C   UNL     1       2.505   2.976   2.703  0.00  0.00    +0.020 A 
ATOM     32  C   UNL     1       2.954   3.516   3.893  0.00  0.00    +0.111 A 
ATOM     33  N   UNL     1       2.533   3.044   5.050  0.00  0.00    -0.263 NA
ATOM     34  C   UNL     1       1.669   2.050   5.120  0.00  0.00    +0.116 A 
ENDBRANCH  18  29
TORSDOF 4
