REMARK  Name = ZINC10000284
REMARK  12 active torsions:
REMARK  status: ('A' for Active; 'I' for Inactive)
REMARK    1  A    between atoms: C_1  and  C_2
REMARK    2  A    between atoms: C_2  and  C_3
REMARK    3  A    between atoms: C_2  and  C_4
REMARK    4  A    between atoms: C_4  and  C_6
REMARK    5  A    between atoms: C_4  and  N_22
REMARK    6  A    between atoms: N_8  and  N_9
REMARK    7  A    between atoms: C_10  and  C_11
REMARK    8  A    between atoms: C_13  and  O_20
REMARK    9  A    between atoms: C_14  and  O_18
REMARK   10  A    between atoms: O_18  and  C_19
REMARK   11  A    between atoms: O_20  and  C_21
REMARK   12  A    between atoms: C_23  and  C_25
REMARK                            x       y       z     vdW  Elec       q    Type
REMARK                         _______ _______ _______ _____ _____    ______ ____
ROOT
ATOM      1  C   UNL     1       3.355  -4.867  -0.872  0.00  0.00    +0.253 C 
ATOM      2  O   UNL     1       4.244  -4.117  -1.216  0.00  0.00    -0.272 OA
ATOM      3  N   UNL     1       3.383  -6.161  -1.247  0.00  0.00    -0.205 N 
ATOM      4  H   UNL     1       2.638  -6.745  -1.034  0.00  0.00    +0.177 HD
ENDROOT
BRANCH   3   5
ATOM      5  N   UNL     1       4.488  -6.665  -1.946  0.00  0.00    -0.188 NA
ATOM      6  C   UNL     1       4.515  -7.911  -2.307  0.00  0.00    +0.138 C 
BRANCH   6   7
ATOM      7  C   UNL     1       5.678  -8.440  -3.043  0.00  0.00    -0.001 A 
ATOM      8  C   UNL     1       5.712  -9.783  -3.428  0.00  0.00    +0.059 A 
ATOM      9  C   UNL     1       6.802 -10.273  -4.121  0.00  0.00    +0.163 A 
ATOM     10  C   UNL     1       7.870  -9.432  -4.426  0.00  0.00    +0.175 A 
ATOM     11  C   UNL     1       7.840  -8.100  -4.039  0.00  0.00    +0.064 A 
ATOM     12  C   UNL     1       6.752  -7.602  -3.351  0.00  0.00    +0.028 A 
ATOM     13 BR   UNL     1       9.293  -6.963  -4.457  0.00  0.00    -0.046 Br
BRANCH  10  14
ATOM     14  O   UNL     1       8.944  -9.918  -5.103  0.00  0.00    -0.490 OA
ATOM     15  C   UNL     1      10.013 -10.457  -4.323  0.00  0.00    +0.277 C 
ENDBRANCH  10  14
BRANCH   9  16
ATOM     16  O   UNL     1       6.835 -11.579  -4.502  0.00  0.00    -0.491 OA
ATOM     17  C   UNL     1       5.705 -12.383  -4.157  0.00  0.00    +0.277 C 
ENDBRANCH   9  16
ENDBRANCH   6   7
ENDBRANCH   3   5
BRANCH   1  18
ATOM     18  C   UNL     1       2.220  -4.353  -0.024  0.00  0.00    +0.163 C 
BRANCH  18  19
ATOM     19  N   UNL     1       2.039  -2.920  -0.268  0.00  0.00    -0.300 N 
ATOM     20  C   UNL     1       0.840  -2.345  -0.051  0.00  0.00    +0.245 C 
ATOM     21  O   UNL     1      -0.092  -3.016   0.348  0.00  0.00    -0.270 OA
ATOM     22  H   UNL     1       2.783  -2.384  -0.586  0.00  0.00    +0.150 HD
BRANCH  20  23
ATOM     23  C   UNL     1       0.657  -0.899  -0.297  0.00  0.00    +0.037 A 
ATOM     24  C   UNL     1      -0.584  -0.302  -0.072  0.00  0.00    +0.014 A 
ATOM     25  C   UNL     1      -0.749   1.048  -0.304  0.00  0.00    +0.021 A 
ATOM     26  C   UNL     1       0.315   1.810  -0.759  0.00  0.00    +0.041 A 
ATOM     27  C   UNL     1       1.549   1.222  -0.983  0.00  0.00    +0.021 A 
ATOM     28  C   UNL     1       1.725  -0.126  -0.755  0.00  0.00    +0.014 A 
ATOM     29 CL   UNL     1       0.100   3.508  -1.049  0.00  0.00    -0.084 Cl
ENDBRANCH  20  23
ENDBRANCH  18  19
BRANCH  18  31
ATOM     30  C   UNL     1       1.369  -4.105   2.312  0.00  0.00    +0.009 C 
ATOM     31  C   UNL     1       2.543  -4.582   1.454  0.00  0.00    +0.012 C 
ATOM     32  C   UNL     1       2.781  -6.073   1.698  0.00  0.00    +0.009 C 
ENDBRANCH  18  31
ENDBRANCH   1  18
TORSDOF 8
