REMARK  Name = ZINC35932735
REMARK  6 active torsions:
REMARK  status: ('A' for Active; 'I' for Inactive)
REMARK    1  A    between atoms: C_6  and  C_7
REMARK    2  A    between atoms: C_7  and  N_8
REMARK    3  A    between atoms: N_11  and  C_12
REMARK    4  A    between atoms: C_13  and  C_25
REMARK    5  A    between atoms: N_15  and  C_18
REMARK    6  A    between atoms: C_16  and  N_17
REMARK                            x       y       z     vdW  Elec       q    Type
REMARK                         _______ _______ _______ _____ _____    ______ ____
ROOT
ATOM      1  C   UNL     1      -4.487  -2.555  -3.175  0.00  0.00    +0.103 A 
ATOM      2  C   UNL     1      -4.885  -3.065  -4.428  0.00  0.00    +0.116 A 
ATOM      3  N   UNL     1      -6.107  -3.543  -4.308  0.00  0.00    -0.163 NA
ATOM      4  N   UNL     1      -6.527  -3.357  -2.985  0.00  0.00    -0.216 N 
ATOM      5  C   UNL     1      -5.514  -2.752  -2.301  0.00  0.00    +0.142 A 
ENDROOT
BRANCH   4   6
ATOM      6  C   UNL     1      -7.769  -3.731  -2.455  0.00  0.00    +0.068 A 
ATOM      7  C   UNL     1      -7.860  -4.174  -1.142  0.00  0.00    +0.030 A 
ATOM      8  C   UNL     1      -9.085  -4.543  -0.622  0.00  0.00    +0.040 A 
ATOM      9  C   UNL     1     -10.222  -4.470  -1.408  0.00  0.00    +0.124 A 
ATOM     10  C   UNL     1     -10.134  -4.027  -2.717  0.00  0.00    +0.040 A 
ATOM     11  C   UNL     1      -8.912  -3.653  -3.240  0.00  0.00    +0.030 A 
ATOM     12  F   UNL     1     -11.420  -4.831  -0.897  0.00  0.00    -0.205 F 
ENDBRANCH   4   6
BRANCH   2  13
ATOM     13  C   UNL     1      -4.070  -3.062  -5.668  0.00  0.00    +0.004 A 
ATOM     14  C   UNL     1      -3.179  -2.020  -5.917  0.00  0.00    +0.011 A 
ATOM     15  C   UNL     1      -2.423  -2.022  -7.071  0.00  0.00    +0.020 A 
ATOM     16  C   UNL     1      -2.548  -3.058  -7.981  0.00  0.00    +0.041 A 
ATOM     17  C   UNL     1      -3.431  -4.096  -7.738  0.00  0.00    +0.020 A 
ATOM     18  C   UNL     1      -4.188  -4.106  -6.584  0.00  0.00    +0.011 A 
ATOM     19 CL   UNL     1      -1.594  -3.056  -9.431  0.00  0.00    -0.084 Cl
ENDBRANCH   2  13
BRANCH   1  23
ATOM     20  N   UNL     1      -0.949  -1.775  -3.256  0.00  0.00    -0.295 N 
ATOM     21  C   UNL     1      -2.119  -2.413  -3.459  0.00  0.00    +0.304 C 
ATOM     22  O   UNL     1      -2.158  -3.401  -4.166  0.00  0.00    -0.252 OA
ATOM     23  N   UNL     1      -3.245  -1.954  -2.878  0.00  0.00    -0.265 N 
ATOM     24  H   UNL     1      -0.917  -0.986  -2.692  0.00  0.00    +0.151 HD
ATOM     25  H   UNL     1      -3.202  -1.212  -2.256  0.00  0.00    +0.157 HD
BRANCH  20  26
ATOM     26  C   UNL     1       0.276  -2.273  -3.888  0.00  0.00    +0.141 C 
BRANCH  26  32
ATOM     27  C   UNL     1       2.177  -1.675  -2.373  0.00  0.00    +0.008 A 
ATOM     28  C   UNL     1       3.239  -0.865  -2.020  0.00  0.00    +0.038 A 
ATOM     29  C   UNL     1       3.560   0.234  -2.800  0.00  0.00    +0.123 A 
ATOM     30  C   UNL     1       2.816   0.519  -3.932  0.00  0.00    +0.038 A 
ATOM     31  C   UNL     1       1.754  -0.293  -4.283  0.00  0.00    +0.008 A 
ATOM     32  C   UNL     1       1.435  -1.389  -3.504  0.00  0.00    -0.030 A 
ATOM     33  F   UNL     1       4.599   1.027  -2.456  0.00  0.00    -0.205 F 
ENDBRANCH  26  32
ENDBRANCH  20  26
ENDBRANCH   1  23
BRANCH   5  34
ATOM     34  N   UNL     1      -5.527  -2.397  -0.952  0.00  0.00    -0.342 N 
ATOM     35  H   UNL     1      -4.718  -2.068  -0.529  0.00  0.00    +0.144 HD
ATOM     36  H   UNL     1      -6.345  -2.479  -0.437  0.00  0.00    +0.144 HD
ENDBRANCH   5  34
TORSDOF 6
