REMARK  Name = ZINC00706474
REMARK  5 active torsions:
REMARK  status: ('A' for Active; 'I' for Inactive)
REMARK    1  A    between atoms: C_1  and  C_2
REMARK    2  A    between atoms: C_3  and  C_20
REMARK    3  A    between atoms: C_4  and  C_10
REMARK    4  A    between atoms: C_20  and  O_22
REMARK    5  A    between atoms: O_22  and  C_23
REMARK                            x       y       z     vdW  Elec       q    Type
REMARK                         _______ _______ _______ _____ _____    ______ ____
ROOT
ATOM      1  C   UNL     1       1.094  -2.263  -0.004  0.00  0.00    +0.061 C 
ATOM      2  C   UNL     1       1.167  -0.757   0.014  0.00  0.00    +0.021 C 
ATOM      3  C   UNL     1       2.371  -0.149  -0.043  0.00  0.00    +0.078 C 
ATOM      4  C   UNL     1       2.398   1.365  -0.022  0.00  0.00    +0.144 C 
ATOM      5  N   UNL     1       1.100   2.055   0.060  0.00  0.00    -0.288 N 
ATOM      6  C   UNL     1      -0.021   1.308   0.111  0.00  0.00    +0.304 C 
ATOM      7  O   UNL     1      -1.098   1.868   0.173  0.00  0.00    -0.252 OA
ATOM      8  N   UNL     1       0.013  -0.030   0.089  0.00  0.00    -0.273 N 
ATOM      9  H   UNL     1       1.052   3.024   0.077  0.00  0.00    +0.151 HD
ATOM     10  H   UNL     1      -0.829  -0.510   0.128  0.00  0.00    +0.156 HD
ENDROOT
BRANCH   4  11
ATOM     11  C   UNL     1       3.095   1.835  -1.273  0.00  0.00    -0.015 A 
ATOM     12  C   UNL     1       3.218   1.001  -2.342  0.00  0.00    +0.006 A 
ATOM     13  C   UNL     1       3.858   1.418  -3.507  0.00  0.00    +0.001 A 
ATOM     14  C   UNL     1       4.380   2.671  -3.610  0.00  0.00    +0.008 A 
ATOM     15  C   UNL     1       4.273   3.560  -2.527  0.00  0.00    -0.018 A 
ATOM     16  C   UNL     1       3.617   3.138  -1.344  0.00  0.00    -0.013 A 
ATOM     17  C   UNL     1       3.504   4.029  -0.263  0.00  0.00    +0.009 A 
ATOM     18  C   UNL     1       4.021   5.284  -0.369  0.00  0.00    +0.001 A 
ATOM     19  C   UNL     1       4.661   5.701  -1.534  0.00  0.00    +0.001 A 
ATOM     20  C   UNL     1       4.799   4.861  -2.597  0.00  0.00    +0.008 A 
ENDBRANCH   4  11
BRANCH   3  21
ATOM     21  C   UNL     1       3.567  -0.901  -0.119  0.00  0.00    +0.339 C 
ATOM     22  O   UNL     1       3.528  -2.115  -0.046  0.00  0.00    -0.245 OA
BRANCH  21  23
ATOM     23  O   UNL     1       4.751  -0.273  -0.274  0.00  0.00    -0.458 OA
BRANCH  23  24
ATOM     24  C   UNL     1       5.904  -1.096  -0.456  0.00  0.00    +0.177 C 
ATOM     25  C   UNL     1       6.538  -1.378   0.922  0.00  0.00    +0.044 C 
ATOM     26  C   UNL     1       7.398  -2.608   0.810  0.00  0.00    +0.004 C 
ATOM     27  C   UNL     1       8.873  -2.272   0.518  0.00  0.00    +0.000 C 
ATOM     28  C   UNL     1       9.035  -1.145  -0.520  0.00  0.00    +0.000 C 
ATOM     29  C   UNL     1       8.073  -1.278  -1.669  0.00  0.00    +0.004 C 
ATOM     30  C   UNL     1       6.824  -0.426  -1.363  0.00  0.00    +0.044 C 
ENDBRANCH  23  24
ENDBRANCH  21  23
ENDBRANCH   3  21
TORSDOF 4
