REMARK  Name = ZINC20999727
REMARK  9 active torsions:
REMARK  status: ('A' for Active; 'I' for Inactive)
REMARK    1  A    between atoms: C_1  and  C_2
REMARK    2  A    between atoms: C_2  and  O_3
REMARK    3  A    between atoms: O_3  and  C_4
REMARK    4  A    between atoms: N_9  and  C_12
REMARK    5  A    between atoms: C_12  and  C_13
REMARK    6  A    between atoms: C_16  and  O_19
REMARK    7  A    between atoms: O_19  and  C_20
REMARK    8  A    between atoms: C_20  and  C_21
REMARK    9  A    between atoms: C_28  and  C_30
REMARK                            x       y       z     vdW  Elec       q    Type
REMARK                         _______ _______ _______ _____ _____    ______ ____
ROOT
ATOM      1  O   UNL     1      -1.486   2.049   1.785  0.00  0.00    -0.492 OA
ENDROOT
BRANCH   1   5
ATOM      2  C   UNL     1      -0.008   0.791   5.425  0.00  0.00    -0.033 A 
ATOM      3  C   UNL     1      -1.373   0.913   5.240  0.00  0.00    +0.008 A 
ATOM      4  C   UNL     1      -1.870   1.334   4.022  0.00  0.00    +0.046 A 
ATOM      5  C   UNL     1      -0.999   1.634   2.984  0.00  0.00    +0.121 A 
ATOM      6  C   UNL     1       0.369   1.505   3.171  0.00  0.00    +0.046 A 
ATOM      7  C   UNL     1       0.862   1.089   4.393  0.00  0.00    +0.008 A 
BRANCH   2   8
ATOM      8  C   UNL     1       0.532   0.331   6.755  0.00  0.00    +0.119 C 
BRANCH   8  14
ATOM      9  C   UNL     1      -0.022  -4.832   8.330  0.00  0.00    +0.403 C 
ATOM     10  O   UNL     1       0.702  -5.234   9.219  0.00  0.00    -0.226 OA
ATOM     11  N   UNL     1       0.357  -3.781   7.575  0.00  0.00    -0.265 N 
ATOM     12  C   UNL     1       1.643  -3.107   7.811  0.00  0.00    +0.126 C 
ATOM     13  C   UNL     1       1.387  -1.601   7.937  0.00  0.00    +0.104 C 
ATOM     14  N   UNL     1       0.647  -1.133   6.757  0.00  0.00    -0.295 NA
ATOM     15  C   UNL     1      -0.675  -1.766   6.672  0.00  0.00    +0.104 C 
ATOM     16  C   UNL     1      -0.504  -3.278   6.494  0.00  0.00    +0.126 C 
BRANCH   9  17
ATOM     17  O   UNL     1      -1.203  -5.436   8.098  0.00  0.00    -0.451 OA
BRANCH  17  19
ATOM     18  C   UNL     1      -2.913  -7.113   8.539  0.00  0.00    +0.048 C 
ATOM     19  C   UNL     1      -1.546  -6.561   8.949  0.00  0.00    +0.230 C 
ENDBRANCH  17  19
ENDBRANCH   9  17
ENDBRANCH   8  14
ENDBRANCH   2   8
ENDBRANCH   1   5
BRANCH   1  20
ATOM     20  C   UNL     1      -0.531   2.340   0.763  0.00  0.00    +0.234 C 
BRANCH  20  21
ATOM     21  C   UNL     1      -1.262   2.787  -0.505  0.00  0.00    +0.044 C 
ATOM     22  C   UNL     1      -0.239   3.218  -1.559  0.00  0.00    +0.010 C 
ATOM     23  C   UNL     1      -0.969   3.697  -2.815  0.00  0.00    +0.019 C 
ATOM     24  C   UNL     1      -1.799   2.544  -3.389  0.00  0.00    +0.108 C 
ATOM     25  N   UNL     1      -2.684   2.029  -2.337  0.00  0.00    -0.296 N 
ATOM     26  C   UNL     1      -2.095   1.624  -1.053  0.00  0.00    +0.115 C 
ATOM     27  C   UNL     1      -4.012   1.929  -2.544  0.00  0.00    +0.265 C 
ATOM     28  O   UNL     1      -4.725   1.434  -1.692  0.00  0.00    -0.268 OA
BRANCH  27  29
ATOM     29  C   UNL     1      -4.600   2.418  -3.801  0.00  0.00    +0.124 A 
ATOM     30  C   UNL     1      -5.777   3.106  -3.951  0.00  0.00    +0.005 A 
ATOM     31  C   UNL     1      -5.907   3.350  -5.325  0.00  0.00    +0.067 A 
ATOM     32  N   UNL     1      -4.869   2.836  -5.918  0.00  0.00    -0.178 NA
ATOM     33  N   UNL     1      -4.079   2.285  -5.062  0.00  0.00    -0.272 N 
ATOM     34  H   UNL     1      -3.120   1.767  -5.209  0.00  0.00    +0.189 HD
ATOM     35  C   UNL     1      -7.078   4.086  -5.926  0.00  0.00    +0.057 C 
ATOM     36  C   UNL     1      -8.211   4.110  -4.892  0.00  0.00    +0.007 C 
ATOM     37  C   UNL     1      -7.678   4.615  -3.549  0.00  0.00    +0.005 C 
ATOM     38  C   UNL     1      -6.775   3.548  -2.916  0.00  0.00    +0.039 C 
ENDBRANCH  27  29
ENDBRANCH  20  21
ENDBRANCH   1  20
TORSDOF 8
