REMARK  Name = ZINC09441908
REMARK  14 active torsions:
REMARK  status: ('A' for Active; 'I' for Inactive)
REMARK    1  A    between atoms: C_1  and  C_2
REMARK    2  A    between atoms: C_5  and  S_8
REMARK    3  A    between atoms: S_8  and  N_11
REMARK    4  A    between atoms: N_11  and  C_12
REMARK    5  A    between atoms: C_12  and  C_14
REMARK    6  A    between atoms: C_12  and  C_18
REMARK    7  A    between atoms: C_14  and  C_15
REMARK    8  A    between atoms: C_15  and  C_16
REMARK    9  A    between atoms: C_15  and  C_17
REMARK   10  A    between atoms: N_20  and  C_21
REMARK   11  A    between atoms: C_21  and  C_23
REMARK   12  A    between atoms: C_21  and  C_24
REMARK   13  A    between atoms: C_27  and  S_30
REMARK   14  A    between atoms: S_30  and  N_33
REMARK                            x       y       z     vdW  Elec       q    Type
REMARK                         _______ _______ _______ _____ _____    ______ ____
ROOT
ATOM      1  C   UNL     1       2.418   1.282   0.916  0.00  0.00    +0.232 C 
ATOM      2  O   UNL     1       2.017   0.190   1.260  0.00  0.00    -0.274 OA
ATOM      3  N   UNL     1       1.556   2.311   0.801  0.00  0.00    -0.307 N 
ATOM      4  H   UNL     1       1.883   3.194   0.568  0.00  0.00    +0.149 HD
ENDROOT
BRANCH   3   5
ATOM      5  C   UNL     1       0.125   2.097   1.027  0.00  0.00    +0.100 C 
ATOM      6  C   UNL     1      -0.177   2.203   2.524  0.00  0.00    +0.033 C 
BRANCH   5   7
ATOM      7  C   UNL     1      -0.664   3.141   0.281  0.00  0.00    -0.027 A 
ATOM      8  C   UNL     1      -0.220   4.450   0.247  0.00  0.00    +0.007 A 
ATOM      9  C   UNL     1      -0.941   5.407  -0.441  0.00  0.00    +0.029 A 
ATOM     10  C   UNL     1      -2.112   5.058  -1.088  0.00  0.00    +0.105 A 
ATOM     11  C   UNL     1      -2.559   3.750  -1.051  0.00  0.00    +0.029 A 
ATOM     12  C   UNL     1      -1.835   2.792  -0.366  0.00  0.00    +0.007 A 
BRANCH  10  13
ATOM     13  S   UNL     1      -3.035   6.280  -1.960  0.00  0.00    +0.056 S 
ATOM     14  O   UNL     1      -2.120   7.312  -2.302  0.00  0.00    -0.153 OA
ATOM     15  O   UNL     1      -3.803   5.589  -2.936  0.00  0.00    -0.153 OA
BRANCH  13  16
ATOM     16  N   UNL     1      -4.112   6.937  -0.888  0.00  0.00    -0.204 NA
ATOM     17  H   UNL     1      -4.396   7.859  -0.990  0.00  0.00    +0.144 HD
ATOM     18  H   UNL     1      -4.459   6.401  -0.158  0.00  0.00    +0.144 HD
ENDBRANCH  13  16
ENDBRANCH  10  13
ENDBRANCH   5   7
ENDBRANCH   3   5
BRANCH   1  19
ATOM     19  C   UNL     1       3.881   1.487   0.617  0.00  0.00    +0.162 C 
BRANCH  19  20
ATOM     20  N   UNL     1       4.644   0.332   1.096  0.00  0.00    -0.178 NA
ATOM     21  H   UNL     1       4.268  -0.559   1.030  0.00  0.00    +0.149 HD
BRANCH  20  22
ATOM     22  S   UNL     1       6.150   0.548   1.751  0.00  0.00    +0.059 S 
ATOM     23  O   UNL     1       6.597  -0.732   2.174  0.00  0.00    -0.153 OA
ATOM     24  O   UNL     1       6.883   1.345   0.830  0.00  0.00    -0.153 OA
BRANCH  22  29
ATOM     25  C   UNL     1       5.466   3.872   6.740  0.00  0.00    +0.044 C 
ATOM     26  C   UNL     1       5.637   3.042   5.494  0.00  0.00    -0.050 A 
ATOM     27  C   UNL     1       5.577   1.663   5.568  0.00  0.00    +0.005 A 
ATOM     28  C   UNL     1       5.734   0.902   4.425  0.00  0.00    +0.029 A 
ATOM     29  C   UNL     1       5.950   1.519   3.208  0.00  0.00    +0.105 A 
ATOM     30  C   UNL     1       6.015   2.898   3.134  0.00  0.00    +0.029 A 
ATOM     31  C   UNL     1       5.854   3.660   4.276  0.00  0.00    +0.005 A 
ENDBRANCH  22  29
ENDBRANCH  20  22
ENDBRANCH  19  20
BRANCH  19  32
ATOM     32  C   UNL     1       4.077   1.636  -0.893  0.00  0.00    +0.032 C 
BRANCH  32  33
ATOM     33  C   UNL     1       3.311   2.865  -1.388  0.00  0.00    -0.015 C 
ATOM     34  C   UNL     1       3.940   4.129  -0.797  0.00  0.00    +0.007 C 
ATOM     35  C   UNL     1       3.379   2.928  -2.915  0.00  0.00    +0.007 C 
ENDBRANCH  32  33
ENDBRANCH  19  32
ENDBRANCH   1  19
TORSDOF 10
