REMARK  Name = ZINC64002804
REMARK  3 active torsions:
REMARK  status: ('A' for Active; 'I' for Inactive)
REMARK    1  A    between atoms: C_1  and  N_2
REMARK    2  A    between atoms: N_2  and  C_3
REMARK    3  A    between atoms: C_11  and  C_13
REMARK                            x       y       z     vdW  Elec       q    Type
REMARK                         _______ _______ _______ _____ _____    ______ ____
ROOT
ATOM      1  C   UNL     1      -0.062   1.461   0.012  0.00  0.00    +0.132 C 
ATOM      2  N   UNL     1      -0.016  -0.003   0.003  0.00  0.00    -0.295 N 
ATOM      3  C   UNL     1      -0.102  -0.673  -1.163  0.00  0.00    +0.261 C 
ATOM      4  O   UNL     1      -0.160  -1.888  -1.164  0.00  0.00    -0.269 OA
ENDROOT
BRANCH   2   5
ATOM      5  C   UNL     1       0.123  -0.739   1.262  0.00  0.00    +0.098 C 
ATOM      6  C   UNL     1       1.429  -0.320   1.957  0.00  0.00    +0.046 C 
ATOM      7  C   UNL     1       1.399  -0.866   3.413  0.00  0.00    +0.168 C 
ATOM      8  S   UNL     1      -0.357  -0.537   3.861  0.00  0.00    -0.029 S 
ATOM      9  O   UNL     1      -0.888  -1.678   4.520  0.00  0.00    -0.174 OA
ATOM     10  O   UNL     1      -0.443   0.736   4.488  0.00  0.00    -0.174 OA
ATOM     11  C   UNL     1      -1.085  -0.424   2.177  0.00  0.00    +0.188 C 
ENDBRANCH   2   5
BRANCH   3  12
ATOM     12  C   UNL     1      -0.124   0.065  -2.436  0.00  0.00    +0.108 C 
ATOM     13  N   UNL     1       0.043   1.345  -2.600  0.00  0.00    -0.254 NA
ATOM     14  C   UNL     1      -0.029   1.735  -3.876  0.00  0.00    +0.122 C 
ATOM     15  C   UNL     1      -0.260   0.715  -4.711  0.00  0.00    +0.019 C 
ATOM     16  C   UNL     1      -0.340  -0.513  -3.821  0.00  0.00    +0.105 C 
ATOM     17 BR   UNL     1      -0.439   0.786  -6.592  0.00  0.00    -0.053 Br
ENDBRANCH   3  12
TORSDOF 2
