REMARK  Name = ZINC14164961
REMARK  9 active torsions:
REMARK  status: ('A' for Active; 'I' for Inactive)
REMARK    1  A    between atoms: C_1  and  C_2
REMARK    2  A    between atoms: C_2  and  C_4
REMARK    3  A    between atoms: C_2  and  N_62
REMARK    4  A    between atoms: C_17  and  C_18
REMARK    5  A    between atoms: C_17  and  N_62
REMARK    6  A    between atoms: C_18  and  C_20
REMARK    7  A    between atoms: C_18  and  C_28
REMARK    8  A    between atoms: C_23  and  O_26
REMARK    9  A    between atoms: O_26  and  C_27
REMARK                            x       y       z     vdW  Elec       q    Type
REMARK                         _______ _______ _______ _____ _____    ______ ____
ROOT
ATOM      1  C   UNL     1       1.790   2.402  -0.247  0.00  0.00    -0.069 C 
ENDROOT
BRANCH   1   2
ATOM      2  N   UNL     1       2.102   1.605   0.954  0.00  0.00    +0.387 N 
ATOM      3  H   UNL     1       1.681   2.053   1.776  0.00  0.00    -0.085 HD
ATOM      4  H   UNL     1       1.717   0.660   0.843  0.00  0.00    -0.085 HD
BRANCH   2   6
ATOM      5  C   UNL     1       4.116   0.359   0.309  0.00  0.00    -0.004 C 
ATOM      6  C   UNL     1       3.562   1.516   1.144  0.00  0.00    +0.013 C 
BRANCH   6   7
ATOM      7  C   UNL     1       3.858   1.270   2.601  0.00  0.00    +0.206 C 
ATOM      8  O   UNL     1       2.963   0.951   3.356  0.00  0.00    -0.277 OA
ATOM      9  N   UNL     1       5.115   1.405   3.066  0.00  0.00    -0.262 N 
ATOM     10  C   UNL     1       6.196   1.899   2.200  0.00  0.00    +0.209 C 
ATOM     11  C   UNL     1       7.437   1.087   2.443  0.00  0.00    +0.235 C 
ATOM     12  O   UNL     1       8.242   0.941   1.547  0.00  0.00    -0.274 OA
ATOM     13  N   UNL     1       7.665   0.516   3.641  0.00  0.00    -0.283 N 
ATOM     14  C   UNL     1       6.730   0.627   4.676  0.00  0.00    +0.055 A 
ATOM     15  C   UNL     1       5.437   1.072   4.391  0.00  0.00    +0.058 A 
ATOM     16  C   UNL     1       4.500   1.180   5.402  0.00  0.00    +0.025 A 
ATOM     17  C   UNL     1       4.850   0.848   6.700  0.00  0.00    +0.002 A 
ATOM     18  C   UNL     1       6.130   0.411   6.985  0.00  0.00    +0.002 A 
ATOM     19  C   UNL     1       7.071   0.299   5.978  0.00  0.00    +0.025 A 
ATOM     20  H   UNL     1       8.487   0.022   3.788  0.00  0.00    +0.155 HD
ENDBRANCH   6   7
ENDBRANCH   2   6
ENDBRANCH   1   2
BRANCH   1  21
ATOM     21  C   UNL     1       0.272   2.478  -0.418  0.00  0.00    +0.034 C 
BRANCH  21  22
ATOM     22  C   UNL     1      -0.327   3.239   0.737  0.00  0.00    -0.017 A 
ATOM     23  C   UNL     1      -0.059   4.508   1.081  0.00  0.00    +0.087 A 
ATOM     24  N   UNL     1      -0.791   4.858   2.182  0.00  0.00    -0.360 N 
ATOM     25  H   UNL     1      -0.767   5.725   2.615  0.00  0.00    +0.165 HD
ATOM     26  C   UNL     1      -1.569   3.795   2.584  0.00  0.00    +0.047 A 
ATOM     27  C   UNL     1      -1.316   2.736   1.692  0.00  0.00    +0.003 A 
ATOM     28  C   UNL     1      -1.977   1.517   1.854  0.00  0.00    +0.010 A 
ATOM     29  C   UNL     1      -2.870   1.359   2.877  0.00  0.00    +0.001 A 
ATOM     30  C   UNL     1      -3.125   2.402   3.757  0.00  0.00    +0.002 A 
ATOM     31  C   UNL     1      -2.478   3.611   3.620  0.00  0.00    +0.026 A 
ENDBRANCH  21  22
BRANCH  21  32
ATOM     32  C   UNL     1      -0.054   3.185  -1.709  0.00  0.00    -0.041 A 
ATOM     33  C   UNL     1       0.365   4.488  -1.907  0.00  0.00    +0.008 A 
ATOM     34  C   UNL     1       0.073   5.136  -3.091  0.00  0.00    +0.046 A 
ATOM     35  C   UNL     1      -0.652   4.483  -4.077  0.00  0.00    +0.120 A 
ATOM     36  C   UNL     1      -1.077   3.179  -3.873  0.00  0.00    +0.046 A 
ATOM     37  C   UNL     1      -0.777   2.532  -2.690  0.00  0.00    +0.008 A 
BRANCH  35  38
ATOM     38  O   UNL     1      -0.947   5.122  -5.240  0.00  0.00    -0.495 OA
ATOM     39  C   UNL     1      -0.478   6.464  -5.381  0.00  0.00    +0.277 C 
ENDBRANCH  35  38
ENDBRANCH  21  32
ENDBRANCH   1  21
TORSDOF 7
