REMARK  Name = ZINC39966600
REMARK  11 active torsions:
REMARK  status: ('A' for Active; 'I' for Inactive)
REMARK    1  A    between atoms: C_1  and  C_2
REMARK    2  A    between atoms: C_4  and  C_30
REMARK    3  A    between atoms: C_5  and  N_7
REMARK    4  A    between atoms: C_8  and  C_10
REMARK    5  A    between atoms: C_10  and  S_11
REMARK    6  A    between atoms: S_11  and  C_12
REMARK    7  A    between atoms: C_15  and  C_20
REMARK    8  A    between atoms: N_16  and  C_17
REMARK    9  A    between atoms: C_17  and  C_18
REMARK   10  A    between atoms: C_30  and  O_32
REMARK   11  A    between atoms: O_32  and  C_33
REMARK                            x       y       z     vdW  Elec       q    Type
REMARK                         _______ _______ _______ _____ _____    ______ ____
ROOT
ATOM      1  C   UNL     1       5.578  -6.831  -0.081  0.00  0.00    +0.193 A 
ATOM      2  N   UNL     1       4.835  -7.913  -0.046  0.00  0.00    -0.122 NA
ATOM      3  N   UNL     1       5.579  -8.960  -0.041  0.00  0.00    -0.128 NA
ATOM      4  C   UNL     1       6.844  -8.612  -0.072  0.00  0.00    +0.166 A 
ATOM      5  N   UNL     1       6.884  -7.238  -0.104  0.00  0.00    -0.298 N 
ENDROOT
BRANCH   4   6
ATOM      6  C   UNL     1       8.007  -9.525  -0.078  0.00  0.00    +0.030 A 
ATOM      7  C   UNL     1       9.018  -9.343  -0.976  0.00  0.00    +0.057 A 
ATOM      8  S   UNL     1      10.127 -10.677  -0.555  0.00  0.00    -0.101 S 
ATOM      9  C   UNL     1       9.182 -11.371   0.777  0.00  0.00    -0.006 A 
ATOM     10  C   UNL     1       8.080 -10.585   0.849  0.00  0.00    -0.026 A 
ATOM     11  C   UNL     1       6.968 -10.840   1.862  0.00  0.00    +0.036 C 
ATOM     12  C   UNL     1       7.532 -11.557   3.083  0.00  0.00    +0.005 C 
ATOM     13  C   UNL     1       7.470 -13.072   2.897  0.00  0.00    +0.001 C 
ATOM     14  C   UNL     1       8.338 -13.490   1.715  0.00  0.00    +0.005 C 
ATOM     15  C   UNL     1       9.536 -12.546   1.631  0.00  0.00    +0.043 C 
ENDBRANCH   4   6
BRANCH   1  16
ATOM     16  S   UNL     1       5.001  -5.166  -0.101  0.00  0.00    -0.077 S 
BRANCH  16  17
ATOM     17  C   UNL     1       3.195  -5.327  -0.053  0.00  0.00    +0.173 C 
BRANCH  17  19
ATOM     18  N   UNL     1       1.226  -3.829  -0.035  0.00  0.00    -0.279 N 
ATOM     19  C   UNL     1       2.568  -3.957  -0.066  0.00  0.00    +0.228 C 
ATOM     20  O   UNL     1       3.270  -2.969  -0.103  0.00  0.00    -0.275 OA
ATOM     21  H   UNL     1       0.665  -4.620  -0.006  0.00  0.00    +0.155 HD
BRANCH  18  26
ATOM     22  C   UNL     1      -0.003   1.512  -0.112  0.00  0.00    +0.051 C 
ATOM     23  C   UNL     1       0.015   0.006  -0.082  0.00  0.00    -0.011 A 
ATOM     24  C   UNL     1      -1.030  -0.841  -0.040  0.00  0.00    +0.027 A 
ATOM     25  C   UNL     1      -0.701  -2.248  -0.021  0.00  0.00    +0.088 A 
ATOM     26  C   UNL     1       0.650  -2.569  -0.047  0.00  0.00    +0.086 A 
ATOM     27  S   UNL     1       1.423  -1.081  -0.102  0.00  0.00    -0.078 S 
BRANCH  25  28
ATOM     28  C   UNL     1      -1.737  -3.281   0.026  0.00  0.00    +0.341 C 
ATOM     29  O   UNL     1      -1.424  -4.457   0.042  0.00  0.00    -0.245 OA
BRANCH  28  30
ATOM     30  O   UNL     1      -3.039  -2.930   0.050  0.00  0.00    -0.464 OA
ATOM     31  C   UNL     1      -3.997  -3.990   0.095  0.00  0.00    +0.280 C 
ENDBRANCH  28  30
ENDBRANCH  25  28
ENDBRANCH  18  26
ENDBRANCH  17  19
ENDBRANCH  16  17
ENDBRANCH   1  16
BRANCH   5  32
ATOM     32  C   UNL     1       8.075  -6.387  -0.151  0.00  0.00    +0.152 C 
BRANCH  32  33
ATOM     33  C   UNL     1       8.591  -6.168   1.248  0.00  0.00    -0.013 C 
ATOM     34  C   UNL     1       9.834  -6.460   1.541  0.00  0.00    +0.005 C 
ENDBRANCH  32  33
ENDBRANCH   5  32
TORSDOF 9
