REMARK  Name = ZINC40773515
REMARK  10 active torsions:
REMARK  status: ('A' for Active; 'I' for Inactive)
REMARK    1  A    between atoms: C_1  and  C_2
REMARK    2  A    between atoms: C_2  and  C_3
REMARK    3  A    between atoms: C_2  and  C_4
REMARK    4  A    between atoms: C_4  and  C_5
REMARK    5  A    between atoms: C_5  and  C_7
REMARK    6  A    between atoms: C_5  and  N_9
REMARK    7  A    between atoms: C_7  and  O_8
REMARK    8  A    between atoms: N_9  and  S_10
REMARK    9  A    between atoms: S_10  and  C_13
REMARK   10  A    between atoms: C_16  and  N_20
REMARK                            x       y       z     vdW  Elec       q    Type
REMARK                         _______ _______ _______ _____ _____    ______ ____
ROOT
ATOM      1  S   UNL     1      -0.108  -3.992   1.375  0.00  0.00    +0.060 S 
ATOM      2  O   UNL     1       0.120  -4.813   2.512  0.00  0.00    -0.153 OA
ATOM      3  O   UNL     1      -1.009  -4.357   0.339  0.00  0.00    -0.153 OA
ENDROOT
BRANCH   1   4
ATOM      4  C   UNL     1       1.461  -3.742   0.613  0.00  0.00    +0.119 A 
ATOM      5  C   UNL     1       1.591  -3.871  -0.758  0.00  0.00    +0.031 A 
ATOM      6  C   UNL     1       2.819  -3.676  -1.359  0.00  0.00    +0.025 A 
ATOM      7  C   UNL     1       3.925  -3.349  -0.585  0.00  0.00    +0.026 A 
ATOM      8  C   UNL     1       3.793  -3.220   0.792  0.00  0.00    +0.040 A 
ATOM      9  C   UNL     1       2.560  -3.411   1.386  0.00  0.00    +0.046 A 
ATOM     10 BR   UNL     1       2.375  -3.227   3.259  0.00  0.00    -0.048 Br
BRANCH   7  11
ATOM     11  N   UNL     1       5.169  -3.152  -1.189  0.00  0.00    -0.358 N 
ATOM     12  H   UNL     1       5.261  -3.244  -2.151  0.00  0.00    +0.142 HD
ATOM     13  H   UNL     1       5.941  -2.924  -0.648  0.00  0.00    +0.142 HD
ENDBRANCH   7  11
ENDBRANCH   1   4
BRANCH   1  14
ATOM     14  N   UNL     1      -0.614  -2.522   1.946  0.00  0.00    -0.185 NA
ATOM     15  H   UNL     1      -0.801  -2.408   2.891  0.00  0.00    +0.148 HD
BRANCH  14  16
ATOM     16  C   UNL     1      -0.780  -1.396   1.025  0.00  0.00    +0.102 C 
BRANCH  16  17
ATOM     17  C   UNL     1      -0.350  -0.102   1.719  0.00  0.00    +0.025 C 
BRANCH  17  19
ATOM     18  C   UNL     1       1.956  -0.100   0.756  0.00  0.00    +0.007 C 
ATOM     19  C   UNL     1       1.142  -0.172   2.050  0.00  0.00    -0.016 C 
ATOM     20  C   UNL     1       1.520   1.002   2.955  0.00  0.00    +0.007 C 
ENDBRANCH  17  19
ENDBRANCH  16  17
BRANCH  16  21
ATOM     21  C   UNL     1      -2.248  -1.288   0.610  0.00  0.00    +0.176 C 
BRANCH  21  22
ATOM     22  O   UNL     1      -3.044  -0.963   1.751  0.00  0.00    -0.393 OA
ATOM     23  H   UNL     1      -3.988  -0.878   1.562  0.00  0.00    +0.209 HD
ENDBRANCH  21  22
ENDBRANCH  16  21
ENDBRANCH  14  16
ENDBRANCH   1  14
TORSDOF 8
