REMARK  Name = ZINC09259257
REMARK  6 active torsions:
REMARK  status: ('A' for Active; 'I' for Inactive)
REMARK    1  A    between atoms: C_3  and  O_19
REMARK    2  A    between atoms: C_6  and  C_7
REMARK    3  A    between atoms: N_8  and  N_9
REMARK    4  A    between atoms: C_13  and  N_16
REMARK    5  A    between atoms: O_19  and  C_20
REMARK    6  A    between atoms: C_20  and  C_21
REMARK                            x       y       z     vdW  Elec       q    Type
REMARK                         _______ _______ _______ _____ _____    ______ ____
ROOT
ATOM      1  C   UNL     1      -4.617   8.287   0.074  0.00  0.00    +0.013 A 
ATOM      2  C   UNL     1      -4.582   9.665   0.076  0.00  0.00    +0.046 A 
ATOM      3  C   UNL     1      -5.765  10.392   0.086  0.00  0.00    +0.121 A 
ATOM      4  C   UNL     1      -6.989   9.735   0.087  0.00  0.00    +0.046 A 
ATOM      5  C   UNL     1      -7.033   8.357   0.079  0.00  0.00    +0.013 A 
ATOM      6  C   UNL     1      -5.845   7.622   0.070  0.00  0.00    -0.005 A 
ENDROOT
BRANCH   6   7
ATOM      7  C   UNL     1      -5.888   6.148   0.062  0.00  0.00    +0.138 C 
ATOM      8  N   UNL     1      -4.783   5.467   0.054  0.00  0.00    -0.189 NA
BRANCH   8   9
ATOM      9  N   UNL     1      -4.824   4.066   0.046  0.00  0.00    -0.221 N 
ATOM     10  C   UNL     1      -3.641   3.337   0.037  0.00  0.00    +0.138 A 
ATOM     11  C   UNL     1      -3.689   1.946   0.030  0.00  0.00    +0.047 A 
ATOM     12  C   UNL     1      -2.504   1.233   0.021  0.00  0.00    +0.037 A 
ATOM     13  C   UNL     1      -1.306   1.937   0.019  0.00  0.00    +0.144 A 
ATOM     14  C   UNL     1      -1.333   3.317   0.032  0.00  0.00    +0.145 A 
ATOM     15  N   UNL     1      -2.479   3.972   0.035  0.00  0.00    -0.237 NA
ATOM     16  H   UNL     1      -5.678   3.606   0.048  0.00  0.00    +0.176 HD
BRANCH  13  17
ATOM     17  N   UNL     1      -0.014   1.214   0.009  0.00  0.00    +0.058 N 
ATOM     18  O   UNL     1       0.002  -0.004   0.002  0.00  0.00    -0.126 OA
ATOM     19  O   UNL     1       1.032   1.837   0.002  0.00  0.00    -0.126 OA
ENDBRANCH  13  17
ENDBRANCH   8   9
ENDBRANCH   6   7
BRANCH   3  20
ATOM     20  O   UNL     1      -5.726  11.750   0.094  0.00  0.00    -0.487 OA
BRANCH  20  21
ATOM     21  C   UNL     1      -4.434  12.361   0.092  0.00  0.00    +0.265 C 
BRANCH  21  22
ATOM     22  C   UNL     1      -4.588  13.860   0.102  0.00  0.00    +0.004 A 
ATOM     23  C   UNL     1      -5.850  14.425   0.110  0.00  0.00    +0.009 A 
ATOM     24  C   UNL     1      -5.992  15.800   0.119  0.00  0.00    +0.016 A 
ATOM     25  C   UNL     1      -4.871  16.611   0.119  0.00  0.00    +0.019 A 
ATOM     26  C   UNL     1      -3.609  16.047   0.111  0.00  0.00    +0.031 A 
ATOM     27  C   UNL     1      -3.467  14.671   0.107  0.00  0.00    +0.025 A 
ATOM     28 BR   UNL     1      -1.741  13.898   0.104  0.00  0.00    -0.050 Br
ATOM     29 BR   UNL     1      -5.065  18.492   0.131  0.00  0.00    -0.050 Br
ENDBRANCH  21  22
ENDBRANCH  20  21
ENDBRANCH   3  20
TORSDOF 6
