REMARK  Name = ZINC01240454
REMARK  11 active torsions:
REMARK  status: ('A' for Active; 'I' for Inactive)
REMARK    1  A    between atoms: C_1  and  C_2
REMARK    2  A    between atoms: C_5  and  N_8
REMARK    3  A    between atoms: C_17  and  S_18
REMARK    4  A    between atoms: S_18  and  C_19
REMARK    5  A    between atoms: C_19  and  C_20
REMARK    6  A    between atoms: N_22  and  C_23
REMARK    7  A    between atoms: C_28  and  O_29
REMARK    8  A    between atoms: O_29  and  C_30
REMARK    9  A    between atoms: C_33  and  C_36
REMARK   10  A    between atoms: C_36  and  C_37
REMARK   11  A    between atoms: C_36  and  C_38
REMARK                            x       y       z     vdW  Elec       q    Type
REMARK                         _______ _______ _______ _____ _____    ______ ____
ROOT
ATOM      1  N   UNL     1       0.977  -4.387  -0.136  0.00  0.00    -0.255 N 
ATOM      2  C   UNL     1       1.050  -5.068   1.022  0.00  0.00    +0.268 A 
ATOM      3  O   UNL     1       1.384  -4.504   2.050  0.00  0.00    -0.267 OA
ATOM      4  C   UNL     1       0.730  -6.462   1.032  0.00  0.00    +0.076 A 
ATOM      5  C   UNL     1       0.741  -7.390   2.161  0.00  0.00    -0.018 A 
ATOM      6  C   UNL     1       0.395  -8.671   1.908  0.00  0.00    +0.021 A 
ATOM      7  S   UNL     1       0.037  -8.717   0.175  0.00  0.00    -0.071 S 
ATOM      8  C   UNL     1       0.356  -7.013  -0.207  0.00  0.00    +0.117 A 
ATOM      9  N   UNL     1       0.303  -6.285  -1.317  0.00  0.00    -0.215 NA
ATOM     10  C   UNL     1       0.598  -5.001  -1.297  0.00  0.00    +0.178 A 
ATOM     11  C   UNL     1       0.339  -9.786   2.905  0.00  0.00    +0.203 C 
ATOM     12  O   UNL     1       1.014  -9.349   4.095  0.00  0.00    -0.371 OA
ATOM     13  C   UNL     1       0.603  -8.054   4.541  0.00  0.00    +0.126 C 
ATOM     14  C   UNL     1       1.120  -6.978   3.581  0.00  0.00    +0.068 C 
ENDROOT
BRANCH   1  19
ATOM     15  C   UNL     1       2.243   1.145  -0.200  0.00  0.00    +0.044 C 
ATOM     16  C   UNL     1       1.907  -0.324  -0.183  0.00  0.00    -0.050 A 
ATOM     17  C   UNL     1       2.919  -1.265  -0.240  0.00  0.00    +0.005 A 
ATOM     18  C   UNL     1       2.614  -2.612  -0.225  0.00  0.00    +0.026 A 
ATOM     19  C   UNL     1       1.290  -3.021  -0.151  0.00  0.00    +0.052 A 
ATOM     20  C   UNL     1       0.275  -2.075  -0.094  0.00  0.00    +0.026 A 
ATOM     21  C   UNL     1       0.587  -0.729  -0.105  0.00  0.00    +0.005 A 
ENDBRANCH   1  19
BRANCH  13  22
ATOM     22  C   UNL     1       1.168  -7.796   5.939  0.00  0.00    +0.012 C 
ATOM     23  C   UNL     1       0.643  -8.860   6.906  0.00  0.00    +0.010 C 
ATOM     24  C   UNL     1       2.696  -7.859   5.892  0.00  0.00    +0.010 C 
ENDBRANCH  13  22
BRANCH  10  25
ATOM     25  S   UNL     1       0.511  -4.066  -2.788  0.00  0.00    -0.078 S 
BRANCH  25  26
ATOM     26  C   UNL     1      -0.022  -5.272  -4.033  0.00  0.00    +0.173 C 
BRANCH  26  27
ATOM     27  C   UNL     1      -0.139  -4.594  -5.373  0.00  0.00    +0.228 C 
ATOM     28  O   UNL     1       0.113  -3.412  -5.478  0.00  0.00    -0.275 OA
ATOM     29  N   UNL     1      -0.522  -5.300  -6.455  0.00  0.00    -0.282 N 
ATOM     30  H   UNL     1      -0.786  -6.228  -6.360  0.00  0.00    +0.155 HD
BRANCH  29  31
ATOM     31  C   UNL     1      -0.541  -4.692  -7.718  0.00  0.00    +0.076 A 
ATOM     32  C   UNL     1       0.206  -3.546  -7.949  0.00  0.00    +0.027 A 
ATOM     33  C   UNL     1       0.186  -2.949  -9.195  0.00  0.00    +0.002 A 
ATOM     34  C   UNL     1      -0.578  -3.490 -10.213  0.00  0.00    +0.004 A 
ATOM     35  C   UNL     1      -1.326  -4.631  -9.989  0.00  0.00    +0.047 A 
ATOM     36  C   UNL     1      -1.307  -5.239  -8.745  0.00  0.00    +0.141 A 
BRANCH  36  37
ATOM     37  O   UNL     1      -2.037  -6.365  -8.525  0.00  0.00    -0.493 OA
ATOM     38  C   UNL     1      -2.797  -6.870  -9.624  0.00  0.00    +0.277 C 
ENDBRANCH  36  37
ENDBRANCH  29  31
ENDBRANCH  26  27
ENDBRANCH  25  26
ENDBRANCH  10  25
TORSDOF 7
