REMARK  Name = ZINC09334079
REMARK  18 active torsions:
REMARK  status: ('A' for Active; 'I' for Inactive)
REMARK    1  A    between atoms: C_1  and  C_2
REMARK    2  A    between atoms: C_2  and  C_3
REMARK    3  A    between atoms: C_3  and  O_4
REMARK    4  A    between atoms: O_4  and  C_5
REMARK    5  A    between atoms: C_8  and  C_11
REMARK    6  A    between atoms: C_14  and  C_15
REMARK    7  A    between atoms: C_14  and  O_25
REMARK    8  A    between atoms: C_18  and  O_21
REMARK    9  A    between atoms: O_21  and  C_22
REMARK   10  A    between atoms: C_22  and  C_23
REMARK   11  A    between atoms: C_23  and  C_24
REMARK   12  A    between atoms: N_30  and  C_31
REMARK   13  A    between atoms: C_31  and  C_32
REMARK   14  A    between atoms: C_32  and  N_74
REMARK   15  A    between atoms: C_33  and  C_34
REMARK   16  A    between atoms: C_33  and  N_74
REMARK   17  A    between atoms: C_35  and  C_36
REMARK   18  A    between atoms: C_35  and  N_74
REMARK                            x       y       z     vdW  Elec       q    Type
REMARK                         _______ _______ _______ _____ _____    ______ ____
ROOT
ATOM      1  C   UNL     1      -1.985   6.189   4.362  0.00  0.00    +0.144 C 
ATOM      2  C   UNL     1      -3.157   6.758   5.127  0.00  0.00    +0.071 C 
ATOM      3  C   UNL     1      -3.104   7.631   6.197  0.00  0.00    +0.133 C 
ATOM      4  C   UNL     1      -4.309   6.222   4.534  0.00  0.00    +0.249 C 
ATOM      5  O   UNL     1      -5.457   6.446   4.873  0.00  0.00    -0.282 OA
ATOM      6  C   UNL     1      -3.886   5.337   3.415  0.00  0.00    +0.288 C 
ATOM      7  O   UNL     1      -4.641   4.720   2.692  0.00  0.00    -0.266 OA
ATOM      8  N   UNL     1      -2.545   5.318   3.324  0.00  0.00    -0.285 N 
ENDROOT
BRANCH   1  12
ATOM      9  C   UNL     1       0.264   9.347   2.564  0.00  0.00    +0.121 A 
ATOM     10  C   UNL     1       0.731   8.729   3.715  0.00  0.00    +0.046 A 
ATOM     11  C   UNL     1       0.002   7.708   4.294  0.00  0.00    +0.009 A 
ATOM     12  C   UNL     1      -1.192   7.302   3.728  0.00  0.00    -0.022 A 
ATOM     13  C   UNL     1      -1.657   7.912   2.578  0.00  0.00    +0.009 A 
ATOM     14  C   UNL     1      -0.935   8.938   1.998  0.00  0.00    +0.046 A 
BRANCH   9  15
ATOM     15  O   UNL     1       0.979  10.351   1.993  0.00  0.00    -0.492 OA
BRANCH  15  16
ATOM     16  C   UNL     1       0.437  10.941   0.809  0.00  0.00    +0.229 C 
BRANCH  16  18
ATOM     17  C   UNL     1       0.794  12.677  -0.952  0.00  0.00    +0.007 C 
ATOM     18  C   UNL     1       1.374  12.046   0.315  0.00  0.00    +0.038 C 
ENDBRANCH  16  18
ENDBRANCH  15  16
ENDBRANCH   9  15
ENDBRANCH   1  12
BRANCH   3  19
ATOM     19  C   UNL     1      -4.346   8.186   6.756  0.00  0.00    +0.017 A 
ATOM     20  C   UNL     1      -5.310   8.744   5.908  0.00  0.00    +0.015 A 
ATOM     21  C   UNL     1      -6.473   9.257   6.435  0.00  0.00    +0.046 A 
ATOM     22  C   UNL     1      -6.687   9.230   7.809  0.00  0.00    +0.121 A 
ATOM     23  C   UNL     1      -5.730   8.682   8.657  0.00  0.00    +0.046 A 
ATOM     24  C   UNL     1      -4.566   8.162   8.139  0.00  0.00    +0.015 A 
BRANCH  22  25
ATOM     25  O   UNL     1      -7.833   9.742   8.325  0.00  0.00    -0.492 OA
BRANCH  25  26
ATOM     26  C   UNL     1      -8.773  10.290   7.399  0.00  0.00    +0.229 C 
BRANCH  26  27
ATOM     27  C   UNL     1      -9.993  10.814   8.160  0.00  0.00    +0.038 C 
ATOM     28  C   UNL     1     -11.000  11.400   7.168  0.00  0.00    +0.007 C 
ENDBRANCH  26  27
ENDBRANCH  25  26
ENDBRANCH  22  25
ENDBRANCH   3  19
BRANCH   3  29
ATOM     29  O   UNL     1      -1.911   7.975   6.729  0.00  0.00    -0.506 OA
ATOM     30  H   UNL     1      -2.056   8.609   7.489  0.00  0.00    +0.292 HD
ENDBRANCH   3  29
BRANCH   8  31
ATOM     31  C   UNL     1      -1.770   4.555   2.343  0.00  0.00    +0.090 C 
BRANCH  31  32
ATOM     32  C   UNL     1      -1.447   3.172   2.911  0.00  0.00    -0.060 C 
BRANCH  32  33
ATOM     33  N   UNL     1      -0.684   2.408   1.902  0.00  0.00    +0.380 N 
ATOM     34  H   UNL     1      -1.191   2.434   1.010  0.00  0.00    -0.082 HD
BRANCH  33  35
ATOM     35  C   UNL     1      -0.544   1.001   2.333  0.00  0.00    -0.082 C 
ATOM     36  C   UNL     1      -1.864   0.274   2.070  0.00  0.00    -0.017 C 
ENDBRANCH  33  35
BRANCH  33  37
ATOM     37  C   UNL     1       0.651   3.014   1.714  0.00  0.00    -0.082 C 
ATOM     38  C   UNL     1       1.226   2.528   0.382  0.00  0.00    -0.017 C 
ENDBRANCH  33  37
ENDBRANCH  32  33
ENDBRANCH  31  32
ENDBRANCH   8  31
TORSDOF 14
