REMARK  Name = ZINC27367976
REMARK  5 active torsions:
REMARK  status: ('A' for Active; 'I' for Inactive)
REMARK    1  A    between atoms: C_4  and  C_7
REMARK    2  A    between atoms: C_7  and  N_8
REMARK    3  A    between atoms: C_9  and  C_11
REMARK    4  A    between atoms: N_14  and  C_17
REMARK    5  A    between atoms: C_17  and  C_18
REMARK                            x       y       z     vdW  Elec       q    Type
REMARK                         _______ _______ _______ _____ _____    ______ ____
ROOT
ATOM      1  C   UNL     1       1.445  -0.012   9.554  0.00  0.00    +0.071 C 
ATOM      2  C   UNL     1       2.818   0.522   9.139  0.00  0.00    -0.006 C 
ATOM      3  C   UNL     1       2.636   1.806   8.325  0.00  0.00    -0.078 C 
ATOM      4  N   UNL     1       1.821   1.522   7.137  0.00  0.00    +0.384 N 
ATOM      5  C   UNL     1       0.481   1.053   7.512  0.00  0.00    -0.078 C 
ATOM      6  C   UNL     1       0.599  -0.253   8.301  0.00  0.00    -0.006 C 
ATOM      7  H   UNL     1       2.315   0.715   6.577  0.00  0.00    -0.081 HD
ENDROOT
BRANCH   1   9
ATOM      8  N   UNL     1       0.533  -1.964  10.770  0.00  0.00    -0.311 N 
ATOM      9  C   UNL     1       1.614  -1.308  10.304  0.00  0.00    +0.216 C 
ATOM     10  O   UNL     1       2.724  -1.761  10.489  0.00  0.00    -0.276 OA
ATOM     11  H   UNL     1      -0.474  -1.553  10.602  0.00  0.00    +0.149 HD
BRANCH   8  12
ATOM     12  C   UNL     1       0.698  -3.224  11.499  0.00  0.00    +0.139 C 
BRANCH  12  16
ATOM     13  C   UNL     1      -3.135  -4.712  12.657  0.00  0.00    +0.000 A 
ATOM     14  C   UNL     1      -2.591  -5.077  11.440  0.00  0.00    +0.000 A 
ATOM     15  C   UNL     1      -1.351  -4.595  11.065  0.00  0.00    +0.005 A 
ATOM     16  C   UNL     1      -0.654  -3.749  11.907  0.00  0.00    -0.030 A 
ATOM     17  C   UNL     1      -1.196  -3.388  13.127  0.00  0.00    +0.005 A 
ATOM     18  C   UNL     1      -2.439  -3.865  13.499  0.00  0.00    +0.000 A 
ENDBRANCH  12  16
ENDBRANCH   8  12
ENDBRANCH   1   9
BRANCH   4  19
ATOM     19  C   UNL     1       1.741   2.699   6.261  0.00  0.00    -0.001 C 
BRANCH  19  20
ATOM     20  C   UNL     1       1.113   2.306   4.949  0.00  0.00    +0.116 A 
ATOM     21  N   UNL     1       1.886   1.892   3.961  0.00  0.00    -0.219 NA
ATOM     22  C   UNL     1       1.396   1.533   2.785  0.00  0.00    +0.128 A 
ATOM     23  C   UNL     1      -0.010   1.594   2.575  0.00  0.00    +0.051 A 
ATOM     24  C   UNL     1      -0.771   1.244   1.367  0.00  0.00    -0.025 A 
ATOM     25  C   UNL     1      -2.105   1.407   1.426  0.00  0.00    -0.004 A 
ATOM     26  S   UNL     1      -2.433   1.997   3.067  0.00  0.00    -0.073 S 
ATOM     27  C   UNL     1      -0.768   2.045   3.672  0.00  0.00    +0.114 A 
ATOM     28  N   UNL     1      -0.197   2.383   4.812  0.00  0.00    -0.227 NA
ATOM     29  C   UNL     1      -3.107   1.150   0.343  0.00  0.00    +0.043 C 
ATOM     30  C   UNL     1      -2.857  -0.237  -0.263  0.00  0.00    +0.005 C 
ATOM     31  C   UNL     1      -1.872  -0.085  -1.417  0.00  0.00    +0.001 C 
ATOM     32  C   UNL     1      -0.888   1.045  -1.120  0.00  0.00    +0.005 C 
ATOM     33  C   UNL     1      -0.064   0.721   0.120  0.00  0.00    +0.037 C 
ATOM     34  N   UNL     1       2.239   1.105   1.775  0.00  0.00    -0.343 N 
ATOM     35  H   UNL     1       1.823   0.808   0.801  0.00  0.00    +0.144 HD
ATOM     36  H   UNL     1       3.324   1.061   1.947  0.00  0.00    +0.144 HD
ENDBRANCH  19  20
ENDBRANCH   4  19
TORSDOF 5
