REMARK  Name = ZINC67041139
REMARK  9 active torsions:
REMARK  status: ('A' for Active; 'I' for Inactive)
REMARK    1  A    between atoms: C_1  and  C_2
REMARK    2  A    between atoms: C_6  and  C_7
REMARK    3  A    between atoms: N_9  and  N_10
REMARK    4  A    between atoms: N_13  and  C_14
REMARK    5  A    between atoms: C_14  and  C_15
REMARK    6  A    between atoms: C_20  and  S_21
REMARK    7  A    between atoms: S_21  and  N_24
REMARK    8  A    between atoms: N_24  and  C_25
REMARK    9  A    between atoms: N_24  and  C_26
REMARK                            x       y       z     vdW  Elec       q    Type
REMARK                         _______ _______ _______ _____ _____    ______ ____
ROOT
ATOM      1  N   UNL     1      -0.021  -0.510   5.551  0.00  0.00    -0.218 N 
ATOM      2  C   UNL     1       0.098  -1.530   6.423  0.00  0.00    +0.316 C 
ATOM      3  O   UNL     1       0.319  -1.304   7.597  0.00  0.00    -0.251 OA
ATOM      4  N   UNL     1      -0.029  -2.802   5.994  0.00  0.00    -0.294 N 
ATOM      5  H   UNL     1       0.003   0.406   5.870  0.00  0.00    +0.174 HD
ATOM      6  H   UNL     1      -0.137  -2.986   5.048  0.00  0.00    +0.151 HD
ENDROOT
BRANCH   1   9
ATOM      7  C   UNL     1      -0.297   0.249   3.312  0.00  0.00    +0.267 C 
ATOM      8  O   UNL     1      -0.267   1.398   3.712  0.00  0.00    -0.268 OA
ATOM      9  N   UNL     1      -0.179  -0.772   4.184  0.00  0.00    -0.229 N 
ATOM     10  H   UNL     1      -0.203  -1.687   3.865  0.00  0.00    +0.173 HD
BRANCH   7  16
ATOM     11  C   UNL     1      -0.598   2.361   1.042  0.00  0.00    +0.045 C 
ATOM     12  C   UNL     1      -0.600   0.869   0.830  0.00  0.00    -0.031 A 
ATOM     13  C   UNL     1      -0.734   0.308  -0.417  0.00  0.00    +0.011 A 
ATOM     14  C   UNL     1      -0.727  -1.043  -0.537  0.00  0.00    +0.046 A 
ATOM     15  S   UNL     1      -0.540  -1.595   1.039  0.00  0.00    -0.092 S 
ATOM     16  C   UNL     1      -0.463  -0.025   1.881  0.00  0.00    +0.078 A 
ENDBRANCH   7  16
ENDBRANCH   1   9
BRANCH   4  17
ATOM     17  C   UNL     1      -0.003  -3.906   6.957  0.00  0.00    +0.143 C 
BRANCH  17  18
ATOM     18  C   UNL     1      -0.052  -5.218   6.218  0.00  0.00    -0.004 A 
ATOM     19  C   UNL     1      -1.250  -5.898   6.094  0.00  0.00    +0.007 A 
ATOM     20  C   UNL     1      -1.295  -7.101   5.416  0.00  0.00    +0.000 A 
ATOM     21  C   UNL     1      -0.142  -7.625   4.861  0.00  0.00    +0.002 A 
ATOM     22  C   UNL     1       1.055  -6.946   4.984  0.00  0.00    +0.029 A 
ATOM     23  C   UNL     1       1.099  -5.739   5.658  0.00  0.00    +0.110 A 
BRANCH  23  24
ATOM     24  S   UNL     1       2.624  -4.870   5.809  0.00  0.00    +0.061 S 
ATOM     25  O   UNL     1       2.382  -3.545   5.357  0.00  0.00    -0.153 OA
ATOM     26  O   UNL     1       3.125  -5.152   7.109  0.00  0.00    -0.153 OA
BRANCH  24  27
ATOM     27  N   UNL     1       3.684  -5.551   4.735  0.00  0.00    -0.183 NA
ATOM     28  C   UNL     1       3.789  -5.020   3.373  0.00  0.00    +0.131 C 
ATOM     29  C   UNL     1       4.518  -6.683   5.146  0.00  0.00    +0.131 C 
ENDBRANCH  24  27
ENDBRANCH  23  24
ENDBRANCH  17  18
ENDBRANCH   4  17
TORSDOF 6
