REMARK  Name = ZINC59086945
REMARK  5 active torsions:
REMARK  status: ('A' for Active; 'I' for Inactive)
REMARK    1  A    between atoms: C_1  and  C_2
REMARK    2  A    between atoms: C_2  and  C_3
REMARK    3  A    between atoms: C_2  and  N_4
REMARK    4  A    between atoms: C_9  and  C_26
REMARK    5  A    between atoms: C_26  and  C_27
REMARK                            x       y       z     vdW  Elec       q    Type
REMARK                         _______ _______ _______ _____ _____    ______ ____
ROOT
ATOM      1  N   UNL     1      -1.372  -0.511   0.012  0.00  0.00    -0.239 N 
ATOM      2  C   UNL     1      -2.271  -0.240   1.005  0.00  0.00    +0.227 C 
ATOM      3  O   UNL     1      -2.197   0.636   1.839  0.00  0.00    -0.275 OA
ATOM      4  C   UNL     1      -3.372  -1.253   0.847  0.00  0.00    +0.107 C 
ATOM      5  C   UNL     1      -4.831  -0.800   0.982  0.00  0.00    +0.072 C 
ATOM      6  N   UNL     1      -5.541  -1.674  -0.011  0.00  0.00    -0.295 NA
ATOM      7  C   UNL     1      -4.551  -2.035  -1.073  0.00  0.00    +0.136 C 
ATOM      8  C   UNL     1      -3.321  -1.301  -0.734  0.00  0.00    +0.122 C 
ATOM      9  C   UNL     1      -1.897  -1.305  -0.977  0.00  0.00    +0.228 C 
ATOM     10  O   UNL     1      -1.299  -1.883  -1.858  0.00  0.00    -0.275 OA
ATOM     11  C   UNL     1      -4.366  -3.530  -1.098  0.00  0.00    +0.003 A 
ATOM     12  C   UNL     1      -3.885  -4.436  -0.180  0.00  0.00    +0.008 A 
ATOM     13  C   UNL     1      -3.833  -5.782  -0.498  0.00  0.00    +0.000 A 
ATOM     14  C   UNL     1      -4.267  -6.213  -1.738  0.00  0.00    +0.002 A 
ATOM     15  C   UNL     1      -4.752  -5.309  -2.660  0.00  0.00    +0.023 A 
ATOM     16  C   UNL     1      -4.807  -3.952  -2.348  0.00  0.00    +0.039 A 
ATOM     17  N   UNL     1      -5.250  -2.862  -3.098  0.00  0.00    -0.283 N 
ATOM     18  C   UNL     1      -5.135  -1.702  -2.425  0.00  0.00    +0.243 C 
ATOM     19  O   UNL     1      -5.441  -0.600  -2.829  0.00  0.00    -0.273 OA
ATOM     20  H   UNL     1      -5.911  -2.500   0.434  0.00  0.00    +0.124 HD
ATOM     21  H   UNL     1      -5.599  -2.932  -4.000  0.00  0.00    +0.155 HD
ENDROOT
BRANCH   1  23
ATOM     22  C   UNL     1      -0.019   1.526   0.010  0.00  0.00    +0.028 C 
ATOM     23  C   UNL     1       0.002  -0.004   0.002  0.00  0.00    +0.078 C 
ATOM     24  C   UNL     1       0.742  -0.511   1.242  0.00  0.00    +0.028 C 
ENDBRANCH   1  23
BRANCH   5  25
ATOM     25  C   UNL     1      -4.977   0.677   0.612  0.00  0.00    +0.056 C 
BRANCH  25  26
ATOM     26  C   UNL     1      -6.393   1.123   0.872  0.00  0.00    -0.021 A 
ATOM     27  C   UNL     1      -7.394   1.162  -0.022  0.00  0.00    +0.087 A 
ATOM     28  N   UNL     1      -8.536   1.621   0.577  0.00  0.00    -0.360 N 
ATOM     29  H   UNL     1      -9.390   1.736   0.132  0.00  0.00    +0.165 HD
ATOM     30  C   UNL     1      -8.291   1.895   1.904  0.00  0.00    +0.047 A 
ATOM     31  C   UNL     1      -6.940   1.589   2.148  0.00  0.00    +0.003 A 
ATOM     32  C   UNL     1      -6.406   1.765   3.426  0.00  0.00    +0.010 A 
ATOM     33  C   UNL     1      -7.201   2.231   4.435  0.00  0.00    +0.001 A 
ATOM     34  C   UNL     1      -8.536   2.531   4.200  0.00  0.00    +0.002 A 
ATOM     35  C   UNL     1      -9.081   2.373   2.944  0.00  0.00    +0.026 A 
ENDBRANCH  25  26
ENDBRANCH   5  25
TORSDOF 3
