REMARK  Name = ZINC21936741
REMARK  11 active torsions:
REMARK  status: ('A' for Active; 'I' for Inactive)
REMARK    1  A    between atoms: C_1  and  C_2
REMARK    2  A    between atoms: C_2  and  C_3
REMARK    3  A    between atoms: C_3  and  C_5
REMARK    4  A    between atoms: C_3  and  S_15
REMARK    5  A    between atoms: N_7  and  C_8
REMARK    6  A    between atoms: C_11  and  C_14
REMARK    7  A    between atoms: S_15  and  C_16
REMARK    8  A    between atoms: C_26  and  C_31
REMARK    9  A    between atoms: C_31  and  C_32
REMARK   10  A    between atoms: C_32  and  C_33
REMARK   11  A    between atoms: C_32  and  C_34
REMARK                            x       y       z     vdW  Elec       q    Type
REMARK                         _______ _______ _______ _____ _____    ______ ____
ROOT
ATOM      1  C   UNL     1       2.335   1.606  -0.192  0.00  0.00    +0.170 C 
ATOM      2  N   UNL     1       3.200   2.580  -0.099  0.00  0.00    -0.225 NA
ATOM      3  C   UNL     1       2.822   3.883  -0.094  0.00  0.00    +0.077 A 
ATOM      4  C   UNL     1       3.762   4.912   0.005  0.00  0.00    +0.028 A 
ATOM      5  C   UNL     1       3.342   6.223   0.006  0.00  0.00    +0.002 A 
ATOM      6  C   UNL     1       1.994   6.538  -0.090  0.00  0.00    +0.001 A 
ATOM      7  C   UNL     1       1.048   5.539  -0.189  0.00  0.00    +0.013 A 
ATOM      8  C   UNL     1       1.453   4.208  -0.192  0.00  0.00    +0.041 A 
ATOM      9  C   UNL     1       0.475   3.103  -0.296  0.00  0.00    +0.139 C 
ATOM     10  N   UNL     1      -0.824   3.132  -0.395  0.00  0.00    -0.255 NA
ATOM     11  C   UNL     1      -1.300   1.744  -0.474  0.00  0.00    +0.194 C 
ATOM     12  C   UNL     1      -0.035   0.918  -0.392  0.00  0.00    +0.251 C 
ATOM     13  O   UNL     1       0.055  -0.291  -0.416  0.00  0.00    -0.272 OA
ATOM     14  N   UNL     1       0.975   1.812  -0.291  0.00  0.00    -0.200 N 
ENDROOT
BRANCH   1  15
ATOM     15  S   UNL     1       2.935  -0.051  -0.188  0.00  0.00    -0.077 S 
BRANCH  15  16
ATOM     16  C   UNL     1       4.718   0.261  -0.196  0.00  0.00    +0.140 C 
BRANCH  16  17
ATOM     17  C   UNL     1       5.133   0.834   1.135  0.00  0.00    +0.231 C 
ATOM     18  O   UNL     1       4.471   0.609   2.125  0.00  0.00    -0.274 OA
ATOM     19  N   UNL     1       6.241   1.597   1.224  0.00  0.00    -0.285 N 
ATOM     20  H   UNL     1       6.794   1.872   0.313  0.00  0.00    +0.155 HD
BRANCH  19  21
ATOM     21  C   UNL     1       6.688   2.038   2.474  0.00  0.00    +0.033 A 
ATOM     22  C   UNL     1       7.291   3.283   2.597  0.00  0.00    +0.023 A 
ATOM     23  C   UNL     1       7.726   3.719   3.833  0.00  0.00    +0.005 A 
ATOM     24  C   UNL     1       7.572   2.912   4.946  0.00  0.00    -0.050 A 
ATOM     25  C   UNL     1       6.976   1.670   4.826  0.00  0.00    +0.005 A 
ATOM     26  C   UNL     1       6.534   1.231   3.593  0.00  0.00    +0.023 A 
ATOM     27  C   UNL     1       8.053   3.388   6.292  0.00  0.00    +0.044 C 
ENDBRANCH  19  21
ENDBRANCH  16  17
BRANCH  16  29
ATOM     28  C   UNL     1       5.151  -1.562  -1.848  0.00  0.00    +0.005 C 
ATOM     29  C   UNL     1       5.464  -1.053  -0.440  0.00  0.00    +0.020 C 
ENDBRANCH  16  29
ENDBRANCH  15  16
ENDBRANCH   1  15
BRANCH  11  30
ATOM     30  C   UNL     1      -2.018   1.495  -1.802  0.00  0.00    +0.039 C 
BRANCH  30  31
ATOM     31  C   UNL     1      -3.353   2.244  -1.808  0.00  0.00    -0.015 C 
ATOM     32  C   UNL     1      -4.013   2.097  -3.181  0.00  0.00    +0.007 C 
ATOM     33  C   UNL     1      -4.272   1.657  -0.735  0.00  0.00    +0.007 C 
ENDBRANCH  30  31
ENDBRANCH  11  30
TORSDOF 7
