REMARK  Name = ZINC39847476
REMARK  13 active torsions:
REMARK  status: ('A' for Active; 'I' for Inactive)
REMARK    1  A    between atoms: C_1  and  C_2
REMARK    2  A    between atoms: C_2  and  N_3
REMARK    3  A    between atoms: N_3  and  C_4
REMARK    4  A    between atoms: N_3  and  C_6
REMARK    5  A    between atoms: C_4  and  C_5
REMARK    6  A    between atoms: C_6  and  C_7
REMARK    7  A    between atoms: C_7  and  N_8
REMARK    8  A    between atoms: C_9  and  C_30
REMARK    9  A    between atoms: C_11  and  C_16
REMARK   10  A    between atoms: C_16  and  C_18
REMARK   11  A    between atoms: C_23  and  O_28
REMARK   12  A    between atoms: O_28  and  C_29
REMARK   13  A    between atoms: C_33  and  N_36
REMARK                            x       y       z     vdW  Elec       q    Type
REMARK                         _______ _______ _______ _____ _____    ______ ____
ROOT
ATOM      1  N   UNL     1      -1.121  -3.354  -1.964  0.00  0.00    -0.285 N 
ATOM      2  C   UNL     1      -1.369  -4.275  -3.080  0.00  0.00    +0.145 C 
ATOM      3  C   UNL     1      -1.932  -5.536  -2.468  0.00  0.00    +0.076 C 
ATOM      4  C   UNL     1      -1.991  -5.329  -1.131  0.00  0.00    +0.249 C 
ATOM      5  C   UNL     1      -1.482  -3.975  -0.827  0.00  0.00    +0.288 C 
ATOM      6  O   UNL     1      -1.402  -3.494   0.286  0.00  0.00    -0.266 OA
ATOM      7  O   UNL     1      -2.441  -6.221  -0.219  0.00  0.00    -0.282 OA
ENDROOT
BRANCH   2   8
ATOM      8  C   UNL     1      -0.079  -4.578  -3.797  0.00  0.00    -0.022 A 
ATOM      9  C   UNL     1       1.041  -4.952  -3.078  0.00  0.00    +0.008 A 
ATOM     10  C   UNL     1       2.225  -5.229  -3.737  0.00  0.00    +0.033 A 
ATOM     11  C   UNL     1       2.288  -5.134  -5.114  0.00  0.00    +0.126 A 
ATOM     12  C   UNL     1       1.168  -4.761  -5.833  0.00  0.00    +0.033 A 
ATOM     13  C   UNL     1      -0.016  -4.487  -5.175  0.00  0.00    +0.008 A 
BRANCH  11  14
ATOM     14  N   UNL     1       3.555  -5.430  -5.819  0.00  0.00    +0.056 N 
ATOM     15  O   UNL     1       4.535  -5.756  -5.190  0.00  0.00    -0.126 OA
ATOM     16  O   UNL     1       3.611  -5.346  -7.024  0.00  0.00    -0.126 OA
ENDBRANCH  11  14
ENDBRANCH   2   8
BRANCH   3  17
ATOM     17  C   UNL     1      -2.338  -6.749  -3.183  0.00  0.00    +0.195 C 
ATOM     18  O   UNL     1      -1.719  -7.785  -3.024  0.00  0.00    -0.287 OA
BRANCH  17  19
ATOM     19  C   UNL     1      -3.498  -6.715  -4.097  0.00  0.00    +0.023 A 
ATOM     20  C   UNL     1      -4.242  -5.528  -4.237  0.00  0.00    +0.012 A 
ATOM     21  C   UNL     1      -5.310  -5.473  -5.070  0.00  0.00    +0.009 A 
ATOM     22  C   UNL     1      -5.689  -6.610  -5.809  0.00  0.00    -0.014 A 
ATOM     23  C   UNL     1      -6.790  -6.574  -6.677  0.00  0.00    +0.054 A 
ATOM     24  C   UNL     1      -7.135  -7.703  -7.386  0.00  0.00    +0.121 A 
ATOM     25  C   UNL     1      -6.399  -8.885  -7.250  0.00  0.00    +0.046 A 
ATOM     26  C   UNL     1      -5.327  -8.948  -6.417  0.00  0.00    +0.012 A 
ATOM     27  C   UNL     1      -4.947  -7.813  -5.677  0.00  0.00    -0.017 A 
ATOM     28  C   UNL     1      -3.842  -7.850  -4.815  0.00  0.00    +0.020 A 
BRANCH  24  29
ATOM     29  O   UNL     1      -8.202  -7.668  -8.226  0.00  0.00    -0.495 OA
ATOM     30  C   UNL     1      -8.510  -8.871  -8.933  0.00  0.00    +0.277 C 
ENDBRANCH  24  29
ENDBRANCH  17  19
ENDBRANCH   3  17
BRANCH   1  31
ATOM     31  C   UNL     1      -0.573  -1.999  -2.070  0.00  0.00    +0.090 C 
BRANCH  31  32
ATOM     32  C   UNL     1       0.953  -2.058  -1.973  0.00  0.00    -0.060 C 
BRANCH  32  33
ATOM     33  N   UNL     1       1.503  -0.700  -2.079  0.00  0.00    +0.380 N 
ATOM     34  H   UNL     1       1.170  -0.267  -2.928  0.00  0.00    -0.082 HD
BRANCH  33  36
ATOM     35  C   UNL     1       1.517   1.547  -1.105  0.00  0.00    -0.017 C 
ATOM     36  C   UNL     1       1.070   0.096  -0.922  0.00  0.00    -0.082 C 
ENDBRANCH  33  36
BRANCH  33  37
ATOM     37  C   UNL     1       2.970  -0.766  -2.106  0.00  0.00    -0.082 C 
ATOM     38  C   UNL     1       3.425  -1.467  -3.388  0.00  0.00    -0.017 C 
ENDBRANCH  33  37
ENDBRANCH  32  33
ENDBRANCH  31  32
ENDBRANCH   1  31
TORSDOF 10
