REMARK  Name = ZINC63362689
REMARK  11 active torsions:
REMARK  status: ('A' for Active; 'I' for Inactive)
REMARK    1  A    between atoms: CD1_1  and  CG1_2
REMARK    2  A    between atoms: CG1_2  and  CB_3
REMARK    3  A    between atoms: CB_3  and  CG2_5
REMARK    4  A    between atoms: CB_3  and  CA_6
REMARK    5  A    between atoms: CA_6  and  C_8
REMARK    6  A    between atoms: CA_6  and  N_11
REMARK    7  A    between atoms: C_12  and  C_14
REMARK    8  A    between atoms: C_20  and  C_22
REMARK    9  A    between atoms: C_22  and  C_24
REMARK   10  A    between atoms: C_22  and  N_34
REMARK   11  A    between atoms: C_24  and  C_25
REMARK                            x       y       z     vdW  Elec       q    Type
REMARK                         _______ _______ _______ _____ _____    ______ ____
ROOT
ATOM      1  C   UNK A   0       2.120  -4.282   4.007  0.00  0.00    +0.078 C 
ATOM      2  C   UNK A   0       3.629  -4.192   3.772  0.00  0.00    +0.032 C 
ATOM      3  C   UNK A   0       4.367  -4.668   5.027  0.00  0.00    +0.108 C 
ATOM      4  N   UNK A   0       3.889  -6.013   5.375  0.00  0.00    -0.303 N 
ATOM      5  C   UNK A   0       2.445  -6.231   5.536  0.00  0.00    +0.108 C 
ATOM      6  C   UNK A   0       1.729  -5.737   4.274  0.00  0.00    +0.032 C 
ATOM      7  C   UNK A   0       4.759  -7.029   5.544  0.00  0.00    +0.201 C 
ATOM      8  O   UNK A   0       5.949  -6.837   5.408  0.00  0.00    -0.277 OA
ENDROOT
BRANCH   1  10
ATOM      9  N   ILE A   1       1.581  -2.519   2.358  0.00  0.00    -0.302 N 
ATOM     10  C   UNK A   0       1.391  -3.783   2.786  0.00  0.00    +0.217 C 
ATOM     11  O   UNK A   0       0.634  -4.518   2.189  0.00  0.00    -0.275 OA
ATOM     12  H   ILE A   1       2.186  -1.931   2.835  0.00  0.00    +0.150 HD
BRANCH   9  13
ATOM     13  CA  ILE A   1       0.872  -2.034   1.171  0.00  0.00    +0.189 C 
BRANCH  13  14
ATOM     14  C   ILE A   1       1.644  -2.415  -0.066  0.00  0.00    +0.376 C 
ATOM     15  O   ILE A   1       2.858  -2.518  -0.019  0.00  0.00    -0.244 OA
ATOM     16  OXT ILE A   1       1.054  -2.621  -1.113  0.00  0.00    -0.244 OA
ENDBRANCH  13  14
BRANCH  13  17
ATOM     17  CB  ILE A   1       0.742  -0.511   1.242  0.00  0.00    +0.017 C 
ATOM     18  CG2 ILE A   1      -0.042  -0.124   2.497  0.00  0.00    +0.010 C 
BRANCH  17  20
ATOM     19  CD1 ILE A   1      -0.019   1.526   0.010  0.00  0.00    +0.004 C 
ATOM     20  CG1 ILE A   1       0.002  -0.004   0.002  0.00  0.00    +0.002 C 
ENDBRANCH  17  20
ENDBRANCH  13  17
ENDBRANCH   9  13
ENDBRANCH   1  10
BRANCH   7  21
ATOM     21  C   UNK A   0       4.254  -8.403   5.900  0.00  0.00    +0.017 C 
BRANCH  21  22
ATOM     22  N   UNK A   0       5.276  -9.403   5.566  0.00  0.00    +0.386 N 
ATOM     23  H   UNK A   0       4.938 -10.323   5.805  0.00  0.00    -0.089 HD
ATOM     24  H   UNK A   0       5.475  -9.364   4.577  0.00  0.00    -0.089 HD
ATOM     25  H   UNK A   0       6.119  -9.209   6.086  0.00  0.00    -0.089 HD
ENDBRANCH  21  22
BRANCH  21  26
ATOM     26  C   UNK A   0       3.953  -8.462   7.399  0.00  0.00    +0.026 C 
BRANCH  26  27
ATOM     27  C   UNK A   0       3.333  -9.794   7.735  0.00  0.00    -0.043 C 
ATOM     28  C   UNK A   0       3.971 -10.896   8.191  0.00  0.00    -0.001 A 
ATOM     29  C   UNK A   0       5.379 -11.174   8.500  0.00  0.00    +0.010 A 
ATOM     30  C   UNK A   0       5.721 -12.402   8.951  0.00  0.00    +0.001 A 
ATOM     31  C   UNK A   0       4.768 -13.414   9.130  0.00  0.00    +0.002 A 
ATOM     32  C   UNK A   0       3.456 -13.234   8.869  0.00  0.00    +0.026 A 
ATOM     33  C   UNK A   0       2.983 -11.981   8.390  0.00  0.00    +0.043 A 
ATOM     34  N   UNK A   0       1.782 -11.566   8.069  0.00  0.00    -0.380 N 
ATOM     35  C   UNK A   0       1.871 -10.167   7.635  0.00  0.00    +0.144 C 
ATOM     36  H   UNK A   0       0.970 -12.094   8.114  0.00  0.00    +0.160 HD
ENDBRANCH  26  27
ENDBRANCH  21  26
ENDBRANCH   7  21
TORSDOF 9
