REMARK  Name = ZINC60060166
REMARK  11 active torsions:
REMARK  status: ('A' for Active; 'I' for Inactive)
REMARK    1  A    between atoms: C_1  and  C_2
REMARK    2  A    between atoms: C_2  and  C_3
REMARK    3  A    between atoms: C_3  and  C_4
REMARK    4  A    between atoms: C_4  and  N_5
REMARK    5  A    between atoms: N_5  and  C_6
REMARK    6  A    between atoms: C_9  and  S_27
REMARK    7  A    between atoms: C_11  and  N_12
REMARK    8  A    between atoms: N_12  and  S_13
REMARK    9  A    between atoms: S_13  and  C_16
REMARK   10  A    between atoms: C_24  and  C_26
REMARK   11  A    between atoms: S_27  and  N_30
REMARK                            x       y       z     vdW  Elec       q    Type
REMARK                         _______ _______ _______ _____ _____    ______ ____
ROOT
ATOM      1  C   UNL     1       1.928  -3.550  -2.561  0.00  0.00    +0.050 A 
ATOM      2  C   UNL     1       1.582  -4.361  -1.490  0.00  0.00    +0.027 A 
ATOM      3  C   UNL     1       1.453  -5.726  -1.670  0.00  0.00    +0.030 A 
ATOM      4  C   UNL     1       1.669  -6.286  -2.915  0.00  0.00    +0.107 A 
ATOM      5  C   UNL     1       2.015  -5.486  -3.988  0.00  0.00    +0.054 A 
ATOM      6  C   UNL     1       2.141  -4.115  -3.818  0.00  0.00    +0.071 A 
ENDROOT
BRANCH   4   7
ATOM      7  S   UNL     1       1.504  -8.027  -3.135  0.00  0.00    +0.056 S 
ATOM      8  O   UNL     1       2.385  -8.388  -4.189  0.00  0.00    -0.153 OA
ATOM      9  O   UNL     1       1.583  -8.609  -1.842  0.00  0.00    -0.153 OA
BRANCH   7  10
ATOM     10  N   UNL     1      -0.033  -8.307  -3.687  0.00  0.00    -0.204 NA
ATOM     11  H   UNL     1      -0.225  -9.104  -4.205  0.00  0.00    +0.144 HD
ATOM     12  H   UNL     1      -0.741  -7.673  -3.492  0.00  0.00    +0.144 HD
ENDBRANCH   7  10
ENDBRANCH   4   7
BRANCH   1  13
ATOM     13  N   UNL     1       2.059  -2.168  -2.381  0.00  0.00    -0.342 N 
ATOM     14  H   UNL     1       2.297  -1.601  -3.132  0.00  0.00    +0.146 HD
BRANCH  13  15
ATOM     15  C   UNL     1       1.835  -1.576  -1.060  0.00  0.00    +0.101 C 
BRANCH  15  16
ATOM     16  C   UNL     1       2.039  -0.062  -1.137  0.00  0.00    +0.018 C 
BRANCH  16  18
ATOM     17  C   UNL     1       2.010   2.070   0.165  0.00  0.00    +0.004 C 
ATOM     18  C   UNL     1       1.806   0.556   0.243  0.00  0.00    -0.002 C 
ENDBRANCH  16  18
ENDBRANCH  15  16
ENDBRANCH  13  15
ENDBRANCH   1  13
BRANCH   6  19
ATOM     19  N   UNL     1       2.486  -3.302  -4.904  0.00  0.00    -0.214 N 
ATOM     20  H   UNL     1       3.050  -2.525  -4.768  0.00  0.00    +0.174 HD
BRANCH  19  21
ATOM     21  S   UNL     1       1.930  -3.666  -6.421  0.00  0.00    +0.074 S 
ATOM     22  O   UNL     1       0.545  -3.954  -6.288  0.00  0.00    -0.150 OA
ATOM     23  O   UNL     1       2.417  -2.650  -7.287  0.00  0.00    -0.150 OA
BRANCH  21  24
ATOM     24  C   UNL     1       2.711  -5.166  -6.916  0.00  0.00    +0.134 A 
ATOM     25  C   UNL     1       1.965  -6.282  -7.142  0.00  0.00    +0.031 A 
ATOM     26  C   UNL     1       2.562  -7.478  -7.534  0.00  0.00    +0.003 A 
ATOM     27  C   UNL     1       3.911  -7.564  -7.702  0.00  0.00    +0.010 A 
ATOM     28  C   UNL     1       4.711  -6.432  -7.478  0.00  0.00    +0.003 A 
ATOM     29  C   UNL     1       4.106  -5.213  -7.084  0.00  0.00    +0.098 A 
ATOM     30  N   UNL     1       4.863  -4.132  -6.874  0.00  0.00    -0.253 NA
ATOM     31  C   UNL     1       6.164  -4.170  -7.029  0.00  0.00    +0.114 A 
ATOM     32  C   UNL     1       6.822  -5.335  -7.419  0.00  0.00    -0.032 A 
ATOM     33  C   UNL     1       6.109  -6.479  -7.639  0.00  0.00    +0.015 A 
ATOM     34  C   UNL     1       8.319  -5.335  -7.586  0.00  0.00    +0.045 C 
ENDBRANCH  21  24
ENDBRANCH  19  21
ENDBRANCH   6  19
TORSDOF 9
