REMARK  Name = ZINC40624229
REMARK  1 active torsions:
REMARK  status: ('A' for Active; 'I' for Inactive)
REMARK    1  A    between atoms: C_4  and  C_7
REMARK                            x       y       z     vdW  Elec       q    Type
REMARK                         _______ _______ _______ _____ _____    ______ ____
ROOT
ATOM      1  C   UNL     1       2.859  -0.454  -2.507  0.00  0.00    +0.219 C 
ATOM      2  O   UNL     1       3.216   0.340  -3.353  0.00  0.00    -0.275 OA
ATOM      3  N   UNL     1       3.087  -1.771  -2.680  0.00  0.00    -0.292 N 
ATOM      4  C   UNL     1       2.555  -2.758  -1.728  0.00  0.00    +0.136 C 
ATOM      5  C   UNL     1       1.827  -3.846  -2.527  0.00  0.00    +0.179 C 
ATOM      6  O   UNL     1       2.710  -4.361  -3.525  0.00  0.00    -0.372 OA
ATOM      7  C   UNL     1       3.121  -3.406  -4.506  0.00  0.00    +0.161 C 
ATOM      8  C   UNL     1       3.867  -2.253  -3.826  0.00  0.00    +0.127 C 
ATOM      9  C   UNL     1       5.249  -2.735  -3.330  0.00  0.00    +0.191 C 
ATOM     10  S   UNL     1       5.640  -4.106  -4.492  0.00  0.00    -0.027 S 
ATOM     11  O   UNL     1       6.722  -3.713  -5.325  0.00  0.00    -0.174 OA
ATOM     12  O   UNL     1       5.727  -5.322  -3.761  0.00  0.00    -0.174 OA
ATOM     13  C   UNL     1       4.101  -4.113  -5.485  0.00  0.00    +0.199 C 
ENDROOT
BRANCH   1  17
ATOM     14  C   UNL     1       0.529   2.028   0.129  0.00  0.00    +0.000 C 
ATOM     15  C   UNL     1       2.026   1.884   0.408  0.00  0.00    +0.001 C 
ATOM     16  C   UNL     1       2.736   1.390  -0.854  0.00  0.00    +0.013 C 
ATOM     17  C   UNL     1       2.160   0.033  -1.264  0.00  0.00    +0.075 C 
ATOM     18  C   UNL     1       0.663   0.177  -1.544  0.00  0.00    +0.013 C 
ATOM     19  C   UNL     1      -0.046   0.671  -0.282  0.00  0.00    +0.001 C 
ENDBRANCH   1  17
TORSDOF 1
