REMARK  Name = ZINC20115334
REMARK  7 active torsions:
REMARK  status: ('A' for Active; 'I' for Inactive)
REMARK    1  A    between atoms: C_1  and  C_2
REMARK    2  A    between atoms: C_2  and  C_15
REMARK    3  A    between atoms: N_3  and  N_4
REMARK    4  A    between atoms: C_5  and  C_7
REMARK    5  A    between atoms: C_7  and  C_8
REMARK    6  A    between atoms: C_17  and  O_22
REMARK    7  A    between atoms: C_20  and  O_21
REMARK                            x       y       z     vdW  Elec       q    Type
REMARK                         _______ _______ _______ _____ _____    ______ ____
ROOT
ATOM      1  C   UNL     1       0.090   1.510   0.009  0.00  0.00    +0.068 C 
ATOM      2  C   UNL     1      -0.005   0.006   0.011  0.00  0.00    +0.067 C 
ATOM      3  N   UNL     1      -0.052  -0.639   1.136  0.00  0.00    -0.184 NA
ENDROOT
BRANCH   2   4
ATOM      4  C   UNL     1      -0.045  -0.731  -1.264  0.00  0.00    +0.042 A 
ATOM      5  C   UNL     1      -1.191  -1.442  -1.628  0.00  0.00    +0.058 A 
ATOM      6  C   UNL     1      -1.222  -2.132  -2.827  0.00  0.00    +0.118 A 
ATOM      7  C   UNL     1      -0.116  -2.119  -3.667  0.00  0.00    +0.049 A 
ATOM      8  C   UNL     1       1.022  -1.419  -3.314  0.00  0.00    +0.049 A 
ATOM      9  C   UNL     1       1.065  -0.719  -2.120  0.00  0.00    +0.126 A 
BRANCH   9  10
ATOM     10  O   UNL     1       2.182  -0.026  -1.776  0.00  0.00    -0.506 OA
ATOM     11  H   UNL     1       2.791  -0.518  -1.209  0.00  0.00    +0.292 HD
ENDBRANCH   9  10
BRANCH   6  12
ATOM     12  O   UNL     1      -2.337  -2.824  -3.183  0.00  0.00    -0.507 OA
ATOM     13  H   UNL     1      -2.976  -2.306  -3.691  0.00  0.00    +0.292 HD
ENDBRANCH   6  12
ENDBRANCH   2   4
BRANCH   3  14
ATOM     14  N   UNL     1      -0.223  -2.030   1.139  0.00  0.00    -0.206 N 
ATOM     15  C   UNL     1      -0.383  -2.687   2.305  0.00  0.00    +0.237 C 
ATOM     16  O   UNL     1      -0.379  -2.074   3.352  0.00  0.00    -0.274 OA
ATOM     17  H   UNL     1      -0.227  -2.520   0.302  0.00  0.00    +0.177 HD
BRANCH  15  18
ATOM     18  C   UNL     1      -0.567  -4.182   2.309  0.00  0.00    +0.132 C 
BRANCH  18  19
ATOM     19  C   UNL     1      -0.723  -4.666   3.727  0.00  0.00    -0.038 A 
ATOM     20  C   UNL     1       0.392  -5.028   4.460  0.00  0.00    +0.005 A 
ATOM     21  C   UNL     1       0.249  -5.472   5.761  0.00  0.00    +0.020 A 
ATOM     22  C   UNL     1      -1.009  -5.554   6.330  0.00  0.00    +0.041 A 
ATOM     23  C   UNL     1      -2.124  -5.191   5.596  0.00  0.00    +0.020 A 
ATOM     24  C   UNL     1      -1.980  -4.742   4.297  0.00  0.00    +0.005 A 
ATOM     25 CL   UNL     1      -1.189  -6.112   7.965  0.00  0.00    -0.084 Cl
ENDBRANCH  18  19
ENDBRANCH  15  18
ENDBRANCH   3  14
TORSDOF 6
