REMARK  Name = ZINC09766111
REMARK  13 active torsions:
REMARK  status: ('A' for Active; 'I' for Inactive)
REMARK    1  A    between atoms: C_1  and  C_2
REMARK    2  A    between atoms: C_2  and  O_3
REMARK    3  A    between atoms: O_3  and  C_4
REMARK    4  A    between atoms: C_4  and  C_5
REMARK    5  A    between atoms: C_5  and  N_6
REMARK    6  A    between atoms: C_8  and  O_35
REMARK    7  A    between atoms: N_15  and  C_16
REMARK    8  A    between atoms: C_16  and  C_18
REMARK    9  A    between atoms: C_21  and  S_24
REMARK   10  A    between atoms: S_24  and  N_27
REMARK   11  A    between atoms: C_32  and  C_34
REMARK   12  A    between atoms: O_35  and  C_36
REMARK   13  A    between atoms: C_36  and  C_37
REMARK                            x       y       z     vdW  Elec       q    Type
REMARK                         _______ _______ _______ _____ _____    ______ ____
ROOT
ATOM      1  N   UNL     1      -1.965  -8.683  -0.804  0.00  0.00    -0.316 N 
ATOM      2  C   UNL     1      -2.263  -9.962  -0.366  0.00  0.00    +0.100 A 
ATOM      3  C   UNL     1      -1.496 -11.134  -0.507  0.00  0.00    +0.145 A 
ATOM      4  C   UNL     1      -1.949 -12.336  -0.005  0.00  0.00    +0.048 A 
ATOM      5  C   UNL     1      -3.167 -12.426   0.648  0.00  0.00    +0.005 A 
ATOM      6  C   UNL     1      -3.939 -11.288   0.799  0.00  0.00    +0.017 A 
ATOM      7  C   UNL     1      -3.489 -10.088   0.299  0.00  0.00    +0.042 A 
ATOM      8  S   UNL     1      -4.135  -8.434   0.279  0.00  0.00    -0.052 S 
ATOM      9  C   UNL     1      -2.837  -7.665  -0.575  0.00  0.00    +0.167 A 
ATOM     10  N   UNL     1      -2.719  -6.386  -0.917  0.00  0.00    -0.152 NA
ENDROOT
BRANCH  10  11
ATOM     11  C   UNL     1      -3.687  -5.519  -0.605  0.00  0.00    +0.269 C 
ATOM     12  O   UNL     1      -4.677  -5.901  -0.006  0.00  0.00    -0.268 OA
BRANCH  11  13
ATOM     13  C   UNL     1      -3.555  -4.094  -0.987  0.00  0.00    +0.039 A 
ATOM     14  C   UNL     1      -4.563  -3.186  -0.662  0.00  0.00    +0.015 A 
ATOM     15  C   UNL     1      -4.436  -1.860  -1.021  0.00  0.00    +0.029 A 
ATOM     16  C   UNL     1      -3.310  -1.430  -1.701  0.00  0.00    +0.106 A 
ATOM     17  C   UNL     1      -2.309  -2.326  -2.030  0.00  0.00    +0.029 A 
ATOM     18  C   UNL     1      -2.423  -3.654  -1.673  0.00  0.00    +0.015 A 
BRANCH  16  19
ATOM     19  S   UNL     1      -3.154   0.265  -2.156  0.00  0.00    +0.061 S 
ATOM     20  O   UNL     1      -4.452   0.834  -2.053  0.00  0.00    -0.153 OA
ATOM     21  O   UNL     1      -2.404   0.295  -3.363  0.00  0.00    -0.153 OA
BRANCH  19  22
ATOM     22  N   UNL     1      -2.223   0.999  -1.001  0.00  0.00    -0.174 NA
ATOM     23  C   UNL     1      -0.789   1.225  -1.228  0.00  0.00    +0.110 C 
ATOM     24  C   UNL     1      -0.480   2.708  -0.996  0.00  0.00    +0.017 C 
ATOM     25  C   UNL     1      -0.968   3.115   0.397  0.00  0.00    +0.003 C 
ATOM     26  C   UNL     1      -2.483   2.916   0.486  0.00  0.00    +0.020 C 
ATOM     27  C   UNL     1      -2.814   1.436   0.271  0.00  0.00    +0.077 C 
ATOM     28  C   UNL     1      -4.332   1.251   0.222  0.00  0.00    +0.026 C 
ENDBRANCH  19  22
ENDBRANCH  16  19
ENDBRANCH  11  13
ENDBRANCH  10  11
BRANCH   1  29
ATOM     29  C   UNL     1      -0.709  -8.426  -1.513  0.00  0.00    +0.152 C 
BRANCH  29  30
ATOM     30  C   UNL     1       0.381  -8.059  -0.504  0.00  0.00    +0.181 C 
BRANCH  30  31
ATOM     31  O   UNL     1       1.606  -7.809  -1.197  0.00  0.00    -0.378 OA
BRANCH  31  33
ATOM     32  C   UNL     1       3.947  -7.212  -1.185  0.00  0.00    +0.034 C 
ATOM     33  C   UNL     1       2.695  -7.456  -0.342  0.00  0.00    +0.156 C 
ENDBRANCH  31  33
ENDBRANCH  30  31
ENDBRANCH  29  30
ENDBRANCH   1  29
BRANCH   3  34
ATOM     34  O   UNL     1      -0.295 -11.081  -1.144  0.00  0.00    -0.490 OA
BRANCH  34  35
ATOM     35  C   UNL     1       0.436 -12.304  -1.254  0.00  0.00    +0.226 C 
ATOM     36  C   UNL     1       1.750 -12.048  -1.995  0.00  0.00    +0.048 C 
ENDBRANCH  34  35
ENDBRANCH   3  34
TORSDOF 10
