REMARK  Name = ZINC08534577
REMARK  6 active torsions:
REMARK  status: ('A' for Active; 'I' for Inactive)
REMARK    1  A    between atoms: C_1  and  C_2
REMARK    2  A    between atoms: C_7  and  C_28
REMARK    3  A    between atoms: N_9  and  N_15
REMARK    4  A    between atoms: C_10  and  C_12
REMARK    5  A    between atoms: C_16  and  C_18
REMARK    6  A    between atoms: C_22  and  N_24
REMARK                            x       y       z     vdW  Elec       q    Type
REMARK                         _______ _______ _______ _____ _____    ______ ____
ROOT
ATOM      1  C   UNL     1      -0.322  -0.028   0.094  0.00  0.00    +0.014 C 
ATOM      2  C   UNL     1      -0.341   1.499   0.002  0.00  0.00    +0.003 C 
ATOM      3  C   UNL     1      -1.230   2.214   1.041  0.00  0.00    +0.010 C 
ATOM      4  C   UNL     1      -0.615   3.628   1.227  0.00  0.00    +0.005 C 
ATOM      5  C   UNL     1       0.470   3.692   0.100  0.00  0.00    -0.001 C 
ATOM      6  C   UNL     1       1.047   2.234   0.186  0.00  0.00    -0.007 C 
ATOM      7  C   UNL     1       1.743   1.912  -1.156  0.00  0.00    +0.114 C 
ATOM      8  N   UNL     1       0.661   1.695  -2.144  0.00  0.00    -0.211 NA
ATOM      9  C   UNL     1      -0.609   2.094  -1.424  0.00  0.00    +0.121 C 
ATOM     10  C   UNL     1      -0.428   3.625  -1.180  0.00  0.00    +0.038 C 
ATOM     11  C   UNL     1       1.843   1.896   1.449  0.00  0.00    +0.013 C 
ENDROOT
BRANCH   9  12
ATOM     12  C   UNL     1      -1.896   1.669  -2.083  0.00  0.00    +0.233 C 
ATOM     13  O   UNL     1      -2.820   1.268  -1.407  0.00  0.00    -0.274 OA
ATOM     14  N   UNL     1      -2.021   1.734  -3.424  0.00  0.00    -0.328 N 
ATOM     15  H   UNL     1      -1.311   2.123  -3.958  0.00  0.00    +0.145 HD
ATOM     16  H   UNL     1      -2.820   1.391  -3.854  0.00  0.00    +0.145 HD
ENDBRANCH   9  12
BRANCH   8  17
ATOM     17  N   UNL     1       0.851   2.466  -3.255  0.00  0.00    -0.243 N 
ATOM     18  C   UNL     1       0.884   1.895  -4.475  0.00  0.00    +0.258 C 
ATOM     19  O   UNL     1       0.656   0.707  -4.596  0.00  0.00    -0.269 OA
ATOM     20  H   UNL     1       0.961   3.426  -3.166  0.00  0.00    +0.170 HD
BRANCH  18  21
ATOM     21  C   UNL     1       1.198   2.712  -5.665  0.00  0.00    +0.040 A 
ATOM     22  C   UNL     1       1.455   4.078  -5.530  0.00  0.00    +0.014 A 
ATOM     23  C   UNL     1       1.753   4.834  -6.644  0.00  0.00    +0.023 A 
ATOM     24  C   UNL     1       1.786   4.243  -7.897  0.00  0.00    +0.071 A 
ATOM     25  C   UNL     1       1.527   2.890  -8.038  0.00  0.00    +0.145 A 
ATOM     26  C   UNL     1       1.234   2.122  -6.930  0.00  0.00    +0.047 A 
ATOM     27 CL   UNL     1       2.155   5.203  -9.295  0.00  0.00    -0.081 Cl
BRANCH  25  28
ATOM     28  N   UNL     1       1.565   2.267  -9.380  0.00  0.00    +0.058 N 
ATOM     29  O   UNL     1       1.338   1.077  -9.505  0.00  0.00    -0.126 OA
ATOM     30  O   UNL     1       1.824   2.944 -10.359  0.00  0.00    -0.126 OA
ENDBRANCH  25  28
ENDBRANCH  18  21
ENDBRANCH   8  17
TORSDOF 4
