REMARK  Name = ZINC63209551
REMARK  6 active torsions:
REMARK  status: ('A' for Active; 'I' for Inactive)
REMARK    1  A    between atoms: C_7  and  C_10
REMARK    2  A    between atoms: C_13  and  S_15
REMARK    3  A    between atoms: S_15  and  C_16
REMARK    4  A    between atoms: C_16  and  C_17
REMARK    5  A    between atoms: N_19  and  C_20
REMARK    6  A    between atoms: C_21  and  C_25
REMARK                            x       y       z     vdW  Elec       q    Type
REMARK                         _______ _______ _______ _____ _____    ______ ____
ROOT
ATOM      1  S   UNL     1      -0.305  -6.886  -0.026  0.00  0.00    -0.056 S 
ENDROOT
BRANCH   1   5
ATOM      2  C   UNL     1       0.676  -3.130  -0.022  0.00  0.00    +0.248 A 
ATOM      3  N   UNL     1      -0.646  -3.061  -0.014  0.00  0.00    -0.107 NA
ATOM      4  N   UNL     1      -1.132  -4.253  -0.015  0.00  0.00    -0.101 NA
ATOM      5  C   UNL     1      -0.141  -5.131  -0.023  0.00  0.00    +0.278 A 
ATOM      6  O   UNL     1       1.013  -4.441  -0.033  0.00  0.00    -0.411 OA
BRANCH   2  13
ATOM      7  C   UNL     1      -0.016   1.354   0.009  0.00  0.00    +0.001 A 
ATOM      8  C   UNL     1       1.163   2.101   0.002  0.00  0.00    +0.002 A 
ATOM      9  C   UNL     1       2.384   1.511  -0.013  0.00  0.00    +0.026 A 
ATOM     10  C   UNL     1       2.483   0.096  -0.022  0.00  0.00    +0.043 A 
ATOM     11  N   UNL     1       3.531  -0.705  -0.037  0.00  0.00    -0.380 N 
ATOM     12  C   UNL     1       3.075  -2.098  -0.041  0.00  0.00    +0.154 C 
ATOM     13  C   UNL     1       1.563  -2.044  -0.025  0.00  0.00    +0.044 C 
ATOM     14  C   UNL     1       1.237  -0.687  -0.013  0.00  0.00    +0.008 A 
ATOM     15  C   UNL     1       0.002  -0.004   0.002  0.00  0.00    +0.010 A 
ATOM     16  H   UNL     1       4.457  -0.417  -0.045  0.00  0.00    +0.160 HD
ENDBRANCH   2  13
ENDBRANCH   1   5
BRANCH   1  17
ATOM     17  C   UNL     1      -2.099  -7.159  -0.017  0.00  0.00    +0.175 C 
BRANCH  17  18
ATOM     18  C   UNL     1      -2.382  -8.639  -0.018  0.00  0.00    +0.228 C 
ATOM     19  O   UNL     1      -1.464  -9.431  -0.025  0.00  0.00    -0.275 OA
ATOM     20  N   UNL     1      -3.655  -9.082  -0.012  0.00  0.00    -0.279 N 
ATOM     21  H   UNL     1      -4.389  -8.447  -0.006  0.00  0.00    +0.155 HD
BRANCH  20  22
ATOM     22  C   UNL     1      -3.915 -10.444  -0.014  0.00  0.00    +0.084 A 
ATOM     23  C   UNL     1      -5.150 -11.076  -0.014  0.00  0.00    +0.065 A 
ATOM     24  C   UNL     1      -5.136 -12.521  -0.015  0.00  0.00    +0.022 A 
ATOM     25  C   UNL     1      -3.919 -13.096  -0.017  0.00  0.00    +0.048 A 
ATOM     26  S   UNL     1      -2.809 -11.705  -0.023  0.00  0.00    -0.081 S 
BRANCH  23  27
ATOM     27  C   UNL     1      -6.404 -10.317  -0.011  0.00  0.00    +0.244 C 
ATOM     28  O   UNL     1      -6.379  -9.100  -0.009  0.00  0.00    -0.270 OA
ATOM     29  N   UNL     1      -7.585 -10.967  -0.011  0.00  0.00    -0.325 N 
ATOM     30  H   UNL     1      -7.605 -11.937  -0.013  0.00  0.00    +0.145 HD
ATOM     31  H   UNL     1      -8.415 -10.465  -0.010  0.00  0.00    +0.145 HD
ENDBRANCH  23  27
ENDBRANCH  20  22
ENDBRANCH  17  18
ENDBRANCH   1  17
TORSDOF 6
