REMARK  Name = ZINC44737195
REMARK  6 active torsions:
REMARK  status: ('A' for Active; 'I' for Inactive)
REMARK    1  A    between atoms: C_1  and  C_2
REMARK    2  A    between atoms: C_9  and  C_11
REMARK    3  A    between atoms: C_11  and  C_13
REMARK    4  A    between atoms: C_11  and  N_14
REMARK    5  A    between atoms: C_15  and  C_17
REMARK    6  A    between atoms: C_28  and  C_30
REMARK                            x       y       z     vdW  Elec       q    Type
REMARK                         _______ _______ _______ _____ _____    ______ ____
ROOT
ATOM      1  C   UNL     1      -1.827  -9.079   0.412  0.00  0.00    +0.100 C 
ATOM      2  C   UNL     1      -0.530  -9.459  -0.339  0.00  0.00    +0.121 C 
ATOM      3  N   UNL     1      -0.008 -10.639   0.390  0.00  0.00    -0.296 N 
ATOM      4  C   UNL     1      -1.217 -11.430   0.725  0.00  0.00    +0.115 C 
ATOM      5  C   UNL     1      -2.276 -10.376   1.105  0.00  0.00    -0.004 C 
ATOM      6  C   UNL     1      -3.650 -10.800   0.595  0.00  0.00    -0.010 C 
ATOM      7  C   UNL     1      -4.101 -12.059   1.341  0.00  0.00    -0.082 C 
ATOM      8  N   UNL     1      -4.155 -11.783   2.782  0.00  0.00    +0.379 N 
ATOM      9  C   UNL     1      -2.812 -11.466   3.283  0.00  0.00    -0.082 C 
ATOM     10  C   UNL     1      -2.307 -10.182   2.618  0.00  0.00    -0.010 C 
ATOM     11  C   UNL     1       1.276 -10.928   0.682  0.00  0.00    +0.247 C 
ATOM     12  O   UNL     1       2.150 -10.116   0.449  0.00  0.00    -0.270 OA
ATOM     13  H   UNL     1      -4.769 -10.999   2.950  0.00  0.00    -0.086 HD
ATOM     14  H   UNL     1      -4.511 -12.594   3.265  0.00  0.00    -0.086 HD
ENDROOT
BRANCH  11  15
ATOM     15  C   UNL     1       1.621 -12.233   1.284  0.00  0.00    +0.037 A 
ATOM     16  C   UNL     1       0.747 -13.315   1.161  0.00  0.00    +0.014 A 
ATOM     17  C   UNL     1       1.074 -14.530   1.726  0.00  0.00    +0.016 A 
ATOM     18  C   UNL     1       2.267 -14.678   2.414  0.00  0.00    +0.018 A 
ATOM     19  C   UNL     1       3.138 -13.608   2.539  0.00  0.00    +0.016 A 
ATOM     20  C   UNL     1       2.824 -12.390   1.974  0.00  0.00    +0.014 A 
ATOM     21 BR   UNL     1       2.708 -16.347   3.186  0.00  0.00    -0.050 Br
ENDBRANCH  11  15
BRANCH   1  23
ATOM     22  N   UNL     1      -2.541  -7.201   1.854  0.00  0.00    -0.305 N 
ATOM     23  C   UNL     1      -1.547  -8.007   1.433  0.00  0.00    +0.219 C 
ATOM     24  O   UNL     1      -0.426  -7.870   1.877  0.00  0.00    -0.275 OA
ATOM     25  H   UNL     1      -3.437  -7.310   1.498  0.00  0.00    +0.149 HD
BRANCH  22  26
ATOM     26  C   UNL     1      -2.269  -6.159   2.847  0.00  0.00    +0.136 C 
ATOM     27  C   UNL     1      -1.749  -4.905   2.141  0.00  0.00    +0.036 C 
BRANCH  26  36
ATOM     28  C   UNL     1      -7.721  -4.128   7.487  0.00  0.00    +0.044 C 
ATOM     29  C   UNL     1      -6.984  -4.645   6.279  0.00  0.00    -0.048 A 
ATOM     30  C   UNL     1      -7.698  -5.092   5.176  0.00  0.00    +0.005 A 
ATOM     31  C   UNL     1      -7.048  -5.564   4.071  0.00  0.00    +0.030 A 
ATOM     32  C   UNL     1      -5.651  -5.599   4.046  0.00  0.00    +0.089 A 
ATOM     33  C   UNL     1      -4.929  -5.147   5.162  0.00  0.00    +0.067 A 
ATOM     34  C   UNL     1      -5.606  -4.665   6.275  0.00  0.00    +0.031 A 
ATOM     35  N   UNL     1      -3.595  -5.304   4.842  0.00  0.00    -0.340 N 
ATOM     36  C   UNL     1      -3.539  -5.828   3.588  0.00  0.00    +0.128 A 
ATOM     37  N   UNL     1      -4.741  -6.001   3.122  0.00  0.00    -0.231 NA
ATOM     38  H   UNL     1      -2.838  -5.082   5.407  0.00  0.00    +0.167 HD
ENDBRANCH  26  36
ENDBRANCH  22  26
ENDBRANCH   1  23
TORSDOF 4
