REMARK  Name = ZINC40645185
REMARK  8 active torsions:
REMARK  status: ('A' for Active; 'I' for Inactive)
REMARK    1  A    between atoms: C_1  and  C_2
REMARK    2  A    between atoms: C_2  and  C_28
REMARK    3  A    between atoms: C_4  and  N_10
REMARK    4  A    between atoms: C_6  and  C_8
REMARK    5  A    between atoms: C_6  and  C_9
REMARK    6  A    between atoms: C_12  and  N_25
REMARK    7  A    between atoms: C_13  and  N_17
REMARK    8  A    between atoms: N_17  and  C_18
REMARK                            x       y       z     vdW  Elec       q    Type
REMARK                         _______ _______ _______ _____ _____    ______ ____
ROOT
ATOM      1  N   UNL     1       3.108  -1.412  -2.252  0.00  0.00    -0.324 N 
ATOM      2  C   UNL     1       4.156  -0.746  -2.869  0.00  0.00    +0.155 A 
ATOM      3  C   UNL     1       4.557  -1.098  -4.155  0.00  0.00    +0.205 A 
ATOM      4  C   UNL     1       5.614  -0.398  -4.730  0.00  0.00    +0.159 A 
ATOM      5  N   UNL     1       6.198   0.576  -4.035  0.00  0.00    -0.218 NA
ATOM      6  C   UNL     1       5.789   0.880  -2.820  0.00  0.00    +0.225 A 
ATOM      7  N   UNL     1       4.789   0.245  -2.243  0.00  0.00    -0.218 NA
ATOM      8  H   UNL     1       2.652  -2.133  -2.715  0.00  0.00    +0.148 HD
ENDROOT
BRANCH   1  12
ATOM      9  C   UNL     1       0.575   0.456   0.828  0.00  0.00    -0.010 C 
ATOM     10  C   UNL     1       0.773  -1.060   0.717  0.00  0.00    -0.072 C 
ATOM     11  C   UNL     1       1.226  -1.419  -0.694  0.00  0.00    +0.009 C 
ATOM     12  C   UNL     1       2.690  -1.028  -0.899  0.00  0.00    +0.069 C 
ATOM     13  C   UNL     1       3.534  -1.788   0.125  0.00  0.00    +0.009 C 
ATOM     14  C   UNL     1       3.098  -1.432   1.542  0.00  0.00    -0.072 C 
ATOM     15  N   UNL     1       1.665  -1.552   1.751  0.00  0.00    +0.386 N 
ATOM     16  C   UNL     1       3.597  -0.029   1.901  0.00  0.00    -0.010 C 
ATOM     17  C   UNL     1       3.798  -2.421   2.503  0.00  0.00    -0.010 C 
ATOM     18  C   UNL     1      -0.611  -1.714   0.939  0.00  0.00    -0.010 C 
ATOM     19  H   UNL     1       1.429  -1.083   2.631  0.00  0.00    -0.084 HD
ATOM     20  H   UNL     1       1.448  -2.540   1.917  0.00  0.00    -0.084 HD
ENDBRANCH   1  12
BRANCH   3  21
ATOM     21  N   UNL     1       3.879  -2.188  -4.890  0.00  0.00    +0.063 N 
ATOM     22  O   UNL     1       2.925  -1.943  -5.592  0.00  0.00    -0.126 OA
ATOM     23  O   UNL     1       4.278  -3.325  -4.790  0.00  0.00    -0.126 OA
ENDBRANCH   3  21
BRANCH   4  24
ATOM     24  N   UNL     1       6.052  -0.711  -6.008  0.00  0.00    -0.297 N 
ATOM     25  H   UNL     1       5.564  -1.356  -6.544  0.00  0.00    +0.154 HD
BRANCH  24  26
ATOM     26  C   UNL     1       7.197  -0.097  -6.525  0.00  0.00    +0.047 A 
ATOM     27  C   UNL     1       8.180   0.377  -5.666  0.00  0.00    +0.024 A 
ATOM     28  C   UNL     1       9.310   0.982  -6.179  0.00  0.00    +0.002 A 
ATOM     29  C   UNL     1       9.464   1.118  -7.547  0.00  0.00    +0.001 A 
ATOM     30  C   UNL     1       8.487   0.647  -8.406  0.00  0.00    +0.017 A 
ATOM     31  C   UNL     1       7.356   0.035  -7.899  0.00  0.00    +0.039 A 
ATOM     32 BR   UNL     1       6.024  -0.614  -9.074  0.00  0.00    -0.048 Br
ENDBRANCH  24  26
ENDBRANCH   4  24
TORSDOF 4
