REMARK  Name = ZINC37063223
REMARK  7 active torsions:
REMARK  status: ('A' for Active; 'I' for Inactive)
REMARK    1  A    between atoms: C_1  and  C_2
REMARK    2  A    between atoms: C_2  and  N_3
REMARK    3  A    between atoms: C_7  and  C_9
REMARK    4  A    between atoms: C_9  and  N_10
REMARK    5  A    between atoms: N_10  and  S_11
REMARK    6  A    between atoms: S_11  and  C_14
REMARK    7  A    between atoms: C_17  and  N_21
REMARK                            x       y       z     vdW  Elec       q    Type
REMARK                         _______ _______ _______ _____ _____    ______ ____
ROOT
ATOM      1  S   UNL     1      -1.918  -2.235  -4.069  0.00  0.00    +0.060 S 
ATOM      2  O   UNL     1      -1.248  -1.360  -4.966  0.00  0.00    -0.153 OA
ATOM      3  O   UNL     1      -1.709  -3.640  -4.077  0.00  0.00    -0.153 OA
ENDROOT
BRANCH   1   4
ATOM      4  C   UNL     1      -3.644  -1.980  -4.312  0.00  0.00    +0.133 A 
ATOM      5  C   UNL     1      -4.543  -2.977  -3.974  0.00  0.00    +0.047 A 
ATOM      6  C   UNL     1      -5.898  -2.780  -4.165  0.00  0.00    +0.040 A 
ATOM      7  C   UNL     1      -6.357  -1.581  -4.696  0.00  0.00    +0.027 A 
ATOM      8  C   UNL     1      -5.452  -0.583  -5.033  0.00  0.00    +0.040 A 
ATOM      9  C   UNL     1      -4.099  -0.783  -4.836  0.00  0.00    +0.047 A 
ATOM     10 BR   UNL     1      -2.867   0.578  -5.289  0.00  0.00    -0.048 Br
ATOM     11 BR   UNL     1      -3.918  -4.608  -3.252  0.00  0.00    -0.048 Br
BRANCH   7  12
ATOM     12  N   UNL     1      -7.725  -1.380  -4.889  0.00  0.00    -0.358 N 
ATOM     13  H   UNL     1      -8.356  -2.078  -4.653  0.00  0.00    +0.142 HD
ATOM     14  H   UNL     1      -8.044  -0.542  -5.260  0.00  0.00    +0.142 HD
ENDBRANCH   7  12
ENDBRANCH   1   4
BRANCH   1  15
ATOM     15  N   UNL     1      -1.557  -1.711  -2.540  0.00  0.00    -0.191 NA
ATOM     16  H   UNL     1      -0.970  -0.949  -2.414  0.00  0.00    +0.148 HD
BRANCH  15  17
ATOM     17  C   UNL     1      -2.124  -2.399  -1.377  0.00  0.00    +0.090 C 
BRANCH  17  22
ATOM     18  N   UNL     1      -1.376  -0.512   0.012  0.00  0.00    +0.382 N 
ATOM     19  C   UNL     1      -2.028  -0.158   1.291  0.00  0.00    -0.078 C 
ATOM     20  C   UNL     1      -2.935  -1.369   1.623  0.00  0.00    -0.020 C 
ATOM     21  C   UNL     1      -2.064  -2.556   1.133  0.00  0.00    -0.016 C 
ATOM     22  C   UNL     1      -1.364  -1.981  -0.117  0.00  0.00    -0.053 C 
ATOM     23  H   UNL     1      -1.894  -0.109  -0.754  0.00  0.00    -0.081 HD
BRANCH  18  25
ATOM     24  C   UNL     1      -0.019   1.526   0.010  0.00  0.00    -0.017 C 
ATOM     25  C   UNL     1       0.002  -0.004   0.002  0.00  0.00    -0.082 C 
ENDBRANCH  18  25
ENDBRANCH  17  22
ENDBRANCH  15  17
ENDBRANCH   1  15
TORSDOF 6
