REMARK  Name = ZINC08843098
REMARK  12 active torsions:
REMARK  status: ('A' for Active; 'I' for Inactive)
REMARK    1  A    between atoms: C_1  and  C_2
REMARK    2  A    between atoms: C_2  and  C_3
REMARK    3  A    between atoms: C_5  and  C_37
REMARK    4  A    between atoms: C_7  and  O_9
REMARK    5  A    between atoms: O_9  and  C_10
REMARK    6  A    between atoms: C_10  and  C_11
REMARK    7  A    between atoms: C_11  and  O_12
REMARK    8  A    between atoms: O_12  and  C_13
REMARK    9  A    between atoms: C_16  and  C_19
REMARK   10  A    between atoms: N_26  and  C_29
REMARK   11  A    between atoms: C_32  and  O_35
REMARK   12  A    between atoms: O_35  and  C_36
REMARK                            x       y       z     vdW  Elec       q    Type
REMARK                         _______ _______ _______ _____ _____    ______ ____
ROOT
ATOM      1  C   UNL     1       5.167   9.000   1.516  0.00  0.00    +0.121 A 
ATOM      2  C   UNL     1       5.161   9.043   2.906  0.00  0.00    +0.046 A 
ATOM      3  C   UNL     1       6.295   9.387   3.586  0.00  0.00    +0.011 A 
ATOM      4  C   UNL     1       7.463   9.709   2.879  0.00  0.00    -0.024 A 
ATOM      5  C   UNL     1       7.460   9.670   1.476  0.00  0.00    +0.011 A 
ATOM      6  C   UNL     1       6.322   9.318   0.808  0.00  0.00    +0.046 A 
ENDROOT
BRANCH   4   7
ATOM      7  C   UNL     1       8.678  10.086   3.600  0.00  0.00    +0.026 C 
ATOM      8  C   UNL     1       8.613  11.000   4.634  0.00  0.00    +0.100 C 
ATOM      9  C   UNL     1       9.759  11.227   5.537  0.00  0.00    +0.257 C 
ATOM     10  O   UNL     1      10.798  10.610   5.395  0.00  0.00    -0.270 OA
ATOM     11  N   UNL     1       9.622  12.136   6.524  0.00  0.00    -0.235 N 
ATOM     12  C   UNL     1       8.483  12.822   6.692  0.00  0.00    +0.320 C 
ATOM     13  O   UNL     1       8.425  13.626   7.601  0.00  0.00    -0.251 OA
ATOM     14  N   UNL     1       7.404  12.669   5.912  0.00  0.00    -0.190 N 
ATOM     15  C   UNL     1       7.396  11.799   4.881  0.00  0.00    +0.263 C 
ATOM     16  O   UNL     1       6.412  11.673   4.177  0.00  0.00    -0.269 OA
ATOM     17  H   UNL     1      10.365  12.297   7.126  0.00  0.00    +0.159 HD
BRANCH  14  18
ATOM     18  C   UNL     1       6.258  13.436   6.170  0.00  0.00    +0.046 A 
ATOM     19  C   UNL     1       5.287  12.962   7.042  0.00  0.00    +0.027 A 
ATOM     20  C   UNL     1       4.162  13.720   7.300  0.00  0.00    +0.047 A 
ATOM     21  C   UNL     1       3.996  14.949   6.678  0.00  0.00    +0.120 A 
ATOM     22  C   UNL     1       4.963  15.420   5.802  0.00  0.00    +0.047 A 
ATOM     23  C   UNL     1       6.091  14.666   5.548  0.00  0.00    +0.027 A 
BRANCH  21  24
ATOM     24  O   UNL     1       2.885  15.693   6.929  0.00  0.00    -0.495 OA
ATOM     25  C   UNL     1       1.931  15.146   7.841  0.00  0.00    +0.277 C 
ENDBRANCH  21  24
ENDBRANCH  14  18
ENDBRANCH   4   7
BRANCH   1  26
ATOM     26  O   UNL     1       4.040   8.652   0.846  0.00  0.00    -0.489 OA
BRANCH  26  27
ATOM     27  C   UNL     1       2.889   8.337   1.633  0.00  0.00    +0.270 C 
BRANCH  27  28
ATOM     28  C   UNL     1       1.724   7.971   0.711  0.00  0.00    +0.270 C 
BRANCH  28  29
ATOM     29  O   UNL     1       2.038   6.770   0.002  0.00  0.00    -0.489 OA
BRANCH  29  34
ATOM     30  C   UNL     1       0.386   4.671  -2.468  0.00  0.00    -0.044 A 
ATOM     31  C   UNL     1      -0.804   5.355  -2.632  0.00  0.00    +0.007 A 
ATOM     32  C   UNL     1      -1.044   6.513  -1.915  0.00  0.00    -0.047 A 
ATOM     33  C   UNL     1      -0.093   6.989  -1.032  0.00  0.00    +0.049 A 
ATOM     34  C   UNL     1       1.102   6.304  -0.866  0.00  0.00    +0.121 A 
ATOM     35  C   UNL     1       1.337   5.140  -1.583  0.00  0.00    +0.049 A 
ATOM     36  C   UNL     1      -2.342   7.256  -2.096  0.00  0.00    +0.044 C 
BRANCH  30  38
ATOM     37  C   UNL     1       1.324   3.760  -4.575  0.00  0.00    +0.009 C 
ATOM     38  C   UNL     1       0.643   3.409  -3.251  0.00  0.00    +0.032 C 
ENDBRANCH  30  38
ENDBRANCH  29  34
ENDBRANCH  28  29
ENDBRANCH  27  28
ENDBRANCH  26  27
ENDBRANCH   1  26
TORSDOF 9
