REMARK  Name = ZINC39575920
REMARK  11 active torsions:
REMARK  status: ('A' for Active; 'I' for Inactive)
REMARK    1  A    between atoms: C_1  and  O_2
REMARK    2  A    between atoms: O_2  and  C_3
REMARK    3  A    between atoms: C_6  and  C_9
REMARK    4  A    between atoms: C_13  and  S_24
REMARK    5  A    between atoms: N_15  and  C_16
REMARK    6  A    between atoms: C_19  and  O_22
REMARK    7  A    between atoms: O_22  and  C_23
REMARK    8  A    between atoms: S_24  and  C_25
REMARK    9  A    between atoms: C_25  and  C_26
REMARK   10  A    between atoms: N_28  and  N_29
REMARK   11  A    between atoms: C_30  and  C_31
REMARK                            x       y       z     vdW  Elec       q    Type
REMARK                         _______ _______ _______ _____ _____    ______ ____
ROOT
ATOM      1  C   UNL     1       2.518  -2.489  -4.361  0.00  0.00    +0.188 C 
ATOM      2  N   UNL     1       3.591  -1.630  -4.928  0.00  0.00    -0.230 NA
ATOM      3  N   UNL     1       4.455  -2.597  -5.624  0.00  0.00    -0.226 NA
ATOM      4  C   UNL     1       4.453  -3.790  -4.747  0.00  0.00    +0.218 C 
ATOM      5  N   UNL     1       3.217  -3.721  -3.945  0.00  0.00    -0.284 N 
ATOM      6  H   UNL     1       4.098  -1.154  -4.196  0.00  0.00    +0.143 HD
ATOM      7  H   UNL     1       5.389  -2.232  -5.736  0.00  0.00    +0.143 HD
ENDROOT
BRANCH   1  11
ATOM      8  C   UNL     1       0.704  -0.586  -0.992  0.00  0.00    +0.120 A 
ATOM      9  C   UNL     1      -0.055  -0.884  -2.114  0.00  0.00    +0.046 A 
ATOM     10  C   UNL     1       0.533  -1.499  -3.202  0.00  0.00    +0.010 A 
ATOM     11  C   UNL     1       1.879  -1.818  -3.173  0.00  0.00    -0.011 A 
ATOM     12  C   UNL     1       2.638  -1.522  -2.056  0.00  0.00    +0.010 A 
ATOM     13  C   UNL     1       2.055  -0.902  -0.968  0.00  0.00    +0.046 A 
BRANCH   8  15
ATOM     14  C   UNL     1      -1.267   0.314  -0.015  0.00  0.00    +0.277 C 
ATOM     15  O   UNL     1       0.128   0.019   0.080  0.00  0.00    -0.495 OA
ENDBRANCH   8  15
ENDBRANCH   1  11
BRANCH   5  16
ATOM     16  C   UNL     1       2.790  -4.640  -2.979  0.00  0.00    +0.033 A 
ATOM     17  C   UNL     1       1.533  -4.509  -2.403  0.00  0.00    +0.027 A 
ATOM     18  C   UNL     1       1.113  -5.417  -1.450  0.00  0.00    +0.047 A 
ATOM     19  C   UNL     1       1.946  -6.458  -1.069  0.00  0.00    +0.120 A 
ATOM     20  C   UNL     1       3.201  -6.590  -1.644  0.00  0.00    +0.047 A 
ATOM     21  C   UNL     1       3.621  -5.686  -2.600  0.00  0.00    +0.027 A 
BRANCH  19  22
ATOM     22  O   UNL     1       1.531  -7.352  -0.131  0.00  0.00    -0.495 OA
ATOM     23  C   UNL     1       2.439  -8.399   0.214  0.00  0.00    +0.277 C 
ENDBRANCH  19  22
ENDBRANCH   5  16
BRANCH   4  24
ATOM     24  S   UNL     1       4.457  -5.300  -5.752  0.00  0.00    -0.112 S 
BRANCH  24  25
ATOM     25  C   UNL     1       2.958  -5.157  -6.764  0.00  0.00    +0.169 C 
BRANCH  25  26
ATOM     26  C   UNL     1       2.839  -6.365  -7.658  0.00  0.00    +0.242 C 
ATOM     27  O   UNL     1       3.682  -7.236  -7.616  0.00  0.00    -0.273 OA
ATOM     28  N   UNL     1       1.796  -6.476  -8.504  0.00  0.00    -0.206 N 
ATOM     29  H   UNL     1       1.121  -5.780  -8.537  0.00  0.00    +0.177 HD
BRANCH  28  30
ATOM     30  N   UNL     1       1.685  -7.599  -9.335  0.00  0.00    -0.188 NA
ATOM     31  C   UNL     1       0.671  -7.707 -10.156  0.00  0.00    +0.136 C 
BRANCH  31  32
ATOM     32  C   UNL     1       0.560  -8.831 -10.988  0.00  0.00    +0.000 C 
ATOM     33  C   UNL     1      -0.445  -9.096 -11.915  0.00  0.00    +0.004 A 
ATOM     34  C   UNL     1      -1.600  -8.381 -12.302  0.00  0.00    +0.010 A 
ATOM     35  C   UNL     1      -2.420  -8.892 -13.254  0.00  0.00    +0.001 A 
ATOM     36  C   UNL     1      -2.153 -10.117 -13.871  0.00  0.00    +0.002 A 
ATOM     37  C   UNL     1      -1.064 -10.857 -13.551  0.00  0.00    +0.026 A 
ATOM     38  C   UNL     1      -0.158 -10.388 -12.563  0.00  0.00    +0.043 A 
ATOM     39  N   UNL     1       0.951 -10.909 -12.081  0.00  0.00    -0.380 N 
ATOM     40  C   UNL     1       1.510 -10.005 -11.070  0.00  0.00    +0.150 C 
ATOM     41  H   UNL     1       1.339 -11.755 -12.354  0.00  0.00    +0.160 HD
ENDBRANCH  31  32
ENDBRANCH  28  30
ENDBRANCH  25  26
ENDBRANCH  24  25
ENDBRANCH   4  24
TORSDOF 9
