REMARK  Name = ZINC62677891
REMARK  5 active torsions:
REMARK  status: ('A' for Active; 'I' for Inactive)
REMARK    1  A    between atoms: C_8  and  C_10
REMARK    2  A    between atoms: N_12  and  S_13
REMARK    3  A    between atoms: S_13  and  C_16
REMARK    4  A    between atoms: C_19  and  C_22
REMARK    5  A    between atoms: C_22  and  N_23
REMARK                            x       y       z     vdW  Elec       q    Type
REMARK                         _______ _______ _______ _____ _____    ______ ____
ROOT
ATOM      1  S   UNL     1       4.870  -5.898  -0.078  0.00  0.00    +0.102 S 
ATOM      2  O   UNL     1       4.473  -6.454   1.168  0.00  0.00    -0.146 OA
ATOM      3  O   UNL     1       4.449  -6.440  -1.323  0.00  0.00    -0.146 OA
ENDROOT
BRANCH   1   4
ATOM      4  C   UNL     1       6.632  -5.909  -0.096  0.00  0.00    +0.113 A 
ATOM      5  C   UNL     1       7.311  -5.901  -1.299  0.00  0.00    +0.029 A 
ATOM      6  C   UNL     1       8.694  -5.909  -1.313  0.00  0.00    +0.007 A 
ATOM      7  C   UNL     1       9.396  -5.925  -0.123  0.00  0.00    -0.030 A 
ATOM      8  C   UNL     1       8.717  -5.932   1.081  0.00  0.00    +0.007 A 
ATOM      9  C   UNL     1       7.335  -5.920   1.095  0.00  0.00    +0.029 A 
BRANCH   7  10
ATOM     10  C   UNL     1      10.903  -5.935  -0.137  0.00  0.00    +0.141 C 
BRANCH  10  11
ATOM     11  N   UNL     1      11.401  -4.557  -0.129  0.00  0.00    -0.295 N 
ATOM     12  C   UNL     1      12.727  -4.319  -0.139  0.00  0.00    +0.297 C 
ATOM     13  O   UNL     1      13.511  -5.249  -0.156  0.00  0.00    -0.253 OA
ATOM     14  N   UNL     1      13.185  -3.052  -0.132  0.00  0.00    -0.313 N 
ATOM     15  H   UNL     1      10.776  -3.816  -0.116  0.00  0.00    +0.151 HD
ATOM     16  H   UNL     1      12.560  -2.310  -0.118  0.00  0.00    +0.146 HD
ATOM     17  H   UNL     1      14.140  -2.881  -0.139  0.00  0.00    +0.146 HD
ENDBRANCH  10  11
ENDBRANCH   7  10
ENDBRANCH   1   4
BRANCH   1  20
ATOM     18  C   UNL     1       3.121  -4.017  -0.051  0.00  0.00    +0.302 C 
ATOM     19  O   UNL     1       2.196  -5.005  -0.047  0.00  0.00    -0.263 OA
ATOM     20  N   UNL     1       4.390  -4.314  -0.065  0.00  0.00    -0.085 NA
BRANCH  18  28
ATOM     21  C   UNL     1      -0.016   1.354   0.009  0.00  0.00    +0.001 A 
ATOM     22  C   UNL     1       1.157   2.098   0.002  0.00  0.00    +0.001 A 
ATOM     23  C   UNL     1       2.374   1.448  -0.013  0.00  0.00    +0.015 A 
ATOM     24  C   UNL     1       2.408   0.070  -0.021  0.00  0.00    +0.020 A 
ATOM     25  C   UNL     1       1.230  -0.713  -0.014  0.00  0.00    -0.010 A 
ATOM     26  C   UNL     1       0.002  -0.004   0.002  0.00  0.00    +0.009 A 
ATOM     27  C   UNL     1       1.433  -2.106  -0.023  0.00  0.00    +0.029 A 
ATOM     28  C   UNL     1       2.694  -2.608  -0.039  0.00  0.00    +0.081 A 
ATOM     29  S   UNL     1       3.708  -1.139  -0.040  0.00  0.00    -0.083 S 
ENDBRANCH  18  28
ENDBRANCH   1  20
TORSDOF 5
