REMARK  Name = ZINC66243890
REMARK  5 active torsions:
REMARK  status: ('A' for Active; 'I' for Inactive)
REMARK    1  A    between atoms: C_4  and  N_7
REMARK    2  A    between atoms: N_10  and  C_11
REMARK    3  A    between atoms: C_11  and  C_12
REMARK    4  A    between atoms: C_15  and  C_18
REMARK    5  A    between atoms: C_18  and  N_19
REMARK                            x       y       z     vdW  Elec       q    Type
REMARK                         _______ _______ _______ _____ _____    ______ ____
ROOT
ATOM      1  C   UNL     1       6.281  -4.642  -0.287  0.00  0.00    -0.028 A 
ATOM      2  C   UNL     1       6.974  -4.760  -1.478  0.00  0.00    +0.006 A 
ATOM      3  C   UNL     1       8.283  -5.206  -1.475  0.00  0.00    +0.006 A 
ATOM      4  C   UNL     1       8.898  -5.534  -0.281  0.00  0.00    -0.028 A 
ATOM      5  C   UNL     1       8.206  -5.416   0.909  0.00  0.00    +0.006 A 
ATOM      6  C   UNL     1       6.899  -4.965   0.907  0.00  0.00    +0.006 A 
ENDROOT
BRANCH   1   7
ATOM      7  C   UNL     1       4.855  -4.155  -0.290  0.00  0.00    +0.151 C 
BRANCH   7  11
ATOM      8  N   UNL     1       3.621  -0.651  -0.034  0.00  0.00    -0.328 N 
ATOM      9  C   UNL     1       3.638  -2.022  -0.149  0.00  0.00    +0.173 C 
ATOM     10  N   UNL     1       2.518  -2.683  -0.239  0.00  0.00    -0.371 N 
ATOM     11  N   UNL     1       4.837  -2.696  -0.168  0.00  0.00    -0.353 N 
ATOM     12  H   UNL     1       2.783  -0.168  -0.111  0.00  0.00    +0.169 HD
ATOM     13  H   UNL     1       2.526  -3.653  -0.244  0.00  0.00    +0.159 HD
ATOM     14  H   UNL     1       5.670  -2.204  -0.101  0.00  0.00    +0.163 HD
ATOM     15  H   UNL     1       1.677  -2.204  -0.301  0.00  0.00    +0.159 HD
BRANCH   8  19
ATOM     16  C   UNL     1       7.167   1.428   0.642  0.00  0.00    +0.000 A 
ATOM     17  C   UNL     1       6.228   1.933  -0.239  0.00  0.00    +0.002 A 
ATOM     18  C   UNL     1       5.052   1.247  -0.465  0.00  0.00    +0.026 A 
ATOM     19  C   UNL     1       4.812   0.047   0.193  0.00  0.00    +0.042 A 
ATOM     20  C   UNL     1       5.757  -0.458   1.076  0.00  0.00    +0.026 A 
ATOM     21  C   UNL     1       6.931   0.234   1.298  0.00  0.00    +0.002 A 
ENDBRANCH   8  19
ENDBRANCH   7  11
ENDBRANCH   1   7
BRANCH   4  22
ATOM     22  C   UNL     1      10.324  -6.022  -0.278  0.00  0.00    +0.158 C 
BRANCH  22  23
ATOM     23  N   UNL     1      11.231  -4.878  -0.148  0.00  0.00    -0.326 N 
ATOM     24  C   UNL     1      11.835  -4.209  -1.167  0.00  0.00    +0.200 A 
ATOM     25  N   UNL     1      12.573  -3.247  -0.694  0.00  0.00    -0.236 NA
ATOM     26  C   UNL     1      12.492  -3.233   0.661  0.00  0.00    +0.089 A 
ATOM     27  C   UNL     1      11.626  -4.277   1.030  0.00  0.00    +0.069 A 
ATOM     28  C   UNL     1      11.347  -4.502   2.371  0.00  0.00    +0.028 A 
ATOM     29  C   UNL     1      11.922  -3.697   3.332  0.00  0.00    +0.002 A 
ATOM     30  C   UNL     1      12.774  -2.665   2.967  0.00  0.00    +0.002 A 
ATOM     31  C   UNL     1      13.065  -2.433   1.653  0.00  0.00    +0.030 A 
ENDBRANCH  22  23
ENDBRANCH   4  22
TORSDOF 5
