REMARK  Name = ZINC02657763
REMARK  6 active torsions:
REMARK  status: ('A' for Active; 'I' for Inactive)
REMARK    1  A    between atoms: C_1  and  C_2
REMARK    2  A    between atoms: C_3  and  C_15
REMARK    3  A    between atoms: N_5  and  C_7
REMARK    4  A    between atoms: C_7  and  C_8
REMARK    5  A    between atoms: N_16  and  N_17
REMARK    6  A    between atoms: C_18  and  C_20
REMARK                            x       y       z     vdW  Elec       q    Type
REMARK                         _______ _______ _______ _____ _____    ______ ____
ROOT
ATOM      1  C   UNL     1      -3.087  -1.152   4.507  0.00  0.00    +0.143 C 
ATOM      2  N   UNL     1      -2.392  -2.241   4.388  0.00  0.00    -0.187 NA
ENDROOT
BRANCH   1   5
ATOM      3  C   UNL     1      -4.701   1.578   4.496  0.00  0.00    +0.068 C 
ATOM      4  C   UNL     1      -3.896   1.008   3.357  0.00  0.00    +0.070 A 
ATOM      5  C   UNL     1      -3.182  -0.210   3.375  0.00  0.00    +0.054 A 
ATOM      6  C   UNL     1      -2.594  -0.358   2.135  0.00  0.00    +0.136 A 
ATOM      7  N   UNL     1      -2.927   0.722   1.401  0.00  0.00    -0.248 N 
ATOM      8  N   UNL     1      -3.739   1.553   2.181  0.00  0.00    -0.174 NA
ATOM      9 CL   UNL     1      -1.605  -1.688   1.619  0.00  0.00    -0.062 Cl
BRANCH   7  10
ATOM     10  C   UNL     1      -2.514   0.980   0.019  0.00  0.00    +0.180 C 
BRANCH  10  11
ATOM     11  C   UNL     1      -1.219   1.751   0.017  0.00  0.00    -0.026 A 
ATOM     12  C   UNL     1      -0.013   1.076   0.008  0.00  0.00    +0.005 A 
ATOM     13  C   UNL     1       1.175   1.783   0.000  0.00  0.00    +0.000 A 
ATOM     14  C   UNL     1       1.156   3.165   0.008  0.00  0.00    +0.000 A 
ATOM     15  C   UNL     1      -0.050   3.840   0.022  0.00  0.00    +0.000 A 
ATOM     16  C   UNL     1      -1.238   3.133   0.030  0.00  0.00    +0.005 A 
ENDBRANCH  10  11
ENDBRANCH   7  10
ENDBRANCH   1   5
BRANCH   2  17
ATOM     17  N   UNL     1      -2.302  -3.135   5.463  0.00  0.00    -0.203 N 
ATOM     18  C   UNL     1      -1.581  -4.267   5.339  0.00  0.00    +0.270 C 
ATOM     19  O   UNL     1      -1.007  -4.512   4.293  0.00  0.00    -0.268 OA
ATOM     20  H   UNL     1      -2.759  -2.940   6.296  0.00  0.00    +0.178 HD
BRANCH  18  21
ATOM     21  C   UNL     1      -1.486  -5.202   6.463  0.00  0.00    +0.076 A 
ATOM     22  C   UNL     1      -0.806  -6.404   6.543  0.00  0.00    +0.024 A 
ATOM     23  C   UNL     1      -0.871  -7.114   7.731  0.00  0.00    -0.036 A 
ATOM     24  C   UNL     1      -1.610  -6.563   8.738  0.00  0.00    -0.006 A 
ATOM     25  S   UNL     1      -2.212  -5.085   8.090  0.00  0.00    -0.088 S 
ATOM     26  C   UNL     1      -1.836  -7.128  10.107  0.00  0.00    +0.043 C 
ATOM     27  C   UNL     1      -1.419  -8.605  10.095  0.00  0.00    +0.005 C 
ATOM     28  C   UNL     1      -0.043  -8.723   9.434  0.00  0.00    +0.005 C 
ATOM     29  C   UNL     1      -0.161  -8.450   7.934  0.00  0.00    +0.036 C 
ENDBRANCH  18  21
ENDBRANCH   2  17
TORSDOF 5
