REMARK  Name = ZINC01311479
REMARK  4 active torsions:
REMARK  status: ('A' for Active; 'I' for Inactive)
REMARK    1  A    between atoms: C_4  and  C_7
REMARK    2  A    between atoms: C_10  and  C_12
REMARK    3  A    between atoms: N_18  and  C_19
REMARK    4  A    between atoms: C_22  and  C_25
REMARK                            x       y       z     vdW  Elec       q    Type
REMARK                         _______ _______ _______ _____ _____    ______ ____
ROOT
ATOM      1  C   UNL     1       0.965   8.047   1.044  0.00  0.00    +0.140 A 
ATOM      2  N   UNL     1       1.175   9.279   0.708  0.00  0.00    -0.158 NA
ATOM      3  N   UNL     1       1.756   9.290  -0.568  0.00  0.00    -0.254 N 
ATOM      4  H   UNL     1       2.018  10.075  -1.074  0.00  0.00    +0.191 HD
ATOM      5  C   UNL     1       1.882   8.005  -0.963  0.00  0.00    +0.180 A 
ATOM      6  S   UNL     1       2.535   7.462  -2.450  0.00  0.00    -0.011 S 
ATOM      7  N   UNL     1       1.400   7.229   0.028  0.00  0.00    -0.275 N 
ENDROOT
BRANCH   7   8
ATOM      8  C   UNL     1       1.346   5.834   0.021  0.00  0.00    +0.050 A 
ATOM      9  C   UNL     1       2.524   5.094   0.005  0.00  0.00    +0.027 A 
ATOM     10  C   UNL     1       2.474   3.718  -0.002  0.00  0.00    +0.017 A 
ATOM     11  C   UNL     1       1.238   3.064   0.007  0.00  0.00    +0.063 A 
ATOM     12  C   UNL     1       0.057   3.812   0.016  0.00  0.00    +0.017 A 
ATOM     13  C   UNL     1       0.114   5.187   0.029  0.00  0.00    +0.027 A 
BRANCH  11  14
ATOM     14  C   UNL     1       1.181   1.591  -0.001  0.00  0.00    +0.387 C 
ATOM     15  O   UNL     1       2.209   0.943  -0.014  0.00  0.00    -0.241 OA
ATOM     16  O   UNL     1      -0.011   0.963   0.007  0.00  0.00    -0.241 OA
ENDBRANCH  11  14
ENDBRANCH   7   8
BRANCH   1  19
ATOM     17  C   UNL     1      -1.072   8.058   2.654  0.00  0.00    +0.030 C 
ATOM     18  C   UNL     1       0.115   8.636   3.426  0.00  0.00    +0.020 C 
ATOM     19  C   UNL     1       0.348   7.585   2.339  0.00  0.00    +0.065 C 
BRANCH  17  23
ATOM     20  C   UNL     1      -3.640   5.345   4.727  0.00  0.00    +0.000 A 
ATOM     21  C   UNL     1      -3.992   5.809   3.473  0.00  0.00    +0.000 A 
ATOM     22  C   UNL     1      -3.161   6.686   2.802  0.00  0.00    +0.004 A 
ATOM     23  C   UNL     1      -1.978   7.101   3.385  0.00  0.00    -0.044 A 
ATOM     24  C   UNL     1      -1.624   6.634   4.637  0.00  0.00    +0.004 A 
ATOM     25  C   UNL     1      -2.457   5.760   5.310  0.00  0.00    +0.000 A 
ENDBRANCH  17  23
ENDBRANCH   1  19
TORSDOF 4
