REMARK  Name = ZINC01868878
REMARK  3 active torsions:
REMARK  status: ('A' for Active; 'I' for Inactive)
REMARK    1  A    between atoms: C_4  and  C_10
REMARK    2  A    between atoms: C_6  and  N_7
REMARK    3  A    between atoms: CA_19  and  C_21
REMARK                            x       y       z     vdW  Elec       q    Type
REMARK                         _______ _______ _______ _____ _____    ______ ____
ROOT
ATOM      1  C   UNL     1      -0.013   1.086   0.008  0.00  0.00    +0.016 C 
ATOM      2  C   UNL     1       1.370   1.688   0.047  0.00  0.00    +0.052 A 
ATOM      3  C   UNL     1       1.715   2.702   0.873  0.00  0.00    +0.036 A 
ATOM      4  N   UNL     1       3.023   2.982   0.640  0.00  0.00    -0.348 N 
ATOM      5  H   UNL     1       3.572   3.683   1.095  0.00  0.00    +0.166 HD
ATOM      6  C   UNL     1       3.443   2.131  -0.326  0.00  0.00    +0.196 A 
ATOM      7  N   UNL     1       2.444   1.361  -0.673  0.00  0.00    -0.242 NA
ATOM      8  C   UNL     1       0.757   3.348   1.841  0.00  0.00    +0.050 C 
ATOM      9  CA  UNL     1      -0.667   2.944   1.434  0.00  0.00    +0.051 C 
ATOM     10  N   UNL     1      -0.734   1.481   1.239  0.00  0.00    +0.397 N 
ATOM     11  H1  UNL     1      -0.306   1.013   2.046  0.00  0.00    -0.083 HD
ATOM     12  H2  UNL     1      -1.718   1.196   1.161  0.00  0.00    -0.083 HD
ENDROOT
BRANCH   1  16
ATOM     13  C   UNL     1      -2.111   2.518  -3.430  0.00  0.00    +0.036 A 
ATOM     14  C   UNL     1      -2.579   1.408  -2.753  0.00  0.00    +0.053 A 
ATOM     15  C   UNL     1      -1.900   0.941  -1.637  0.00  0.00    +0.181 A 
ATOM     16  C   UNL     1      -0.752   1.590  -1.204  0.00  0.00    -0.007 A 
ATOM     17  C   UNL     1      -0.292   2.703  -1.881  0.00  0.00    +0.038 A 
ATOM     18  C   UNL     1      -0.968   3.163  -2.996  0.00  0.00    +0.127 A 
ATOM     19  O   UNL     1      -2.357  -0.151  -0.970  0.00  0.00    -0.288 OA
BRANCH  18  20
ATOM     20  N   UNL     1      -0.470   4.353  -3.723  0.00  0.00    +0.056 N 
ATOM     21  O   UNL     1      -1.067   4.762  -4.703  0.00  0.00    -0.126 OA
ATOM     22  O   UNL     1       0.537   4.922  -3.342  0.00  0.00    -0.126 OA
ENDBRANCH  18  20
ENDBRANCH   1  16
BRANCH   9  23
ATOM     23  C   UNL     1      -1.631   3.339   2.523  0.00  0.00    +0.343 C 
ATOM     24  O   UNL     1      -2.023   2.511   3.312  0.00  0.00    -0.248 OA
ATOM     25  OXT UNL     1      -2.054   4.609   2.618  0.00  0.00    -0.248 OA
ENDBRANCH   9  23
TORSDOF 3
