REMARK  Name = ZINC36345618
REMARK  6 active torsions:
REMARK  status: ('A' for Active; 'I' for Inactive)
REMARK    1  A    between atoms: C_4  and  C_7
REMARK    2  A    between atoms: C_7  and  C_8
REMARK    3  A    between atoms: N_11  and  C_14
REMARK    4  A    between atoms: C_14  and  C_15
REMARK    5  A    between atoms: C_18  and  C_30
REMARK    6  A    between atoms: C_21  and  C_23
REMARK                            x       y       z     vdW  Elec       q    Type
REMARK                         _______ _______ _______ _____ _____    ______ ____
ROOT
ATOM      1  C   UNL     1       8.114  -1.595   4.666  0.00  0.00    +0.219 C 
ATOM      2  O   UNL     1       8.554  -1.915   3.582  0.00  0.00    -0.276 OA
ATOM      3  N   UNL     1       8.808  -1.876   5.786  0.00  0.00    -0.187 N 
ATOM      4  C   UNL     1      10.110  -2.560   5.837  0.00  0.00    +0.137 C 
ATOM      5  C   UNL     1      10.431  -2.615   7.343  0.00  0.00    +0.087 C 
ATOM      6  C   UNL     1       9.245  -1.939   7.994  0.00  0.00    +0.069 C 
ATOM      7  N   UNL     1       8.414  -1.562   7.085  0.00  0.00    -0.181 NA
ENDROOT
BRANCH   4   8
ATOM      8  C   UNL     1      11.155  -1.765   5.097  0.00  0.00    -0.021 A 
ATOM      9  C   UNL     1      11.163  -0.386   5.185  0.00  0.00    +0.009 A 
ATOM     10  C   UNL     1      12.120   0.348   4.508  0.00  0.00    +0.050 A 
ATOM     11  C   UNL     1      13.075  -0.299   3.740  0.00  0.00    +0.166 A 
ATOM     12  C   UNL     1      13.067  -1.689   3.651  0.00  0.00    +0.167 A 
ATOM     13  C   UNL     1      12.108  -2.418   4.337  0.00  0.00    +0.055 A 
ATOM     14  O   UNL     1      14.095  -2.081   2.844  0.00  0.00    -0.453 OA
ATOM     15  C   UNL     1      14.480  -0.901   2.113  0.00  0.00    +0.466 C 
ATOM     16  O   UNL     1      14.108   0.180   2.988  0.00  0.00    -0.453 OA
ENDBRANCH   4   8
BRANCH   6  17
ATOM     17  C   UNL     1       9.071  -1.737   9.444  0.00  0.00    +0.001 A 
ATOM     18  C   UNL     1      10.050  -2.179  10.337  0.00  0.00    +0.010 A 
ATOM     19  C   UNL     1       9.881  -1.987  11.692  0.00  0.00    +0.003 A 
ATOM     20  C   UNL     1       8.745  -1.358  12.170  0.00  0.00    +0.038 A 
ATOM     21  C   UNL     1       7.769  -0.916  11.291  0.00  0.00    +0.124 A 
ATOM     22  C   UNL     1       7.929  -1.097   9.930  0.00  0.00    +0.048 A 
ATOM     23  F   UNL     1       6.663  -0.303  11.765  0.00  0.00    -0.205 F 
ENDBRANCH   6  17
BRANCH   1  24
ATOM     24  C   UNL     1       6.789  -0.881   4.760  0.00  0.00    +0.021 C 
BRANCH  24  28
ATOM     25  C   UNL     1       4.171  -0.963   1.399  0.00  0.00    -0.010 C 
ATOM     26  C   UNL     1       4.474   0.372   2.086  0.00  0.00    -0.015 C 
ATOM     27  C   UNL     1       5.009   0.105   3.494  0.00  0.00    -0.078 C 
ATOM     28  N   UNL     1       6.237  -0.694   3.412  0.00  0.00    +0.385 N 
ATOM     29  C   UNL     1       5.941  -2.004   2.819  0.00  0.00    -0.078 C 
ATOM     30  C   UNL     1       5.442  -1.818   1.385  0.00  0.00    -0.015 C 
ATOM     31  H   UNL     1       6.913  -0.211   2.838  0.00  0.00    -0.081 HD
BRANCH  25  32
ATOM     32  C   UNL     1       3.711  -0.707  -0.038  0.00  0.00    +0.038 C 
BRANCH  32  36
ATOM     33  C   UNL     1      -0.017   1.378   0.010  0.00  0.00    +0.000 A 
ATOM     34  C   UNL     1       1.171   2.086   0.002  0.00  0.00    +0.000 A 
ATOM     35  C   UNL     1       2.377   1.411  -0.013  0.00  0.00    +0.003 A 
ATOM     36  C   UNL     1       2.396   0.029  -0.020  0.00  0.00    -0.047 A 
ATOM     37  C   UNL     1       1.208  -0.679  -0.012  0.00  0.00    +0.003 A 
ATOM     38  C   UNL     1       0.002  -0.004   0.002  0.00  0.00    +0.000 A 
ENDBRANCH  32  36
ENDBRANCH  25  32
ENDBRANCH  24  28
ENDBRANCH   1  24
TORSDOF 6
