REMARK  Name = ZINC11949598
REMARK  7 active torsions:
REMARK  status: ('A' for Active; 'I' for Inactive)
REMARK    1  A    between atoms: C_3  and  S_22
REMARK    2  A    between atoms: C_6  and  C_7
REMARK    3  A    between atoms: C_7  and  C_8
REMARK    4  A    between atoms: C_8  and  N_9
REMARK    5  A    between atoms: C_10  and  C_12
REMARK    6  A    between atoms: C_18  and  C_20
REMARK    7  A    between atoms: S_22  and  N_25
REMARK                            x       y       z     vdW  Elec       q    Type
REMARK                         _______ _______ _______ _____ _____    ______ ____
ROOT
ATOM      1  C   UNL     1       0.002  -0.004   0.002  0.00  0.00    +0.109 C 
ENDROOT
BRANCH   1   2
ATOM      2  N   UNL     1      -1.372  -0.511   0.012  0.00  0.00    -0.315 N 
ATOM      3  C   UNL     1      -1.601  -1.839   0.007  0.00  0.00    +0.217 C 
ATOM      4  O   UNL     1      -0.668  -2.615  -0.006  0.00  0.00    -0.275 OA
ATOM      5  H   UNL     1      -2.118   0.109   0.023  0.00  0.00    +0.149 HD
BRANCH   3   6
ATOM      6  C   UNL     1      -3.014  -2.361   0.018  0.00  0.00    +0.089 C 
ATOM      7  C   UNL     1      -3.754  -1.854  -1.221  0.00  0.00    +0.013 C 
ATOM      8  C   UNL     1      -5.190  -2.384  -1.210  0.00  0.00    +0.001 C 
ATOM      9  C   UNL     1      -5.169  -3.914  -1.219  0.00  0.00    +0.001 C 
ATOM     10  C   UNL     1      -4.429  -4.420   0.021  0.00  0.00    +0.015 C 
ATOM     11  C   UNL     1      -2.994  -3.891   0.010  0.00  0.00    +0.114 C 
BRANCH  11  12
ATOM     12  C   UNL     1      -2.265  -4.390   1.231  0.00  0.00    +0.360 C 
ATOM     13  O   UNL     1      -1.809  -3.603   2.026  0.00  0.00    -0.246 OA
ATOM     14  O   UNL     1      -2.122  -5.709   1.435  0.00  0.00    -0.246 OA
ENDBRANCH  11  12
ENDBRANCH   3   6
ENDBRANCH   1   2
BRANCH   1  15
ATOM     15  C   UNL     1      -0.019   1.526   0.010  0.00  0.00    +0.054 C 
BRANCH  15  21
ATOM     16  C   UNL     1       2.053   2.285   1.192  0.00  0.00    +0.005 A 
ATOM     17  C   UNL     1       3.351   2.760   1.182  0.00  0.00    +0.029 A 
ATOM     18  C   UNL     1       3.989   3.005  -0.020  0.00  0.00    +0.105 A 
ATOM     19  C   UNL     1       3.329   2.772  -1.212  0.00  0.00    +0.029 A 
ATOM     20  C   UNL     1       2.032   2.293  -1.202  0.00  0.00    +0.005 A 
ATOM     21  C   UNL     1       1.395   2.047  -0.000  0.00  0.00    -0.046 A 
BRANCH  18  22
ATOM     22  S   UNL     1       5.642   3.614  -0.032  0.00  0.00    +0.056 S 
ATOM     23  O   UNL     1       6.225   3.232   1.206  0.00  0.00    -0.153 OA
ATOM     24  O   UNL     1       6.202   3.244  -1.285  0.00  0.00    -0.153 OA
BRANCH  22  25
ATOM     25  N   UNL     1       5.554   5.268  -0.024  0.00  0.00    -0.204 NA
ATOM     26  H   UNL     1       6.259   5.788   0.392  0.00  0.00    +0.144 HD
ATOM     27  H   UNL     1       4.798   5.715  -0.434  0.00  0.00    +0.144 HD
ENDBRANCH  22  25
ENDBRANCH  18  22
ENDBRANCH  15  21
ENDBRANCH   1  15
TORSDOF 7
