REMARK  Name = ZINC35725354
REMARK  9 active torsions:
REMARK  status: ('A' for Active; 'I' for Inactive)
REMARK    1  A    between atoms: C_1  and  C_2
REMARK    2  A    between atoms: C_2  and  C_3
REMARK    3  A    between atoms: C_3  and  C_5
REMARK    4  A    between atoms: C_3  and  C_6
REMARK    5  A    between atoms: C_6  and  C_8
REMARK    6  A    between atoms: C_6  and  N_22
REMARK    7  A    between atoms: C_14  and  C_16
REMARK    8  A    between atoms: N_22  and  S_23
REMARK    9  A    between atoms: S_23  and  C_26
REMARK                            x       y       z     vdW  Elec       q    Type
REMARK                         _______ _______ _______ _____ _____    ______ ____
ROOT
ATOM      1  C   UNL     1       1.129  -1.852  -1.075  0.00  0.00    +0.165 C 
ENDROOT
BRANCH   1   2
ATOM      2  C   UNL     1      -0.141  -2.658  -0.973  0.00  0.00    +0.238 C 
ATOM      3  O   UNL     1      -0.297  -3.430  -0.051  0.00  0.00    -0.274 OA
ATOM      4  N   UNL     1      -1.103  -2.520  -1.907  0.00  0.00    -0.262 N 
ATOM      5  C   UNL     1      -2.310  -3.193  -1.766  0.00  0.00    +0.188 A 
ATOM      6  N   UNL     1      -2.703  -4.000  -0.798  0.00  0.00    -0.125 NA
ATOM      7  N   UNL     1      -3.843  -4.546  -0.804  0.00  0.00    -0.140 NA
ATOM      8  C   UNL     1      -4.666  -4.299  -1.816  0.00  0.00    +0.134 A 
ATOM      9  S   UNL     1      -3.655  -3.187  -2.783  0.00  0.00    -0.030 S 
ATOM     10  H   UNL     1      -0.953  -1.950  -2.678  0.00  0.00    +0.157 HD
BRANCH   8  11
ATOM     11  C   UNL     1      -6.034  -4.799  -2.069  0.00  0.00    +0.009 A 
ATOM     12  C   UNL     1      -6.722  -4.407  -3.218  0.00  0.00    +0.010 A 
ATOM     13  C   UNL     1      -7.999  -4.877  -3.448  0.00  0.00    +0.001 A 
ATOM     14  C   UNL     1      -8.597  -5.734  -2.542  0.00  0.00    +0.000 A 
ATOM     15  C   UNL     1      -7.921  -6.127  -1.401  0.00  0.00    +0.001 A 
ATOM     16  C   UNL     1      -6.641  -5.669  -1.162  0.00  0.00    +0.010 A 
ENDBRANCH   8  11
ENDBRANCH   1   2
BRANCH   1  17
ATOM     17  C   UNL     1       0.874  -0.433  -0.563  0.00  0.00    +0.013 C 
ATOM     18  C   UNL     1      -0.181   0.244  -1.440  0.00  0.00    +0.009 C 
BRANCH  17  20
ATOM     19  C   UNL     1       0.238   0.926   1.435  0.00  0.00    +0.004 C 
ATOM     20  C   UNL     1       0.374  -0.494   0.882  0.00  0.00    +0.002 C 
ENDBRANCH  17  20
ENDBRANCH   1  17
BRANCH   1  21
ATOM     21  N   UNL     1       2.173  -2.484  -0.265  0.00  0.00    -0.178 NA
ATOM     22  H   UNL     1       1.945  -2.905   0.579  0.00  0.00    +0.149 HD
BRANCH  21  23
ATOM     23  S   UNL     1       3.744  -2.478  -0.789  0.00  0.00    +0.060 S 
ATOM     24  O   UNL     1       4.504  -3.163   0.197  0.00  0.00    -0.153 OA
ATOM     25  O   UNL     1       3.719  -2.885  -2.151  0.00  0.00    -0.153 OA
BRANCH  23  26
ATOM     26  C   UNL     1       4.293  -0.804  -0.774  0.00  0.00    +0.113 A 
ATOM     27  C   UNL     1       4.590  -0.170  -1.941  0.00  0.00    +0.029 A 
ATOM     28  C   UNL     1       5.025   1.153  -1.949  0.00  0.00    +0.003 A 
ATOM     29  C   UNL     1       5.166   1.851  -0.789  0.00  0.00    +0.008 A 
ATOM     30  C   UNL     1       4.869   1.231   0.436  0.00  0.00    -0.016 A 
ATOM     31  C   UNL     1       4.420  -0.114   0.444  0.00  0.00    +0.008 A 
ATOM     32  C   UNL     1       4.117  -0.732   1.669  0.00  0.00    +0.010 A 
ATOM     33  C   UNL     1       4.253  -0.033   2.828  0.00  0.00    +0.001 A 
ATOM     34  C   UNL     1       4.688   1.292   2.820  0.00  0.00    +0.001 A 
ATOM     35  C   UNL     1       5.003   1.919   1.655  0.00  0.00    +0.008 A 
ENDBRANCH  23  26
ENDBRANCH  21  23
ENDBRANCH   1  21
TORSDOF 7
