REMARK  Name = ZINC33813212
REMARK  15 active torsions:
REMARK  status: ('A' for Active; 'I' for Inactive)
REMARK    1  A    between atoms: C_1  and  C_2
REMARK    2  A    between atoms: C_2  and  N_3
REMARK    3  A    between atoms: N_3  and  C_4
REMARK    4  A    between atoms: N_3  and  C_6
REMARK    5  A    between atoms: C_4  and  C_5
REMARK    6  A    between atoms: C_6  and  C_7
REMARK    7  A    between atoms: C_7  and  N_8
REMARK    8  A    between atoms: C_9  and  C_30
REMARK    9  A    between atoms: C_11  and  C_16
REMARK   10  A    between atoms: C_16  and  C_18
REMARK   11  A    between atoms: C_19  and  C_29
REMARK   12  A    between atoms: C_21  and  C_23
REMARK   13  A    between atoms: C_34  and  O_36
REMARK   14  A    between atoms: O_36  and  C_37
REMARK   15  A    between atoms: C_37  and  C_38
REMARK                            x       y       z     vdW  Elec       q    Type
REMARK                         _______ _______ _______ _____ _____    ______ ____
ROOT
ATOM      1  N   UNL     1      -0.517  -3.428   2.115  0.00  0.00    -0.285 N 
ATOM      2  C   UNL     1      -1.649  -4.171   2.680  0.00  0.00    +0.145 C 
ATOM      3  C   UNL     1      -1.232  -5.623   2.699  0.00  0.00    +0.077 C 
ATOM      4  C   UNL     1       0.021  -5.676   2.191  0.00  0.00    +0.249 C 
ATOM      5  C   UNL     1       0.455  -4.313   1.826  0.00  0.00    +0.288 C 
ATOM      6  O   UNL     1       1.532  -4.031   1.339  0.00  0.00    -0.266 OA
ATOM      7  O   UNL     1       0.757  -6.801   2.036  0.00  0.00    -0.282 OA
ENDROOT
BRANCH   2   8
ATOM      8  C   UNL     1      -2.869  -3.993   1.813  0.00  0.00    -0.019 A 
ATOM      9  C   UNL     1      -2.781  -4.188   0.447  0.00  0.00    +0.006 A 
ATOM     10  C   UNL     1      -3.898  -4.025  -0.351  0.00  0.00    +0.004 A 
ATOM     11  C   UNL     1      -5.107  -3.667   0.216  0.00  0.00    +0.045 A 
ATOM     12  C   UNL     1      -5.198  -3.472   1.586  0.00  0.00    +0.121 A 
ATOM     13  C   UNL     1      -4.077  -3.642   2.385  0.00  0.00    +0.051 A 
BRANCH  12  14
ATOM     14  O   UNL     1      -6.386  -3.120   2.146  0.00  0.00    -0.488 OA
BRANCH  14  15
ATOM     15  C   UNL     1      -7.499  -2.968   1.263  0.00  0.00    +0.256 C 
BRANCH  15  16
ATOM     16  C   UNL     1      -8.720  -2.579   2.056  0.00  0.00    +0.006 C 
ATOM     17  C   UNL     1      -9.500  -1.618   1.628  0.00  0.00    +0.007 C 
ENDBRANCH  15  16
ENDBRANCH  14  15
ENDBRANCH  12  14
ENDBRANCH   2   8
BRANCH   3  18
ATOM     18  C   UNL     1      -2.031  -6.758   3.178  0.00  0.00    +0.203 C 
ATOM     19  O   UNL     1      -2.273  -7.690   2.431  0.00  0.00    -0.286 OA
BRANCH  18  20
ATOM     20  C   UNL     1      -2.537  -6.769   4.553  0.00  0.00    +0.082 A 
ATOM     21  C   UNL     1      -3.226  -7.766   5.239  0.00  0.00    +0.057 A 
ATOM     22  N   UNL     1      -3.556  -7.497   6.473  0.00  0.00    -0.244 NA
ATOM     23  C   UNL     1      -3.250  -6.339   7.035  0.00  0.00    +0.109 A 
ATOM     24  S   UNL     1      -2.433  -5.512   5.817  0.00  0.00    -0.064 S 
ATOM     25  C   UNL     1      -3.572  -9.083   4.592  0.00  0.00    +0.067 C 
BRANCH  23  26
ATOM     26  C   UNL     1      -3.548  -5.882   8.408  0.00  0.00    +0.007 A 
ATOM     27  C   UNL     1      -3.147  -4.612   8.826  0.00  0.00    +0.010 A 
ATOM     28  C   UNL     1      -3.429  -4.191  10.110  0.00  0.00    +0.001 A 
ATOM     29  C   UNL     1      -4.107  -5.025  10.981  0.00  0.00    +0.000 A 
ATOM     30  C   UNL     1      -4.506  -6.285  10.573  0.00  0.00    +0.001 A 
ATOM     31  C   UNL     1      -4.236  -6.716   9.290  0.00  0.00    +0.010 A 
ENDBRANCH  23  26
ENDBRANCH  18  20
ENDBRANCH   3  18
BRANCH   1  32
ATOM     32  C   UNL     1      -0.457  -1.980   1.899  0.00  0.00    +0.090 C 
BRANCH  32  33
ATOM     33  C   UNL     1      -0.987  -1.651   0.503  0.00  0.00    -0.060 C 
BRANCH  33  34
ATOM     34  N   UNL     1      -0.927  -0.199   0.286  0.00  0.00    +0.380 N 
ATOM     35  H   UNL     1      -1.425   0.272   1.027  0.00  0.00    -0.082 HD
BRANCH  34  37
ATOM     36  C   UNL     1       0.533   1.764   0.196  0.00  0.00    -0.017 C 
ATOM     37  C   UNL     1       0.475   0.238   0.282  0.00  0.00    -0.082 C 
ENDBRANCH  34  37
BRANCH  34  38
ATOM     38  C   UNL     1      -1.546   0.130  -1.005  0.00  0.00    -0.082 C 
ATOM     39  C   UNL     1      -3.041  -0.194  -0.951  0.00  0.00    -0.017 C 
ENDBRANCH  34  38
ENDBRANCH  33  34
ENDBRANCH  32  33
ENDBRANCH   1  32
TORSDOF 12
