REMARK  Name = ZINC44626950
REMARK  6 active torsions:
REMARK  status: ('A' for Active; 'I' for Inactive)
REMARK    1  A    between atoms: C_1  and  C_2
REMARK    2  A    between atoms: C_2  and  C_4
REMARK    3  A    between atoms: C_2  and  N_17
REMARK    4  A    between atoms: C_7  and  N_10
REMARK    5  A    between atoms: N_13  and  C_14
REMARK    6  A    between atoms: C_18  and  C_20
REMARK                            x       y       z     vdW  Elec       q    Type
REMARK                         _______ _______ _______ _____ _____    ______ ____
ROOT
ATOM      1  C   UNL     1      -0.191   1.534  -0.099  0.00  0.00    +0.033 C 
ATOM      2  C   UNL     1       0.012   0.021  -0.002  0.00  0.00    +0.100 C 
ENDROOT
BRANCH   2   3
ATOM      3  C   UNL     1       0.715  -0.472  -1.241  0.00  0.00    -0.027 A 
ATOM      4  C   UNL     1       2.086  -0.335  -1.357  0.00  0.00    +0.007 A 
ATOM      5  C   UNL     1       2.733  -0.785  -2.491  0.00  0.00    +0.023 A 
ATOM      6  C   UNL     1       2.005  -1.376  -3.515  0.00  0.00    +0.035 A 
ATOM      7  C   UNL     1       0.628  -1.513  -3.396  0.00  0.00    +0.023 A 
ATOM      8  C   UNL     1      -0.012  -1.065  -2.257  0.00  0.00    +0.007 A 
BRANCH   6   9
ATOM      9  N   UNL     1       2.658  -1.833  -4.666  0.00  0.00    -0.269 N 
ATOM     10  C   UNL     1       3.907  -2.331  -4.579  0.00  0.00    +0.304 C 
ATOM     11  O   UNL     1       4.431  -2.473  -3.491  0.00  0.00    -0.253 OA
ATOM     12  N   UNL     1       4.576  -2.671  -5.699  0.00  0.00    -0.296 N 
ATOM     13  H   UNL     1       2.211  -1.792  -5.526  0.00  0.00    +0.156 HD
ATOM     14  H   UNL     1       4.158  -2.558  -6.567  0.00  0.00    +0.151 HD
BRANCH  12  15
ATOM     15  C   UNL     1       5.934  -3.212  -5.604  0.00  0.00    +0.075 C 
ATOM     16  C   UNL     1       6.976  -2.683  -6.593  0.00  0.00    +0.024 C 
ATOM     17  C   UNL     1       6.422  -4.101  -6.751  0.00  0.00    +0.024 C 
ENDBRANCH  12  15
ENDBRANCH   6   9
ENDBRANCH   2   3
BRANCH   2  18
ATOM     18  N   UNL     1       0.826  -0.288   1.176  0.00  0.00    -0.304 N 
ATOM     19  C   UNL     1       0.241  -0.420   2.383  0.00  0.00    +0.261 C 
ATOM     20  O   UNL     1      -0.963  -0.282   2.494  0.00  0.00    -0.269 OA
ATOM     21  H   UNL     1       1.785  -0.398   1.088  0.00  0.00    +0.150 HD
BRANCH  19  22
ATOM     22  C   UNL     1       1.057  -0.730   3.566  0.00  0.00    +0.103 A 
ATOM     23  C   UNL     1       0.584  -0.892   4.830  0.00  0.00    +0.040 A 
ATOM     24  C   UNL     1       1.687  -1.179   5.670  0.00  0.00    +0.000 A 
ATOM     25  C   UNL     1       1.811  -1.434   7.042  0.00  0.00    +0.010 A 
ATOM     26  C   UNL     1       3.041  -1.683   7.577  0.00  0.00    +0.001 A 
ATOM     27  C   UNL     1       4.175  -1.684   6.775  0.00  0.00    +0.002 A 
ATOM     28  C   UNL     1       4.080  -1.435   5.424  0.00  0.00    +0.026 A 
ATOM     29  C   UNL     1       2.836  -1.180   4.854  0.00  0.00    +0.047 A 
ATOM     30  N   UNL     1       2.427  -0.909   3.569  0.00  0.00    -0.351 N 
ATOM     31  H   UNL     1       3.006  -0.852   2.793  0.00  0.00    +0.166 HD
ENDBRANCH  19  22
ENDBRANCH   2  18
TORSDOF 5
