REMARK  Name = ZINC01407874
REMARK  14 active torsions:
REMARK  status: ('A' for Active; 'I' for Inactive)
REMARK    1  A    between atoms: C_1  and  C_2
REMARK    2  A    between atoms: C_4  and  C_41
REMARK    3  A    between atoms: C_6  and  S_8
REMARK    4  A    between atoms: S_8  and  C_9
REMARK    5  A    between atoms: C_9  and  C_10
REMARK    6  A    between atoms: N_12  and  C_13
REMARK    7  A    between atoms: N_12  and  C_20
REMARK    8  A    between atoms: C_13  and  C_14
REMARK    9  A    between atoms: C_20  and  C_22
REMARK   10  A    between atoms: C_20  and  C_29
REMARK   11  A    between atoms: N_31  and  C_32
REMARK   12  A    between atoms: C_35  and  N_38
REMARK   13  A    between atoms: N_38  and  C_39
REMARK   14  A    between atoms: N_38  and  C_40
REMARK                            x       y       z     vdW  Elec       q    Type
REMARK                         _______ _______ _______ _____ _____    ______ ____
ROOT
ATOM      1  C   UNL     1       4.676   1.395   1.347  0.00  0.00    +0.227 C 
ATOM      2  O   UNL     1       4.472   0.558   2.200  0.00  0.00    -0.275 OA
ATOM      3  N   UNL     1       3.816   1.534   0.319  0.00  0.00    -0.285 N 
ENDROOT
BRANCH   1   4
ATOM      4  C   UNL     1       5.892   2.281   1.437  0.00  0.00    +0.173 C 
BRANCH   4   5
ATOM      5  S   UNL     1       6.916   1.759   2.835  0.00  0.00    -0.077 S 
BRANCH   5  11
ATOM      6  C   UNL     1       9.122   5.749   0.509  0.00  0.00    +0.066 C 
ATOM      7  C   UNL     1       9.165   4.725   1.614  0.00  0.00    +0.043 A 
ATOM      8  C   UNL     1      10.220   4.707   2.513  0.00  0.00    +0.046 A 
ATOM      9  C   UNL     1      10.222   3.748   3.514  0.00  0.00    +0.043 A 
ATOM     10  N   UNL     1       9.222   2.885   3.583  0.00  0.00    -0.227 NA
ATOM     11  C   UNL     1       8.228   2.929   2.707  0.00  0.00    +0.189 A 
ATOM     12  N   UNL     1       8.199   3.829   1.735  0.00  0.00    -0.227 NA
ATOM     13  C   UNL     1      11.348   3.692   4.514  0.00  0.00    +0.066 C 
ENDBRANCH   5  11
ENDBRANCH   4   5
ENDBRANCH   1   4
BRANCH   3  14
ATOM     14  C   UNL     1       4.133   2.445  -0.784  0.00  0.00    +0.143 C 
BRANCH  14  15
ATOM     15  C   UNL     1       4.812   1.677  -1.889  0.00  0.00    -0.030 A 
ATOM     16  C   UNL     1       6.161   1.386  -1.801  0.00  0.00    +0.005 A 
ATOM     17  C   UNL     1       6.782   0.677  -2.812  0.00  0.00    +0.000 A 
ATOM     18  C   UNL     1       6.058   0.269  -3.916  0.00  0.00    +0.000 A 
ATOM     19  C   UNL     1       4.711   0.565  -4.007  0.00  0.00    +0.000 A 
ATOM     20  C   UNL     1       4.088   1.269  -2.993  0.00  0.00    +0.005 A 
ENDBRANCH  14  15
ENDBRANCH   3  14
BRANCH   3  21
ATOM     21  C   UNL     1       2.563   0.775   0.305  0.00  0.00    +0.166 C 
BRANCH  21  22
ATOM     22  C   UNL     1       2.489  -0.063  -0.973  0.00  0.00    +0.023 C 
ATOM     23  C   UNL     1       1.149  -0.809  -1.024  0.00  0.00    +0.010 C 
ATOM     24  C   UNL     1       1.028  -1.492  -2.387  0.00  0.00    +0.027 C 
ATOM     25  C   UNL     1       2.277  -2.265  -2.691  0.00  0.00    -0.031 C 
ATOM     26  C   UNL     1       3.405  -2.090  -2.081  0.00  0.00    -0.031 C 
ATOM     27  C   UNL     1       3.618  -1.095  -0.977  0.00  0.00    +0.032 C 
ENDBRANCH  21  22
BRANCH  21  28
ATOM     28  C   UNL     1       1.397   1.730   0.348  0.00  0.00    +0.238 C 
ATOM     29  O   UNL     1       1.526   2.864  -0.062  0.00  0.00    -0.273 OA
ATOM     30  N   UNL     1       0.211   1.323   0.843  0.00  0.00    -0.284 N 
ATOM     31  H   UNL     1       0.084   0.395   1.097  0.00  0.00    +0.155 HD
BRANCH  30  32
ATOM     32  C   UNL     1      -0.841   2.238   0.984  0.00  0.00    +0.034 A 
ATOM     33  C   UNL     1      -0.700   3.535   0.509  0.00  0.00    +0.025 A 
ATOM     34  C   UNL     1      -1.738   4.436   0.644  0.00  0.00    +0.025 A 
ATOM     35  C   UNL     1      -2.918   4.048   1.264  0.00  0.00    +0.029 A 
ATOM     36  C   UNL     1      -3.056   2.752   1.744  0.00  0.00    +0.025 A 
ATOM     37  C   UNL     1      -2.021   1.850   1.604  0.00  0.00    +0.025 A 
BRANCH  35  38
ATOM     38  N   UNL     1      -3.967   4.962   1.406  0.00  0.00    -0.336 N 
ATOM     39  C   UNL     1      -5.212   4.552   2.061  0.00  0.00    +0.129 C 
ATOM     40  C   UNL     1      -3.822   6.329   0.900  0.00  0.00    +0.129 C 
ENDBRANCH  35  38
ENDBRANCH  30  32
ENDBRANCH  21  28
ENDBRANCH   3  21
TORSDOF 10
