REMARK  Name = ZINC65104236
REMARK  8 active torsions:
REMARK  status: ('A' for Active; 'I' for Inactive)
REMARK    1  A    between atoms: C_1  and  C_2
REMARK    2  A    between atoms: C_2  and  C_3
REMARK    3  A    between atoms: C_2  and  C_4
REMARK    4  A    between atoms: C_4  and  C_5
REMARK    5  A    between atoms: C_5  and  C_6
REMARK    6  A    between atoms: C_5  and  N_24
REMARK    7  A    between atoms: N_8  and  C_9
REMARK    8  A    between atoms: C_12  and  C_15
REMARK                            x       y       z     vdW  Elec       q    Type
REMARK                         _______ _______ _______ _____ _____    ______ ____
ROOT
ATOM      1  C   UNL     1      -2.607  -3.072  -0.533  0.00  0.00    +0.238 C 
ATOM      2  O   UNL     1      -3.097  -3.915   0.187  0.00  0.00    -0.273 OA
ATOM      3  N   UNL     1      -3.328  -2.546  -1.543  0.00  0.00    -0.284 N 
ATOM      4  H   UNL     1      -2.961  -1.824  -2.077  0.00  0.00    +0.155 HD
ENDROOT
BRANCH   3   5
ATOM      5  C   UNL     1      -4.606  -3.042  -1.822  0.00  0.00    +0.033 A 
ATOM      6  C   UNL     1      -5.428  -3.464  -0.784  0.00  0.00    +0.024 A 
ATOM      7  C   UNL     1      -6.688  -3.953  -1.056  0.00  0.00    +0.012 A 
ATOM      8  C   UNL     1      -7.138  -4.024  -2.374  0.00  0.00    -0.000 A 
ATOM      9  C   UNL     1      -6.311  -3.600  -3.413  0.00  0.00    +0.012 A 
ATOM     10  C   UNL     1      -5.054  -3.107  -3.136  0.00  0.00    +0.024 A 
BRANCH   8  11
ATOM     11  C   UNL     1      -8.493  -4.550  -2.670  0.00  0.00    +0.064 A 
ATOM     12  C   UNL     1      -9.399  -4.990  -1.756  0.00  0.00    +0.113 A 
ATOM     13  N   UNL     1     -10.500  -5.380  -2.457  0.00  0.00    -0.335 N 
ATOM     14  C   UNL     1     -10.243  -5.173  -3.771  0.00  0.00    +0.087 A 
ATOM     15  N   UNL     1      -9.050  -4.673  -3.893  0.00  0.00    -0.343 N 
ATOM     16  C   UNL     1     -11.221  -5.484  -4.881  0.00  0.00    +0.072 C 
ATOM     17  C   UNL     1     -12.310  -6.405  -4.316  0.00  0.00    +0.009 C 
ATOM     18  C   UNL     1     -12.835  -5.819  -3.002  0.00  0.00    +0.022 C 
ATOM     19  C   UNL     1     -11.751  -5.927  -1.925  0.00  0.00    +0.123 C 
ATOM     20  H   UNL     1      -8.626  -4.429  -4.731  0.00  0.00    +0.167 HD
ENDBRANCH   8  11
ENDBRANCH   3   5
BRANCH   1  21
ATOM     21  C   UNL     1      -1.191  -2.611  -0.299  0.00  0.00    +0.161 C 
BRANCH  21  22
ATOM     22  N   UNL     1      -0.476  -3.614   0.495  0.00  0.00    -0.288 N 
ATOM     23  C   UNL     1      -0.920  -3.941   1.724  0.00  0.00    +0.298 C 
ATOM     24  O   UNL     1      -1.913  -3.405   2.175  0.00  0.00    -0.253 OA
ATOM     25  N   UNL     1      -0.262  -4.864   2.454  0.00  0.00    -0.313 N 
ATOM     26  H   UNL     1       0.316  -4.042   0.135  0.00  0.00    +0.151 HD
ATOM     27  H   UNL     1       0.530  -5.292   2.095  0.00  0.00    +0.146 HD
ATOM     28  H   UNL     1      -0.582  -5.099   3.340  0.00  0.00    +0.146 HD
ENDBRANCH  21  22
BRANCH  21  29
ATOM     29  C   UNL     1      -1.206  -1.280   0.455  0.00  0.00    +0.034 C 
BRANCH  29  31
ATOM     30  C   UNL     1       0.792  -0.420  -0.774  0.00  0.00    +0.007 C 
ATOM     31  C   UNL     1       0.226  -0.763   0.606  0.00  0.00    -0.015 C 
ATOM     32  C   UNL     1       0.226   0.490   1.483  0.00  0.00    +0.007 C 
ENDBRANCH  29  31
ENDBRANCH  21  29
ENDBRANCH   1  21
TORSDOF 6
