REMARK  Name = ZINC45619951
REMARK  9 active torsions:
REMARK  status: ('A' for Active; 'I' for Inactive)
REMARK    1  A    between atoms: C_1  and  C_2
REMARK    2  A    between atoms: C_3  and  C_13
REMARK    3  A    between atoms: C_4  and  C_7
REMARK    4  A    between atoms: C_16  and  C_18
REMARK    5  A    between atoms: C_18  and  S_19
REMARK    6  A    between atoms: S_19  and  C_20
REMARK    7  A    between atoms: N_25  and  C_26
REMARK    8  A    between atoms: C_26  and  C_27
REMARK    9  A    between atoms: C_27  and  C_28
REMARK                            x       y       z     vdW  Elec       q    Type
REMARK                         _______ _______ _______ _____ _____    ______ ____
ROOT
ATOM      1  C   UNL     1      -2.504  -0.389   0.012  0.00  0.00    +0.254 A 
ATOM      2  N   UNL     1      -3.555  -1.176   0.019  0.00  0.00    -0.107 NA
ATOM      3  N   UNL     1      -4.623  -0.458   0.026  0.00  0.00    -0.111 NA
ATOM      4  C   UNL     1      -4.299   0.805   0.025  0.00  0.00    +0.228 A 
ATOM      5  O   UNL     1      -2.956   0.881   0.022  0.00  0.00    -0.419 OA
ENDROOT
BRANCH   1   8
ATOM      6  C   UNL     1      -0.018   1.503   0.010  0.00  0.00    +0.090 C 
ATOM      7  C   UNL     1       0.002  -0.004   0.002  0.00  0.00    +0.147 A 
ATOM      8  C   UNL     1      -1.090  -0.816   0.003  0.00  0.00    +0.108 A 
ATOM      9  C   UNL     1      -0.593  -2.199  -0.008  0.00  0.00    +0.126 A 
ATOM     10  N   UNL     1       0.715  -2.134  -0.014  0.00  0.00    -0.077 NA
ATOM     11  O   UNL     1       1.098  -0.773  -0.013  0.00  0.00    -0.359 OA
BRANCH   9  12
ATOM     12  C   UNL     1      -1.416  -3.433  -0.010  0.00  0.00    +0.004 A 
ATOM     13  C   UNL     1      -2.625  -3.469   0.683  0.00  0.00    +0.010 A 
ATOM     14  C   UNL     1      -3.387  -4.619   0.677  0.00  0.00    +0.001 A 
ATOM     15  C   UNL     1      -2.953  -5.736  -0.015  0.00  0.00    +0.000 A 
ATOM     16  C   UNL     1      -1.754  -5.706  -0.705  0.00  0.00    +0.001 A 
ATOM     17  C   UNL     1      -0.987  -4.559  -0.710  0.00  0.00    +0.010 A 
ENDBRANCH   9  12
ENDBRANCH   1   8
BRANCH   4  18
ATOM     18  C   UNL     1      -5.256   1.968   0.032  0.00  0.00    +0.174 C 
BRANCH  18  19
ATOM     19  S   UNL     1      -5.628   2.435   1.745  0.00  0.00    -0.087 S 
BRANCH  19  20
ATOM     20  C   UNL     1      -6.744   3.790   1.585  0.00  0.00    +0.160 A 
ATOM     21  N   UNL     1      -7.223   4.354   0.493  0.00  0.00    -0.133 NA
ATOM     22  N   UNL     1      -8.093   5.414   0.596  0.00  0.00    -0.125 NA
ATOM     23  C   UNL     1      -8.445   5.862   1.785  0.00  0.00    +0.182 A 
ATOM     24  S   UNL     1      -7.534   4.762   2.858  0.00  0.00    -0.025 S 
ATOM     25  N   UNL     1      -9.299   6.907   2.116  0.00  0.00    -0.322 N 
ATOM     26  H   UNL     1      -9.463   7.123   3.047  0.00  0.00    +0.148 HD
BRANCH  25  27
ATOM     27  C   UNL     1      -9.952   7.682   1.058  0.00  0.00    +0.108 C 
BRANCH  27  28
ATOM     28  C   UNL     1     -10.832   8.764   1.687  0.00  0.00    +0.061 C 
BRANCH  28  29
ATOM     29  C   UNL     1     -11.504   9.561   0.598  0.00  0.00    -0.009 A 
ATOM     30  C   UNL     1     -12.700   9.347  -0.003  0.00  0.00    +0.011 A 
ATOM     31  C   UNL     1     -13.120  10.220  -0.989  0.00  0.00    +0.008 A 
ATOM     32  C   UNL     1     -12.324  11.263  -1.326  0.00  0.00    +0.045 A 
ATOM     33  S   UNL     1     -10.934  11.037  -0.229  0.00  0.00    -0.102 S 
ENDBRANCH  28  29
ENDBRANCH  27  28
ENDBRANCH  25  27
ENDBRANCH  19  20
ENDBRANCH  18  19
ENDBRANCH   4  18
TORSDOF 8
