REMARK  Name = ZINC56397687
REMARK  14 active torsions:
REMARK  status: ('A' for Active; 'I' for Inactive)
REMARK    1  A    between atoms: C_1  and  C_2
REMARK    2  A    between atoms: C_2  and  N_3
REMARK    3  A    between atoms: N_3  and  C_4
REMARK    4  A    between atoms: N_3  and  C_27
REMARK    5  A    between atoms: C_7  and  N_10
REMARK    6  A    between atoms: C_11  and  C_13
REMARK    7  A    between atoms: C_13  and  N_14
REMARK    8  A    between atoms: N_14  and  C_15
REMARK    9  A    between atoms: C_19  and  N_21
REMARK   10  A    between atoms: C_22  and  C_24
REMARK   11  A    between atoms: C_24  and  C_25
REMARK   12  A    between atoms: C_24  and  C_26
REMARK   13  A    between atoms: C_27  and  C_28
REMARK   14  A    between atoms: C_27  and  C_29
REMARK                            x       y       z     vdW  Elec       q    Type
REMARK                         _______ _______ _______ _____ _____    ______ ____
ROOT
ATOM      1  N   UNL     1      -3.930   0.933  -4.737  0.00  0.00    -0.284 N 
ATOM      2  C   UNL     1      -5.092   1.614  -4.686  0.00  0.00    +0.234 C 
ATOM      3  O   UNL     1      -5.538   1.975  -3.618  0.00  0.00    -0.274 OA
ATOM      4  H   UNL     1      -3.536   0.709  -5.594  0.00  0.00    +0.155 HD
ENDROOT
BRANCH   1   8
ATOM      5  C   UNL     1      -2.033  -0.214  -1.209  0.00  0.00    +0.014 A 
ATOM      6  C   UNL     1      -3.414  -0.167  -1.266  0.00  0.00    +0.023 A 
ATOM      7  C   UNL     1      -4.046   0.213  -2.434  0.00  0.00    +0.025 A 
ATOM      8  C   UNL     1      -3.293   0.548  -3.552  0.00  0.00    +0.034 A 
ATOM      9  C   UNL     1      -1.906   0.501  -3.491  0.00  0.00    +0.025 A 
ATOM     10  C   UNL     1      -1.280   0.125  -2.318  0.00  0.00    +0.023 A 
BRANCH   5  11
ATOM     11  N   UNL     1      -1.397  -0.598  -0.025  0.00  0.00    -0.392 NA
ATOM     12  H   UNL     1      -0.397  -0.573  -0.157  0.00  0.00    +0.127 HD
BRANCH  11  13
ATOM     13  C   UNL     1      -1.771   0.325   1.055  0.00  0.00    +0.049 C 
ATOM     14  C   UNL     1      -1.075  -0.096   2.350  0.00  0.00    +0.026 C 
ATOM     15  C   UNL     1      -1.342   1.745   0.683  0.00  0.00    +0.026 C 
ENDBRANCH  11  13
BRANCH  11  17
ATOM     16  C   UNL     1      -1.309  -2.941  -0.733  0.00  0.00    +0.022 C 
ATOM     17  C   UNL     1      -1.809  -1.962   0.332  0.00  0.00    +0.082 C 
ENDBRANCH  11  17
ENDBRANCH   5  11
ENDBRANCH   1   8
BRANCH   2  18
ATOM     18  C   UNL     1      -5.836   1.929  -5.958  0.00  0.00    +0.198 C 
BRANCH  18  19
ATOM     19  N   UNL     1      -7.058   2.671  -5.638  0.00  0.00    -0.335 N 
ATOM     20  H   UNL     1      -7.270   2.881  -4.715  0.00  0.00    +0.147 HD
BRANCH  19  21
ATOM     21  C   UNL     1      -7.918   3.076  -6.662  0.00  0.00    +0.029 A 
ATOM     22  C   UNL     1      -7.618   2.769  -7.984  0.00  0.00    +0.023 A 
ATOM     23  C   UNL     1      -8.468   3.169  -8.997  0.00  0.00    +0.004 A 
ATOM     24  C   UNL     1      -9.618   3.875  -8.700  0.00  0.00    +0.023 A 
ATOM     25  C   UNL     1      -9.924   4.184  -7.380  0.00  0.00    +0.035 A 
ATOM     26  C   UNL     1      -9.075   3.779  -6.360  0.00  0.00    +0.046 A 
BRANCH  25  27
ATOM     27  N   UNL     1     -11.088   4.899  -7.080  0.00  0.00    -0.285 N 
ATOM     28  C   UNL     1     -12.208   4.697  -7.803  0.00  0.00    +0.220 C 
ATOM     29  O   UNL     1     -12.184   3.959  -8.765  0.00  0.00    -0.275 OA
ATOM     30  H   UNL     1     -11.090   5.540  -6.352  0.00  0.00    +0.155 HD
BRANCH  28  31
ATOM     31  C   UNL     1     -13.490   5.388  -7.416  0.00  0.00    +0.069 C 
ATOM     32  C   UNL     1     -14.599   4.990  -8.392  0.00  0.00    +0.017 C 
ATOM     33  C   UNL     1     -13.886   4.972  -5.998  0.00  0.00    +0.017 C 
ENDBRANCH  28  31
ENDBRANCH  25  27
ENDBRANCH  19  21
ENDBRANCH  18  19
ENDBRANCH   2  18
TORSDOF 9
