REMARK  Name = ZINC40982408
REMARK  14 active torsions:
REMARK  status: ('A' for Active; 'I' for Inactive)
REMARK    1  A    between atoms: C_1  and  C_2
REMARK    2  A    between atoms: C_2  and  C_3
REMARK    3  A    between atoms: C_3  and  S_4
REMARK    4  A    between atoms: S_4  and  C_5
REMARK    5  A    between atoms: C_10  and  C_22
REMARK    6  A    between atoms: C_12  and  C_16
REMARK    7  A    between atoms: C_13  and  C_15
REMARK    8  A    between atoms: C_16  and  O_18
REMARK    9  A    between atoms: O_18  and  C_19
REMARK   10  A    between atoms: C_19  and  C_20
REMARK   11  A    between atoms: C_19  and  C_21
REMARK   12  A    between atoms: C_27  and  O_28
REMARK   13  A    between atoms: O_28  and  C_29
REMARK   14  A    between atoms: C_29  and  C_30
REMARK                            x       y       z     vdW  Elec       q    Type
REMARK                         _______ _______ _______ _____ _____    ______ ____
ROOT
ATOM      1  C   UNL     1      -3.121  -2.923  -0.428  0.00  0.00    +0.210 A 
ATOM      2  N   UNL     1      -4.120  -2.029  -0.377  0.00  0.00    -0.187 NA
ATOM      3  C   UNL     1      -5.250  -2.650  -0.174  0.00  0.00    +0.219 A 
ATOM      4  N   UNL     1      -4.991  -3.978  -0.085  0.00  0.00    -0.220 N 
ATOM      5  N   UNL     1      -3.616  -4.130  -0.260  0.00  0.00    -0.141 NA
ATOM      6  C   UNL     1      -6.020  -4.988   0.150  0.00  0.00    +0.183 C 
ATOM      7  C   UNL     1      -7.380  -4.367  -0.025  0.00  0.00    +0.082 C 
ATOM      8  C   UNL     1      -7.575  -3.042  -0.111  0.00  0.00    +0.020 C 
ATOM      9  N   UNL     1      -6.538  -2.146  -0.056  0.00  0.00    -0.287 N 
ATOM     10  C   UNL     1      -8.980  -2.522  -0.272  0.00  0.00    +0.061 C 
ATOM     11  H   UNL     1      -6.698  -1.196   0.060  0.00  0.00    +0.155 HD
ENDROOT
BRANCH   6  12
ATOM     12  C   UNL     1      -5.888  -5.523   1.552  0.00  0.00    +0.024 A 
ATOM     13  C   UNL     1      -6.011  -4.670   2.632  0.00  0.00    +0.025 A 
ATOM     14  C   UNL     1      -5.890  -5.160   3.920  0.00  0.00    +0.018 A 
ATOM     15  C   UNL     1      -5.644  -6.506   4.129  0.00  0.00    +0.019 A 
ATOM     16  C   UNL     1      -5.520  -7.362   3.053  0.00  0.00    +0.047 A 
ATOM     17  C   UNL     1      -5.647  -6.873   1.760  0.00  0.00    +0.126 A 
ATOM     18 BR   UNL     1      -6.060  -3.990   5.396  0.00  0.00    -0.050 Br
BRANCH  17  19
ATOM     19  O   UNL     1      -5.530  -7.715   0.700  0.00  0.00    -0.492 OA
BRANCH  19  20
ATOM     20  C   UNL     1      -5.282  -9.092   0.989  0.00  0.00    +0.225 C 
ATOM     21  C   UNL     1      -5.182  -9.878  -0.320  0.00  0.00    +0.048 C 
ENDBRANCH  19  20
ENDBRANCH  17  19
ENDBRANCH   6  12
BRANCH   7  22
ATOM     22  C   UNL     1      -8.504  -5.220  -0.102  0.00  0.00    +0.339 C 
ATOM     23  O   UNL     1      -8.716  -5.857  -1.117  0.00  0.00    -0.245 OA
BRANCH  22  24
ATOM     24  O   UNL     1      -9.343  -5.327   0.950  0.00  0.00    -0.459 OA
BRANCH  24  25
ATOM     25  C   UNL     1     -10.459  -6.208   0.802  0.00  0.00    +0.171 C 
ATOM     26  C   UNL     1     -10.837  -6.786   2.167  0.00  0.00    +0.052 C 
ATOM     27  C   UNL     1     -11.648  -5.432   0.230  0.00  0.00    +0.052 C 
ENDBRANCH  24  25
ENDBRANCH  22  24
ENDBRANCH   7  22
BRANCH   1  28
ATOM     28  S   UNL     1      -1.420  -2.542  -0.688  0.00  0.00    -0.084 S 
BRANCH  28  29
ATOM     29  C   UNL     1      -1.394  -0.735  -0.844  0.00  0.00    +0.077 C 
BRANCH  29  31
ATOM     30  C   UNL     1       0.066   1.260  -1.207  0.00  0.00    +0.004 C 
ATOM     31  C   UNL     1       0.043  -0.264  -1.075  0.00  0.00    +0.008 C 
ENDBRANCH  29  31
ENDBRANCH  28  29
ENDBRANCH   1  28
TORSDOF 9
