REMARK  Name = ZINC67264062
REMARK  5 active torsions:
REMARK  status: ('A' for Active; 'I' for Inactive)
REMARK    1  A    between atoms: C_10  and  C_11
REMARK    2  A    between atoms: C_11  and  C_12
REMARK    3  A    between atoms: N_14  and  C_15
REMARK    4  A    between atoms: C_18  and  C_21
REMARK    5  A    between atoms: C_21  and  N_22
REMARK                            x       y       z     vdW  Elec       q    Type
REMARK                         _______ _______ _______ _____ _____    ______ ____
ROOT
ATOM      1  C   UNL     1       5.341   0.520   1.367  0.00  0.00    +0.222 C 
ATOM      2  O   UNL     1       4.628   0.186   2.290  0.00  0.00    -0.275 OA
ATOM      3  N   UNL     1       6.469   1.218   1.605  0.00  0.00    -0.285 N 
ATOM      4  H   UNL     1       7.073   1.426   0.875  0.00  0.00    +0.155 HD
ENDROOT
BRANCH   3   5
ATOM      5  C   UNL     1       6.770   1.640   2.905  0.00  0.00    +0.033 A 
ATOM      6  C   UNL     1       7.402   2.859   3.111  0.00  0.00    +0.023 A 
ATOM      7  C   UNL     1       7.697   3.274   4.395  0.00  0.00    +0.007 A 
ATOM      8  C   UNL     1       7.364   2.476   5.474  0.00  0.00    -0.030 A 
ATOM      9  C   UNL     1       6.735   1.262   5.272  0.00  0.00    +0.007 A 
ATOM     10  C   UNL     1       6.431   0.844   3.991  0.00  0.00    +0.023 A 
BRANCH   8  11
ATOM     11  C   UNL     1       7.688   2.931   6.874  0.00  0.00    +0.141 C 
BRANCH  11  12
ATOM     12  N   UNL     1       6.563   3.703   7.409  0.00  0.00    -0.295 N 
ATOM     13  C   UNL     1       6.628   4.215   8.654  0.00  0.00    +0.297 C 
ATOM     14  O   UNL     1       7.621   4.036   9.333  0.00  0.00    -0.253 OA
ATOM     15  N   UNL     1       5.594   4.924   9.146  0.00  0.00    -0.313 N 
ATOM     16  H   UNL     1       5.771   3.846   6.867  0.00  0.00    +0.151 HD
ATOM     17  H   UNL     1       4.802   5.067   8.604  0.00  0.00    +0.146 HD
ATOM     18  H   UNL     1       5.641   5.293  10.042  0.00  0.00    +0.146 HD
ENDBRANCH  11  12
ENDBRANCH   8  11
ENDBRANCH   3   5
BRANCH   1  19
ATOM     19  C   UNL     1       4.964   0.155  -0.046  0.00  0.00    +0.131 C 
BRANCH  19  29
ATOM     20  C   UNL     1      -0.010   1.364  -0.016  0.00  0.00    +0.001 A 
ATOM     21  C   UNL     1       1.177   2.095  -0.023  0.00  0.00    +0.001 A 
ATOM     22  C   UNL     1       2.385   1.469  -0.030  0.00  0.00    +0.009 A 
ATOM     23  C   UNL     1       2.441   0.065  -0.030  0.00  0.00    -0.014 A 
ATOM     24  C   UNL     1       1.234  -0.679  -0.022  0.00  0.00    -0.018 A 
ATOM     25  C   UNL     1       0.005   0.003  -0.016  0.00  0.00    +0.008 A 
ATOM     26  C   UNL     1       1.290  -2.083  -0.022  0.00  0.00    +0.008 A 
ATOM     27  C   UNL     1       2.498  -2.709  -0.028  0.00  0.00    +0.001 A 
ATOM     28  C   UNL     1       3.685  -1.978  -0.035  0.00  0.00    +0.005 A 
ATOM     29  C   UNL     1       3.670  -0.617  -0.037  0.00  0.00    -0.031 A 
ENDBRANCH  19  29
ENDBRANCH   1  19
TORSDOF 5
