REMARK  Name = ZINC15134488
REMARK  7 active torsions:
REMARK  status: ('A' for Active; 'I' for Inactive)
REMARK    1  A    between atoms: C_4  and  N_7
REMARK    2  A    between atoms: C_8  and  C_9
REMARK    3  A    between atoms: C_12  and  O_32
REMARK    4  A    between atoms: C_16  and  N_31
REMARK    5  A    between atoms: C_17  and  C_29
REMARK    6  A    between atoms: C_18  and  C_20
REMARK    7  A    between atoms: C_23  and  N_26
REMARK                            x       y       z     vdW  Elec       q    Type
REMARK                         _______ _______ _______ _____ _____    ______ ____
ROOT
ATOM      1  C   UNL     1       2.673  -2.179   1.575  0.00  0.00    +0.036 A 
ATOM      2  C   UNL     1       2.928  -3.126   2.572  0.00  0.00    +0.016 A 
ATOM      3  C   UNL     1       1.921  -3.510   3.427  0.00  0.00    +0.046 A 
ATOM      4  C   UNL     1       0.650  -2.960   3.301  0.00  0.00    +0.124 A 
ATOM      5  C   UNL     1       0.384  -2.018   2.315  0.00  0.00    +0.049 A 
ATOM      6  C   UNL     1       1.388  -1.619   1.453  0.00  0.00    +0.146 A 
ATOM      7  O   UNL     1       1.153  -0.699   0.489  0.00  0.00    -0.440 OA
ATOM      8  C   UNL     1      -0.107  -0.441   0.101  0.00  0.00    +0.199 C 
ATOM      9  C   UNL     1      -1.173  -0.762   0.872  0.00  0.00    +0.098 C 
ATOM     10  C   UNL     1      -1.000  -1.437   2.200  0.00  0.00    +0.101 C 
ENDROOT
BRANCH  10  11
ATOM     11  C   UNL     1      -1.205  -0.417   3.290  0.00  0.00    -0.034 A 
ATOM     12  C   UNL     1      -0.385   0.693   3.362  0.00  0.00    +0.007 A 
ATOM     13  C   UNL     1      -0.573   1.628   4.362  0.00  0.00    +0.033 A 
ATOM     14  C   UNL     1      -1.582   1.454   5.290  0.00  0.00    +0.126 A 
ATOM     15  C   UNL     1      -2.404   0.344   5.218  0.00  0.00    +0.033 A 
ATOM     16  C   UNL     1      -2.218  -0.589   4.215  0.00  0.00    +0.007 A 
BRANCH  14  17
ATOM     17  N   UNL     1      -1.783   2.455   6.362  0.00  0.00    +0.056 N 
ATOM     18  O   UNL     1      -1.065   3.425   6.425  0.00  0.00    -0.126 OA
ATOM     19  O   UNL     1      -2.666   2.302   7.174  0.00  0.00    -0.126 OA
ENDBRANCH  14  17
ENDBRANCH  10  11
BRANCH   8  20
ATOM     20  N   UNL     1      -0.320   0.167  -1.112  0.00  0.00    -0.328 N 
ATOM     21  H   UNL     1       0.433   0.481  -1.636  0.00  0.00    +0.145 HD
ATOM     22  H   UNL     1      -1.224   0.281  -1.444  0.00  0.00    +0.145 HD
ENDBRANCH   8  20
BRANCH   1  24
ATOM     23  N   UNL     1       4.987  -1.786   1.059  0.00  0.00    -0.255 NA
ATOM     24  C   UNL     1       3.745  -1.766   0.660  0.00  0.00    +0.123 C 
BRANCH  23  28
ATOM     25  C   UNL     1       5.870  -2.473   5.043  0.00  0.00    +0.000 A 
ATOM     26  C   UNL     1       6.399  -3.300   4.068  0.00  0.00    +0.002 A 
ATOM     27  C   UNL     1       6.109  -3.077   2.738  0.00  0.00    +0.028 A 
ATOM     28  C   UNL     1       5.279  -2.014   2.377  0.00  0.00    +0.064 A 
ATOM     29  C   UNL     1       4.748  -1.183   3.366  0.00  0.00    +0.028 A 
ATOM     30  C   UNL     1       5.046  -1.418   4.692  0.00  0.00    +0.002 A 
ENDBRANCH  23  28
ENDBRANCH   1  24
BRANCH   9  31
ATOM     31  C   UNL     1      -2.493  -0.463   0.405  0.00  0.00    +0.101 C 
ATOM     32  N   UNL     1      -3.541  -0.225   0.035  0.00  0.00    -0.191 NA
ENDBRANCH   9  31
BRANCH   4  33
ATOM     33  O   UNL     1      -0.338  -3.345   4.149  0.00  0.00    -0.506 OA
ATOM     34  H   UNL     1      -0.399  -2.810   4.952  0.00  0.00    +0.292 HD
ENDBRANCH   4  33
TORSDOF 7
