REMARK  Name = ZINC00302473
REMARK  3 active torsions:
REMARK  status: ('A' for Active; 'I' for Inactive)
REMARK    1  A    between atoms: C_1  and  C_2
REMARK    2  A    between atoms: C_9  and  C_18
REMARK    3  A    between atoms: C_21  and  N_24
REMARK                            x       y       z     vdW  Elec       q    Type
REMARK                         _______ _______ _______ _____ _____    ______ ____
ROOT
ATOM      1  C   UNL     1      -2.420   0.262  -1.258  0.00  0.00    +0.045 C 
ATOM      2  C   UNL     1      -1.825   1.560  -1.738  0.00  0.00    -0.029 A 
ATOM      3  C   UNL     1      -2.296   2.143  -2.896  0.00  0.00    +0.006 A 
ATOM      4  C   UNL     1      -1.751   3.334  -3.337  0.00  0.00    +0.020 A 
ATOM      5  C   UNL     1      -0.799   3.951  -2.579  0.00  0.00    +0.046 A 
ATOM      6  C   UNL     1      -0.298   3.368  -1.422  0.00  0.00    -0.001 A 
ATOM      7  C   UNL     1      -0.801   2.164  -1.011  0.00  0.00    +0.036 A 
ATOM      8  N   UNL     1      -0.363   1.532   0.152  0.00  0.00    -0.336 N 
ATOM      9  C   UNL     1       1.021   1.876   0.482  0.00  0.00    +0.105 C 
ATOM     10  C   UNL     1       1.144   3.393   0.640  0.00  0.00    +0.029 C 
ATOM     11  C   UNL     1       0.827   4.063  -0.714  0.00  0.00    +0.050 C 
ATOM     12  C   UNL     1       2.117   3.948  -1.494  0.00  0.00    -0.023 C 
ATOM     13  C   UNL     1       3.128   3.763  -0.682  0.00  0.00    -0.030 C 
ATOM     14  C   UNL     1       2.654   3.735   0.781  0.00  0.00    +0.033 C 
ATOM     15 CL   UNL     1      -0.119   5.441  -3.156  0.00  0.00    -0.083 Cl
ATOM     16  H   UNL     1      -0.481   0.532   0.086  0.00  0.00    +0.147 HD
ENDROOT
BRANCH   9  17
ATOM     17  C   UNL     1       1.932   1.410  -0.624  0.00  0.00    -0.027 A 
ATOM     18  C   UNL     1       1.421   1.170  -1.885  0.00  0.00    +0.008 A 
ATOM     19  C   UNL     1       2.258   0.746  -2.901  0.00  0.00    +0.033 A 
ATOM     20  C   UNL     1       3.604   0.554  -2.652  0.00  0.00    +0.126 A 
ATOM     21  C   UNL     1       4.114   0.789  -1.389  0.00  0.00    +0.033 A 
ATOM     22  C   UNL     1       3.278   1.217  -0.375  0.00  0.00    +0.008 A 
BRANCH  20  23
ATOM     23  N   UNL     1       4.500   0.098  -3.739  0.00  0.00    +0.056 N 
ATOM     24  O   UNL     1       5.686  -0.071  -3.520  0.00  0.00    -0.126 OA
ATOM     25  O   UNL     1       4.050  -0.110  -4.852  0.00  0.00    -0.126 OA
ENDBRANCH  20  23
ENDBRANCH   9  17
TORSDOF 2
