REMARK  Name = ZINC11949595
REMARK  7 active torsions:
REMARK  status: ('A' for Active; 'I' for Inactive)
REMARK    1  A    between atoms: C_3  and  S_22
REMARK    2  A    between atoms: C_6  and  C_7
REMARK    3  A    between atoms: C_7  and  C_8
REMARK    4  A    between atoms: C_8  and  N_9
REMARK    5  A    between atoms: C_10  and  C_12
REMARK    6  A    between atoms: C_18  and  C_20
REMARK    7  A    between atoms: S_22  and  N_25
REMARK                            x       y       z     vdW  Elec       q    Type
REMARK                         _______ _______ _______ _____ _____    ______ ____
ROOT
ATOM      1  C   UNL     1       0.624  -2.140   0.996  0.00  0.00    +0.109 C 
ENDROOT
BRANCH   1   2
ATOM      2  N   UNL     1       0.604  -0.675   1.004  0.00  0.00    -0.315 N 
ATOM      3  C   UNL     1       0.002  -0.004   0.002  0.00  0.00    +0.217 C 
ATOM      4  O   UNL     1      -0.523  -0.613  -0.906  0.00  0.00    -0.275 OA
ATOM      5  H   UNL     1       1.025  -0.189   1.730  0.00  0.00    +0.149 HD
BRANCH   3   6
ATOM      6  C   UNL     1      -0.018   1.503   0.010  0.00  0.00    +0.089 C 
ATOM      7  C   UNL     1      -0.735   1.996   1.269  0.00  0.00    +0.013 C 
ATOM      8  C   UNL     1      -2.170   1.467   1.280  0.00  0.00    +0.001 C 
ATOM      9  C   UNL     1      -2.910   1.973   0.040  0.00  0.00    +0.001 C 
ATOM     10  C   UNL     1      -2.194   1.480  -1.218  0.00  0.00    +0.015 C 
ATOM     11  C   UNL     1      -0.758   2.010  -1.229  0.00  0.00    +0.114 C 
BRANCH  11  12
ATOM     12  C   UNL     1      -0.053   1.524  -2.469  0.00  0.00    +0.360 C 
ATOM     13  O   UNL     1       0.940   0.842  -2.371  0.00  0.00    -0.246 OA
ATOM     14  O   UNL     1      -0.527   1.848  -3.682  0.00  0.00    -0.246 OA
ENDBRANCH  11  12
ENDBRANCH   3   6
ENDBRANCH   1   2
BRANCH   1  15
ATOM     15  C   UNL     1       1.364  -2.647   2.235  0.00  0.00    +0.054 C 
BRANCH  15  21
ATOM     16  C   UNL     1       0.366  -4.862   2.836  0.00  0.00    +0.005 A 
ATOM     17  C   UNL     1       0.383  -6.245   2.825  0.00  0.00    +0.029 A 
ATOM     18  C   UNL     1       1.423  -6.918   2.212  0.00  0.00    +0.105 A 
ATOM     19  C   UNL     1       2.444  -6.210   1.607  0.00  0.00    +0.029 A 
ATOM     20  C   UNL     1       2.425  -4.828   1.615  0.00  0.00    +0.005 A 
ATOM     21  C   UNL     1       1.385  -4.154   2.227  0.00  0.00    -0.046 A 
BRANCH  18  22
ATOM     22  S   UNL     1       1.447  -8.680   2.203  0.00  0.00    +0.056 S 
ATOM     23  O   UNL     1       0.100  -9.105   2.360  0.00  0.00    -0.153 OA
ATOM     24  O   UNL     1       2.244  -9.069   1.093  0.00  0.00    -0.153 OA
BRANCH  22  25
ATOM     25  N   UNL     1       2.258  -9.166   3.562  0.00  0.00    -0.204 NA
ATOM     26  H   UNL     1       2.611  -8.505   4.179  0.00  0.00    +0.144 HD
ATOM     27  H   UNL     1       2.381 -10.111   3.743  0.00  0.00    +0.144 HD
ENDBRANCH  22  25
ENDBRANCH  18  22
ENDBRANCH  15  21
ENDBRANCH   1  15
TORSDOF 7
