REMARK  Name = ZINC36577982
REMARK  13 active torsions:
REMARK  status: ('A' for Active; 'I' for Inactive)
REMARK    1  A    between atoms: C_1  and  C_2
REMARK    2  A    between atoms: C_2  and  C_3
REMARK    3  A    between atoms: C_3  and  N_4
REMARK    4  A    between atoms: N_4  and  C_5
REMARK    5  A    between atoms: C_5  and  C_7
REMARK    6  A    between atoms: C_5  and  C_14
REMARK    7  A    between atoms: C_12  and  C_13
REMARK    8  A    between atoms: N_16  and  C_17
REMARK    9  A    between atoms: C_17  and  S_18
REMARK   10  A    between atoms: S_18  and  C_21
REMARK   11  A    between atoms: C_24  and  C_27
REMARK   12  A    between atoms: C_28  and  C_30
REMARK   13  A    between atoms: C_33  and  N_36
REMARK                            x       y       z     vdW  Elec       q    Type
REMARK                         _______ _______ _______ _____ _____    ______ ____
ROOT
ATOM      1  C   UNL     1      -0.720  -2.426   0.992  0.00  0.00    +0.193 C 
ENDROOT
BRANCH   1   2
ATOM      2  C   UNL     1      -1.566  -1.491   1.818  0.00  0.00    -0.015 A 
ATOM      3  C   UNL     1      -0.971  -0.460   2.522  0.00  0.00    +0.006 A 
ATOM      4  C   UNL     1      -1.746   0.397   3.279  0.00  0.00    +0.000 A 
ATOM      5  C   UNL     1      -3.117   0.225   3.332  0.00  0.00    +0.000 A 
ATOM      6  C   UNL     1      -3.712  -0.805   2.627  0.00  0.00    +0.004 A 
ATOM      7  C   UNL     1      -2.937  -1.660   1.867  0.00  0.00    -0.045 A 
ATOM      8  C   UNL     1      -3.586  -2.780   1.095  0.00  0.00    +0.044 C 
ENDBRANCH   1   2
BRANCH   1   9
ATOM      9  C   UNL     1       0.681  -2.456   1.545  0.00  0.00    +0.239 C 
ATOM     10  O   UNL     1       1.532  -1.727   1.081  0.00  0.00    -0.273 OA
ATOM     11  N   UNL     1       0.990  -3.293   2.556  0.00  0.00    -0.294 N 
ATOM     12  H   UNL     1       0.305  -3.863   2.939  0.00  0.00    +0.150 HD
BRANCH  11  13
ATOM     13  C   UNL     1       2.359  -3.342   3.075  0.00  0.00    +0.278 C 
BRANCH  13  14
ATOM     14  S   UNL     1       2.500  -2.248   4.514  0.00  0.00    +0.013 S 
ATOM     15  O   UNL     1       3.806  -2.332   5.067  0.00  0.00    -0.168 OA
ATOM     16  O   UNL     1       1.915  -0.985   4.227  0.00  0.00    -0.168 OA
BRANCH  14  17
ATOM     17  C   UNL     1       1.448  -2.964   5.732  0.00  0.00    +0.090 A 
ATOM     18  C   UNL     1       0.117  -2.596   5.800  0.00  0.00    +0.027 A 
ATOM     19  C   UNL     1      -0.708  -3.158   6.756  0.00  0.00    +0.005 A 
ATOM     20  C   UNL     1      -0.203  -4.088   7.644  0.00  0.00    -0.050 A 
ATOM     21  C   UNL     1       1.128  -4.457   7.577  0.00  0.00    +0.005 A 
ATOM     22  C   UNL     1       1.952  -3.898   6.618  0.00  0.00    +0.027 A 
ATOM     23  C   UNL     1      -1.102  -4.700   8.687  0.00  0.00    +0.044 C 
ENDBRANCH  14  17
ENDBRANCH  13  14
ENDBRANCH  11  13
ENDBRANCH   1   9
BRANCH   1  24
ATOM     24  N   UNL     1      -0.688  -1.959  -0.396  0.00  0.00    -0.282 N 
ATOM     25  C   UNL     1      -0.064  -2.692  -1.339  0.00  0.00    +0.247 C 
ATOM     26  O   UNL     1      -0.328  -2.522  -2.514  0.00  0.00    -0.270 OA
BRANCH  25  27
ATOM     27  C   UNL     1       0.941  -3.702  -0.946  0.00  0.00    +0.037 A 
ATOM     28  C   UNL     1       0.856  -4.328   0.299  0.00  0.00    +0.015 A 
ATOM     29  C   UNL     1       1.797  -5.270   0.659  0.00  0.00    +0.033 A 
ATOM     30  C   UNL     1       2.824  -5.595  -0.210  0.00  0.00    +0.126 A 
ATOM     31  C   UNL     1       2.914  -4.978  -1.445  0.00  0.00    +0.033 A 
ATOM     32  C   UNL     1       1.976  -4.039  -1.820  0.00  0.00    +0.015 A 
BRANCH  30  33
ATOM     33  N   UNL     1       3.830  -6.606   0.184  0.00  0.00    +0.056 N 
ATOM     34  O   UNL     1       3.754  -7.147   1.263  0.00  0.00    -0.126 OA
ATOM     35  O   UNL     1       4.728  -6.892  -0.573  0.00  0.00    -0.126 OA
ENDBRANCH  30  33
ENDBRANCH  25  27
BRANCH  24  36
ATOM     36  C   UNL     1      -1.333  -0.695  -0.758  0.00  0.00    +0.109 C 
BRANCH  36  38
ATOM     37  C   UNL     1      -0.944   1.730  -1.217  0.00  0.00    +0.005 C 
ATOM     38  C   UNL     1      -0.300   0.434  -0.721  0.00  0.00    +0.016 C 
ENDBRANCH  36  38
ENDBRANCH  24  36
ENDBRANCH   1  24
TORSDOF 10
