REMARK  Name = ZINC13499043
REMARK  11 active torsions:
REMARK  status: ('A' for Active; 'I' for Inactive)
REMARK    1  A    between atoms: C_1  and  C_2
REMARK    2  A    between atoms: C_4  and  C_37
REMARK    3  A    between atoms: C_7  and  C_14
REMARK    4  A    between atoms: C_14  and  N_78
REMARK    5  A    between atoms: C_15  and  N_78
REMARK    6  A    between atoms: C_21  and  C_23
REMARK    7  A    between atoms: C_21  and  C_34
REMARK    8  A    between atoms: C_21  and  N_78
REMARK    9  A    between atoms: N_27  and  C_28
REMARK   10  A    between atoms: C_34  and  C_35
REMARK   11  A    between atoms: C_34  and  C_36
REMARK                            x       y       z     vdW  Elec       q    Type
REMARK                         _______ _______ _______ _____ _____    ______ ____
ROOT
ATOM      1  N   UNL     1       5.008   4.622  -1.247  0.00  0.00    +0.391 N 
ATOM      2  H   UNL     1       4.942   3.831  -1.898  0.00  0.00    -0.080 HD
ENDROOT
BRANCH   1   3
ATOM      3  C   UNL     1       4.078   5.684  -1.688  0.00  0.00    -0.067 C 
ATOM      4  C   UNL     1       4.402   7.004  -0.986  0.00  0.00    -0.015 C 
ATOM      5  C   UNL     1       3.432   8.086  -1.464  0.00  0.00    -0.002 C 
ATOM      6  C   UNL     1       1.998   7.670  -1.131  0.00  0.00    -0.000 C 
ATOM      7  C   UNL     1       1.674   6.349  -1.833  0.00  0.00    -0.002 C 
ATOM      8  C   UNL     1       2.644   5.267  -1.355  0.00  0.00    -0.015 C 
ENDBRANCH   1   3
BRANCH   1   9
ATOM      9  C   UNL     1       4.641   4.160   0.108  0.00  0.00    -0.036 C 
BRANCH   9  16
ATOM     10  C   UNL     1       4.437  10.241   5.266  0.00  0.00    +0.044 C 
ATOM     11  C   UNL     1       4.247   9.130   4.267  0.00  0.00    -0.048 A 
ATOM     12  C   UNL     1       2.985   8.888   3.740  0.00  0.00    +0.007 A 
ATOM     13  C   UNL     1       2.790   7.886   2.833  0.00  0.00    -0.041 A 
ATOM     14  C   UNL     1       3.872   7.096   2.430  0.00  0.00    +0.002 A 
ATOM     15  C   UNL     1       3.699   6.014   1.458  0.00  0.00    +0.017 A 
ATOM     16  C   UNL     1       4.784   5.282   1.105  0.00  0.00    +0.001 A 
ATOM     17  C   UNL     1       6.047   5.565   1.668  0.00  0.00    +0.251 A 
ATOM     18  O   UNL     1       7.009   4.894   1.336  0.00  0.00    -0.268 OA
ATOM     19  N   UNL     1       6.215   6.556   2.560  0.00  0.00    -0.322 N 
ATOM     20  H   UNL     1       7.097   6.724   2.928  0.00  0.00    +0.169 HD
ATOM     21  C   UNL     1       5.152   7.337   2.962  0.00  0.00    +0.050 A 
ATOM     22  C   UNL     1       5.326   8.364   3.884  0.00  0.00    +0.029 A 
ATOM     23  C   UNL     1       1.416   7.633   2.267  0.00  0.00    +0.044 C 
ENDBRANCH   9  16
ENDBRANCH   1   9
BRANCH   1  24
ATOM     24  C   UNL     1       6.395   5.133  -1.249  0.00  0.00    +0.006 C 
BRANCH  24  25
ATOM     25  C   UNL     1       6.553   6.149  -2.350  0.00  0.00    +0.139 A 
ATOM     26  N   UNL     1       6.061   6.072  -3.563  0.00  0.00    -0.115 NA
ATOM     27  N   UNL     1       6.414   7.133  -4.203  0.00  0.00    -0.023 NA
ATOM     28  N   UNL     1       7.119   7.884  -3.431  0.00  0.00    -0.044 NA
ATOM     29  N   UNL     1       7.223   7.314  -2.278  0.00  0.00    -0.228 N 
BRANCH  29  30
ATOM     30  C   UNL     1       7.938   7.836  -1.111  0.00  0.00    +0.111 C 
ATOM     31  C   UNL     1       7.331   9.179  -0.699  0.00  0.00    +0.027 C 
ATOM     32  C   UNL     1       8.077   9.724   0.520  0.00  0.00    +0.002 C 
ATOM     33  C   UNL     1       9.554   9.918   0.169  0.00  0.00    +0.000 C 
ATOM     34  C   UNL     1      10.161   8.575  -0.242  0.00  0.00    +0.002 C 
ATOM     35  C   UNL     1       9.414   8.030  -1.462  0.00  0.00    +0.027 C 
ENDBRANCH  29  30
ENDBRANCH  24  25
BRANCH  24  36
ATOM     36  C   UNL     1       7.345   3.960  -1.497  0.00  0.00    -0.024 C 
ATOM     37  C   UNL     1       8.791   4.430  -1.326  0.00  0.00    +0.006 C 
ATOM     38  C   UNL     1       7.050   2.843  -0.494  0.00  0.00    +0.006 C 
ENDBRANCH  24  36
ENDBRANCH   1  24
TORSDOF 7
