REMARK  Name = ZINC02658995
REMARK  13 active torsions:
REMARK  status: ('A' for Active; 'I' for Inactive)
REMARK    1  A    between atoms: C_1  and  C_2
REMARK    2  A    between atoms: C_2  and  C_4
REMARK    3  A    between atoms: C_2  and  N_66
REMARK    4  A    between atoms: C_7  and  S_16
REMARK    5  A    between atoms: N_8  and  C_9
REMARK    6  A    between atoms: C_9  and  C_10
REMARK    7  A    between atoms: S_16  and  C_17
REMARK    8  A    between atoms: C_17  and  C_18
REMARK    9  A    between atoms: N_20  and  C_21
REMARK   10  A    between atoms: C_21  and  C_22
REMARK   11  A    between atoms: C_21  and  C_28
REMARK   12  A    between atoms: C_34  and  N_66
REMARK   13  A    between atoms: C_35  and  N_66
REMARK                            x       y       z     vdW  Elec       q    Type
REMARK                         _______ _______ _______ _____ _____    ______ ____
ROOT
ATOM      1  S   UNL     1       3.804   0.507  -0.031  0.00  0.00    -0.077 S 
ENDROOT
BRANCH   1   5
ATOM      2  C   UNL     1      -0.016   1.299   0.009  0.00  0.00    +0.120 A 
ATOM      3  N   UNL     1       0.002  -0.004   0.002  0.00  0.00    -0.135 NA
ATOM      4  N   UNL     1       1.215  -0.429  -0.012  0.00  0.00    -0.123 NA
ATOM      5  C   UNL     1       2.044   0.589  -0.014  0.00  0.00    +0.192 A 
ATOM      6  N   UNL     1       1.284   1.724  -0.001  0.00  0.00    -0.303 N 
BRANCH   2   8
ATOM      7  C   UNL     1      -1.866   2.161   1.417  0.00  0.00    -0.005 C 
ATOM      8  C   UNL     1      -1.242   2.175   0.020  0.00  0.00    -0.003 C 
BRANCH   8  11
ATOM      9  C   UNL     1      -2.724   0.350  -0.557  0.00  0.00    -0.096 C 
ATOM     10  C   UNL     1      -3.315   2.622  -1.147  0.00  0.00    -0.096 C 
ATOM     11  N   UNL     1      -2.201   1.665  -0.982  0.00  0.00    +0.382 N 
ATOM     12  H   UNL     1      -1.718   1.557  -1.882  0.00  0.00    -0.082 HD
ENDBRANCH   8  11
ENDBRANCH   2   8
BRANCH   6  13
ATOM     13  C   UNL     1       1.762   3.108   0.002  0.00  0.00    +0.160 C 
BRANCH  13  14
ATOM     14  C   UNL     1       1.940   3.576   1.423  0.00  0.00    -0.028 A 
ATOM     15  C   UNL     1       0.891   4.186   2.086  0.00  0.00    +0.005 A 
ATOM     16  C   UNL     1       1.052   4.611   3.391  0.00  0.00    +0.000 A 
ATOM     17  C   UNL     1       2.265   4.435   4.031  0.00  0.00    +0.000 A 
ATOM     18  C   UNL     1       3.315   3.829   3.366  0.00  0.00    +0.000 A 
ATOM     19  C   UNL     1       3.153   3.400   2.062  0.00  0.00    +0.005 A 
ENDBRANCH  13  14
ENDBRANCH   6  13
ENDBRANCH   1   5
BRANCH   1  20
ATOM     20  C   UNL     1       4.035  -1.288  -0.042  0.00  0.00    +0.173 C 
BRANCH  20  21
ATOM     21  C   UNL     1       5.508  -1.605  -0.057  0.00  0.00    +0.224 C 
ATOM     22  O   UNL     1       6.322  -0.706  -0.060  0.00  0.00    -0.275 OA
ATOM     23  N   UNL     1       5.921  -2.888  -0.067  0.00  0.00    -0.304 N 
ATOM     24  H   UNL     1       5.270  -3.607  -0.064  0.00  0.00    +0.150 HD
BRANCH  23  25
ATOM     25  C   UNL     1       7.353  -3.196  -0.081  0.00  0.00    +0.134 C 
BRANCH  25  26
ATOM     26  C   UNL     1       7.579  -4.563   0.510  0.00  0.00    -0.023 A 
ATOM     27  C   UNL     1       6.702  -5.593   0.226  0.00  0.00    +0.006 A 
ATOM     28  C   UNL     1       6.912  -6.849   0.765  0.00  0.00    +0.000 A 
ATOM     29  C   UNL     1       7.993  -7.072   1.597  0.00  0.00    +0.000 A 
ATOM     30  C   UNL     1       8.867  -6.040   1.886  0.00  0.00    +0.000 A 
ATOM     31  C   UNL     1       8.660  -4.786   1.343  0.00  0.00    +0.006 A 
ENDBRANCH  25  26
BRANCH  25  32
ATOM     32  C   UNL     1       7.857  -3.174  -1.502  0.00  0.00    -0.023 A 
ATOM     33  C   UNL     1       7.087  -3.709  -2.517  0.00  0.00    +0.006 A 
ATOM     34  C   UNL     1       7.547  -3.684  -3.820  0.00  0.00    +0.000 A 
ATOM     35  C   UNL     1       8.782  -3.134  -4.107  0.00  0.00    +0.000 A 
ATOM     36  C   UNL     1       9.555  -2.604  -3.091  0.00  0.00    +0.000 A 
ATOM     37  C   UNL     1       9.093  -2.624  -1.788  0.00  0.00    +0.006 A 
ENDBRANCH  25  32
ENDBRANCH  23  25
ENDBRANCH  20  21
ENDBRANCH   1  20
TORSDOF 10
