REMARK  Name = ZINC17101502
REMARK  10 active torsions:
REMARK  status: ('A' for Active; 'I' for Inactive)
REMARK    1  A    between atoms: C_1  and  C_2
REMARK    2  A    between atoms: C_2  and  N_3
REMARK    3  A    between atoms: C_4  and  C_22
REMARK    4  A    between atoms: C_7  and  S_8
REMARK    5  A    between atoms: S_8  and  C_9
REMARK    6  A    between atoms: C_9  and  C_10
REMARK    7  A    between atoms: N_12  and  C_13
REMARK    8  A    between atoms: C_16  and  N_19
REMARK    9  A    between atoms: C_25  and  C_27
REMARK   10  A    between atoms: C_30  and  C_33
REMARK                            x       y       z     vdW  Elec       q    Type
REMARK                         _______ _______ _______ _____ _____    ______ ____
ROOT
ATOM      1  N   UNL     1      -3.114   1.302   2.352  0.00  0.00    -0.306 N 
ATOM      2  C   UNL     1      -2.152   0.893   1.470  0.00  0.00    +0.138 A 
ATOM      3  N   UNL     1      -2.261  -0.400   1.348  0.00  0.00    -0.133 NA
ATOM      4  N   UNL     1      -3.213  -0.834   2.093  0.00  0.00    -0.122 NA
ATOM      5  C   UNL     1      -3.774   0.168   2.730  0.00  0.00    +0.192 A 
ENDROOT
BRANCH   2   6
ATOM      6  C   UNL     1      -1.154   1.776   0.765  0.00  0.00    +0.065 C 
ATOM      7  C   UNL     1      -0.037   1.089  -0.024  0.00  0.00    +0.020 C 
ATOM      8  C   UNL     1      -1.179   1.788  -0.765  0.00  0.00    +0.030 C 
BRANCH   8   9
ATOM      9  C   UNL     1      -0.865   3.091  -1.456  0.00  0.00    -0.044 A 
ATOM     10  C   UNL     1       0.358   3.703  -1.254  0.00  0.00    +0.004 A 
ATOM     11  C   UNL     1       0.647   4.895  -1.891  0.00  0.00    +0.003 A 
ATOM     12  C   UNL     1      -0.290   5.480  -2.722  0.00  0.00    -0.050 A 
ATOM     13  C   UNL     1      -1.515   4.871  -2.919  0.00  0.00    +0.003 A 
ATOM     14  C   UNL     1      -1.802   3.676  -2.286  0.00  0.00    +0.004 A 
ATOM     15  C   UNL     1       0.024   6.782  -3.413  0.00  0.00    +0.044 C 
ENDBRANCH   8   9
ENDBRANCH   2   6
BRANCH   1  17
ATOM     16  C   UNL     1      -4.399   3.324   1.862  0.00  0.00    +0.027 C 
ATOM     17  C   UNL     1      -3.381   2.671   2.799  0.00  0.00    +0.122 C 
ENDBRANCH   1  17
BRANCH   5  18
ATOM     18  S   UNL     1      -5.123   0.068   3.859  0.00  0.00    -0.077 S 
BRANCH  18  19
ATOM     19  C   UNL     1      -5.427  -1.716   3.830  0.00  0.00    +0.173 C 
BRANCH  19  20
ATOM     20  C   UNL     1      -6.574  -2.046   4.750  0.00  0.00    +0.227 C 
ATOM     21  O   UNL     1      -7.131  -1.161   5.365  0.00  0.00    -0.275 OA
ATOM     22  N   UNL     1      -6.980  -3.323   4.890  0.00  0.00    -0.285 N 
ATOM     23  H   UNL     1      -6.579  -4.021   4.348  0.00  0.00    +0.155 HD
BRANCH  22  24
ATOM     24  C   UNL     1      -7.979  -3.642   5.815  0.00  0.00    +0.034 A 
ATOM     25  C   UNL     1      -7.934  -4.850   6.499  0.00  0.00    +0.025 A 
ATOM     26  C   UNL     1      -8.920  -5.160   7.416  0.00  0.00    +0.034 A 
ATOM     27  C   UNL     1      -9.955  -4.273   7.646  0.00  0.00    +0.126 A 
ATOM     28  C   UNL     1     -10.006  -3.072   6.963  0.00  0.00    +0.034 A 
ATOM     29  C   UNL     1      -9.021  -2.754   6.049  0.00  0.00    +0.025 A 
BRANCH  27  30
ATOM     30  N   UNL     1     -11.013  -4.611   8.626  0.00  0.00    +0.056 N 
ATOM     31  O   UNL     1     -11.926  -3.831   8.829  0.00  0.00    -0.126 OA
ATOM     32  O   UNL     1     -10.969  -5.669   9.228  0.00  0.00    -0.126 OA
ENDBRANCH  27  30
ENDBRANCH  22  24
ENDBRANCH  19  20
ENDBRANCH  18  19
ENDBRANCH   5  18
TORSDOF 8
