REMARK  Name = ZINC36246132
REMARK  16 active torsions:
REMARK  status: ('A' for Active; 'I' for Inactive)
REMARK    1  A    between atoms: C_1  and  C_2
REMARK    2  A    between atoms: C_2  and  C_3
REMARK    3  A    between atoms: C_2  and  C_4
REMARK    4  A    between atoms: C_4  and  C_5
REMARK    5  A    between atoms: C_5  and  N_6
REMARK    6  A    between atoms: N_6  and  C_7
REMARK    7  A    between atoms: N_6  and  C_29
REMARK    8  A    between atoms: C_7  and  C_8
REMARK    9  A    between atoms: C_9  and  C_23
REMARK   10  A    between atoms: C_12  and  N_13
REMARK   11  A    between atoms: C_29  and  C_30
REMARK   12  A    between atoms: C_30  and  C_32
REMARK   13  A    between atoms: C_30  and  O_37
REMARK   14  A    between atoms: C_32  and  O_33
REMARK   15  A    between atoms: O_33  and  C_34
REMARK   16  A    between atoms: C_34  and  C_35
REMARK                            x       y       z     vdW  Elec       q    Type
REMARK                         _______ _______ _______ _____ _____    ______ ____
ROOT
ATOM      1  C   UNL     1      -2.676  -4.516   1.081  0.00  0.00    +0.025 A 
ATOM      2  C   UNL     1      -1.509  -5.309   1.085  0.00  0.00    +0.117 A 
ATOM      3  N   UNL     1      -1.452  -5.939   2.235  0.00  0.00    -0.076 NA
ATOM      4  O   UNL     1      -2.585  -5.563   2.997  0.00  0.00    -0.339 OA
ATOM      5  C   UNL     1      -3.306  -4.693   2.270  0.00  0.00    +0.223 A 
ENDROOT
BRANCH   5   6
ATOM      6  N   UNL     1      -4.485  -4.087   2.663  0.00  0.00    -0.295 N 
ATOM      7  C   UNL     1      -5.785  -4.756   2.489  0.00  0.00    +0.113 C 
ATOM      8  C   UNL     1      -6.373  -5.010   3.876  0.00  0.00    +0.054 C 
ATOM      9  C   UNL     1      -6.286  -3.772   4.729  0.00  0.00    -0.041 A 
ATOM     10  C   UNL     1      -7.131  -3.687   5.830  0.00  0.00    +0.004 A 
ATOM     11  C   UNL     1      -7.096  -2.585   6.658  0.00  0.00    +0.000 A 
ATOM     12  C   UNL     1      -6.213  -1.554   6.394  0.00  0.00    +0.000 A 
ATOM     13  C   UNL     1      -5.376  -1.634   5.300  0.00  0.00    +0.005 A 
ATOM     14  C   UNL     1      -5.414  -2.740   4.463  0.00  0.00    -0.027 A 
ATOM     15  C   UNL     1      -4.491  -2.755   3.276  0.00  0.00    +0.143 C 
ENDBRANCH   5   6
BRANCH   2  16
ATOM     16  C   UNL     1      -0.520  -5.412  -0.018  0.00  0.00    +0.004 A 
ATOM     17  C   UNL     1      -0.954  -5.520  -1.338  0.00  0.00    +0.010 A 
ATOM     18  C   UNL     1      -0.030  -5.615  -2.359  0.00  0.00    +0.001 A 
ATOM     19  C   UNL     1       1.323  -5.604  -2.074  0.00  0.00    +0.000 A 
ATOM     20  C   UNL     1       1.759  -5.496  -0.765  0.00  0.00    +0.001 A 
ATOM     21  C   UNL     1       0.844  -5.395   0.263  0.00  0.00    +0.010 A 
ENDBRANCH   2  16
BRANCH   1  22
ATOM     22  C   UNL     1      -3.138  -3.624  -0.043  0.00  0.00    -0.035 C 
BRANCH  22  23
ATOM     23  N   UNL     1      -2.700  -2.245   0.215  0.00  0.00    +0.384 N 
ATOM     24  H   UNL     1      -3.029  -1.952   1.123  0.00  0.00    -0.081 HD
BRANCH  23  25
ATOM     25  C   UNL     1      -1.233  -2.183   0.182  0.00  0.00    -0.078 C 
BRANCH  25  26
ATOM     26  C   UNL     1      -0.775  -0.759   0.502  0.00  0.00    -0.016 C 
BRANCH  26  28
ATOM     27  C   UNL     1       1.216   0.721   0.793  0.00  0.00    +0.007 C 
ATOM     28  C   UNL     1       0.751  -0.723   0.598  0.00  0.00    -0.019 C 
ATOM     29  C   UNL     1       1.208  -1.571   1.786  0.00  0.00    +0.007 C 
ENDBRANCH  26  28
ENDBRANCH  25  26
ENDBRANCH  23  25
BRANCH  23  30
ATOM     30  C   UNL     1      -3.251  -1.356  -0.816  0.00  0.00    -0.044 C 
BRANCH  30  31
ATOM     31  C   UNL     1      -2.884  -1.892  -2.201  0.00  0.00    +0.124 C 
BRANCH  31  32
ATOM     32  O   UNL     1      -1.474  -1.771  -2.400  0.00  0.00    -0.391 OA
ATOM     33  H   UNL     1      -1.146  -0.863  -2.349  0.00  0.00    +0.210 HD
ENDBRANCH  31  32
BRANCH  31  34
ATOM     34  C   UNL     1      -3.620  -1.085  -3.272  0.00  0.00    +0.189 C 
BRANCH  34  35
ATOM     35  O   UNL     1      -3.369  -1.658  -4.557  0.00  0.00    -0.373 OA
BRANCH  35  36
ATOM     36  C   UNL     1      -4.015  -0.976  -5.634  0.00  0.00    +0.186 C 
BRANCH  36  37
ATOM     37  C   UNL     1      -3.683  -1.662  -6.934  0.00  0.00    -0.007 C 
ATOM     38  C   UNL     1      -4.628  -1.898  -7.810  0.00  0.00    +0.006 C 
ENDBRANCH  36  37
ENDBRANCH  35  36
ENDBRANCH  34  35
ENDBRANCH  31  34
ENDBRANCH  30  31
ENDBRANCH  23  30
ENDBRANCH  22  23
ENDBRANCH   1  22
TORSDOF 14
