REMARK  Name = ZINC57015876
REMARK  15 active torsions:
REMARK  status: ('A' for Active; 'I' for Inactive)
REMARK    1  A    between atoms: C_1  and  C_2
REMARK    2  A    between atoms: C_2  and  C_4
REMARK    3  A    between atoms: C_2  and  N_25
REMARK    4  A    between atoms: C_4  and  C_6
REMARK    5  A    between atoms: C_4  and  N_11
REMARK    6  A    between atoms: N_14  and  C_17
REMARK    7  A    between atoms: C_20  and  O_23
REMARK    8  A    between atoms: O_23  and  C_24
REMARK    9  A    between atoms: C_26  and  C_28
REMARK   10  A    between atoms: C_30  and  O_38
REMARK   11  A    between atoms: C_31  and  O_36
REMARK   12  A    between atoms: C_32  and  O_34
REMARK   13  A    between atoms: O_34  and  C_35
REMARK   14  A    between atoms: O_36  and  C_37
REMARK   15  A    between atoms: O_38  and  C_39
REMARK                            x       y       z     vdW  Elec       q    Type
REMARK                         _______ _______ _______ _____ _____    ______ ____
ROOT
ATOM      1  C   UNL     1       0.742  -0.509   1.218  0.00  0.00    +0.114 C 
ENDROOT
BRANCH   1   2
ATOM      2  N   UNL     1       2.080   0.094   1.282  0.00  0.00    -0.290 NA
ATOM      3  C   UNL     1       2.831  -0.158   0.044  0.00  0.00    +0.104 C 
ATOM      4  C   UNL     1       4.142   0.634   0.076  0.00  0.00    +0.120 C 
ATOM      5  N   UNL     1       4.859   0.302   1.317  0.00  0.00    -0.327 N 
ATOM      6  C   UNL     1       4.128   0.398   2.590  0.00  0.00    +0.120 C 
ATOM      7  C   UNL     1       2.817  -0.385   2.459  0.00  0.00    +0.104 C 
BRANCH   5   8
ATOM      8  C   UNL     1       6.200  -0.096   1.287  0.00  0.00    +0.030 A 
ATOM      9  C   UNL     1       6.840  -0.290   0.070  0.00  0.00    +0.027 A 
ATOM     10  C   UNL     1       8.164  -0.682   0.041  0.00  0.00    +0.047 A 
ATOM     11  C   UNL     1       8.854  -0.882   1.227  0.00  0.00    +0.120 A 
ATOM     12  C   UNL     1       8.216  -0.689   2.443  0.00  0.00    +0.047 A 
ATOM     13  C   UNL     1       6.894  -0.291   2.474  0.00  0.00    +0.027 A 
BRANCH  11  14
ATOM     14  O   UNL     1      10.158  -1.269   1.198  0.00  0.00    -0.495 OA
ATOM     15  C   UNL     1      10.808  -1.456   2.457  0.00  0.00    +0.277 C 
ENDBRANCH  11  14
ENDBRANCH   5   8
ENDBRANCH   1   2
BRANCH   1  16
ATOM     16  C   UNL     1      -0.034  -0.142   2.456  0.00  0.00    +0.009 A 
ATOM     17  C   UNL     1      -0.867  -0.909   3.200  0.00  0.00    +0.013 A 
ATOM     18  C   UNL     1      -1.478  -0.355   4.310  0.00  0.00    +0.008 A 
ATOM     19  C   UNL     1      -1.225   0.940   4.621  0.00  0.00    +0.045 A 
ATOM     20  S   UNL     1      -0.088   1.415   3.329  0.00  0.00    -0.100 S 
ENDBRANCH   1  16
BRANCH   1  22
ATOM     21  C   UNL     1      -0.014   1.542   0.008  0.00  0.00    +0.030 C 
ATOM     22  C   UNL     1       0.007   0.013  -0.018  0.00  0.00    +0.092 C 
BRANCH  22  23
ATOM     23  N   UNL     1      -1.368  -0.494  -0.019  0.00  0.00    -0.307 N 
ATOM     24  C   UNL     1      -2.042  -0.612  -1.180  0.00  0.00    +0.245 C 
ATOM     25  O   UNL     1      -1.510  -0.297  -2.227  0.00  0.00    -0.270 OA
ATOM     26  H   UNL     1      -1.793  -0.745   0.817  0.00  0.00    +0.149 HD
BRANCH  24  27
ATOM     27  C   UNL     1      -3.428  -1.122  -1.180  0.00  0.00    +0.044 A 
ATOM     28  C   UNL     1      -4.042  -1.478   0.023  0.00  0.00    +0.062 A 
ATOM     29  C   UNL     1      -5.339  -1.956   0.020  0.00  0.00    +0.166 A 
ATOM     30  C   UNL     1      -6.033  -2.083  -1.181  0.00  0.00    +0.204 A 
ATOM     31  C   UNL     1      -5.423  -1.729  -2.381  0.00  0.00    +0.166 A 
ATOM     32  C   UNL     1      -4.128  -1.245  -2.382  0.00  0.00    +0.062 A 
BRANCH  31  33
ATOM     33  O   UNL     1      -6.103  -1.854  -3.552  0.00  0.00    -0.491 OA
ATOM     34  C   UNL     1      -5.415  -1.473  -4.745  0.00  0.00    +0.277 C 
ENDBRANCH  31  33
BRANCH  30  35
ATOM     35  O   UNL     1      -7.308  -2.553  -1.181  0.00  0.00    -0.488 OA
ATOM     36  C   UNL     1      -8.355  -1.589  -1.053  0.00  0.00    +0.277 C 
ENDBRANCH  30  35
BRANCH  29  37
ATOM     37  O   UNL     1      -5.939  -2.303   1.191  0.00  0.00    -0.491 OA
ATOM     38  C   UNL     1      -5.168  -2.148   2.384  0.00  0.00    +0.277 C 
ENDBRANCH  29  37
ENDBRANCH  24  27
ENDBRANCH  22  23
ENDBRANCH   1  22
TORSDOF 10
