REMARK  Name = ZINC02204663
REMARK  2 active torsions:
REMARK  status: ('A' for Active; 'I' for Inactive)
REMARK    1  A    between atoms: C_7  and  N_12
REMARK    2  A    between atoms: N_12  and  C_13
REMARK                            x       y       z     vdW  Elec       q    Type
REMARK                         _______ _______ _______ _____ _____    ______ ____
ROOT
ATOM      1  N   UNL     1       1.060  -2.793   1.178  0.00  0.00    -0.304 N 
ATOM      2  H   UNL     1       1.028  -2.312   2.019  0.00  0.00    +0.150 HD
ENDROOT
BRANCH   1   3
ATOM      3  C   UNL     1       0.615  -4.113   1.112  0.00  0.00    +0.057 A 
ATOM      4  C   UNL     1       0.665  -4.804  -0.080  0.00  0.00    +0.040 A 
ATOM      5  C   UNL     1       0.224  -6.122  -0.159  0.00  0.00    +0.020 A 
ATOM      6  C   UNL     1      -0.269  -6.763   0.938  0.00  0.00    +0.025 A 
ATOM      7  C   UNL     1      -0.336  -6.093   2.170  0.00  0.00    +0.003 A 
ATOM      8  C   UNL     1       0.116  -4.754   2.267  0.00  0.00    +0.092 A 
ATOM      9  N   UNL     1       0.058  -4.115   3.438  0.00  0.00    -0.253 NA
ATOM     10  C   UNL     1      -0.405  -4.704   4.514  0.00  0.00    +0.111 A 
ATOM     11  C   UNL     1      -0.859  -6.021   4.490  0.00  0.00    +0.020 A 
ATOM     12  C   UNL     1      -0.840  -6.728   3.321  0.00  0.00    +0.011 A 
ATOM     13 BR   UNL     1       0.309  -7.035  -1.812  0.00  0.00    -0.050 Br
ENDBRANCH   1   3
BRANCH   1  20
ATOM     14  C   UNL     1      -0.017   1.381   0.010  0.00  0.00    +0.000 A 
ATOM     15  C   UNL     1       1.169   2.094   0.002  0.00  0.00    +0.001 A 
ATOM     16  C   UNL     1       2.380   1.432  -0.013  0.00  0.00    +0.015 A 
ATOM     17  C   UNL     1       2.406   0.037  -0.021  0.00  0.00    +0.067 A 
ATOM     18  C   UNL     1       1.203  -0.674  -0.013  0.00  0.00    +0.025 A 
ATOM     19  C   UNL     1       0.002  -0.004   0.002  0.00  0.00    +0.010 A 
ATOM     20  C   UNL     1       1.578  -2.134  -0.024  0.00  0.00    +0.296 C 
ATOM     21  O   UNL     1       3.007  -2.192  -0.038  0.00  0.00    -0.435 OA
ATOM     22  C   UNL     1       3.506  -0.945  -0.037  0.00  0.00    +0.342 C 
ATOM     23  O   UNL     1       4.688  -0.667  -0.047  0.00  0.00    -0.245 OA
ENDBRANCH   1  20
TORSDOF 2
