REMARK  Name = ZINC40993500
REMARK  6 active torsions:
REMARK  status: ('A' for Active; 'I' for Inactive)
REMARK    1  A    between atoms: C_4  and  C_7
REMARK    2  A    between atoms: C_9  and  C_12
REMARK    3  A    between atoms: C_16  and  N_17
REMARK    4  A    between atoms: C_18  and  C_20
REMARK    5  A    between atoms: C_20  and  O_21
REMARK    6  A    between atoms: O_21  and  C_22
REMARK                            x       y       z     vdW  Elec       q    Type
REMARK                         _______ _______ _______ _____ _____    ______ ____
ROOT
ATOM      1  C   UNL     1       5.692  -3.686  -0.082  0.00  0.00    +0.071 A 
ATOM      2  C   UNL     1       7.128  -3.902  -0.090  0.00  0.00    -0.023 A 
ATOM      3  C   UNL     1       7.539  -5.191  -0.106  0.00  0.00    -0.004 A 
ATOM      4  S   UNL     1       6.044  -6.143  -0.110  0.00  0.00    -0.077 S 
ATOM      5  C   UNL     1       4.868  -4.802  -0.086  0.00  0.00    +0.085 A 
ATOM      6  C   UNL     1       8.949  -5.693  -0.118  0.00  0.00    +0.043 C 
ATOM      7  C   UNL     1       9.876  -4.526  -0.486  0.00  0.00    +0.005 C 
ATOM      8  C   UNL     1       9.498  -3.311   0.367  0.00  0.00    +0.005 C 
ATOM      9  C   UNL     1       8.143  -2.763  -0.081  0.00  0.00    +0.037 C 
ENDROOT
BRANCH   1  12
ATOM     10  C   UNL     1       3.699  -0.689  -0.038  0.00  0.00    +0.202 A 
ATOM     11  N   UNL     1       3.849  -2.022  -0.052  0.00  0.00    -0.187 NA
ATOM     12  C   UNL     1       5.130  -2.328  -0.065  0.00  0.00    +0.261 A 
ATOM     13  O   UNL     1       5.835  -1.182  -0.060  0.00  0.00    -0.332 OA
ATOM     14  N   UNL     1       4.884  -0.128  -0.048  0.00  0.00    -0.056 NA
BRANCH  10  18
ATOM     15  C   UNL     1      -0.017   1.379   0.010  0.00  0.00    +0.000 A 
ATOM     16  C   UNL     1       1.169   2.092   0.002  0.00  0.00    +0.001 A 
ATOM     17  C   UNL     1       2.377   1.425  -0.013  0.00  0.00    +0.012 A 
ATOM     18  C   UNL     1       2.402   0.033  -0.021  0.00  0.00    +0.022 A 
ATOM     19  C   UNL     1       1.205  -0.680  -0.013  0.00  0.00    +0.012 A 
ATOM     20  C   UNL     1       0.002  -0.004   0.002  0.00  0.00    +0.001 A 
ENDBRANCH  10  18
ENDBRANCH   1  12
BRANCH   5  21
ATOM     21  N   UNL     1       3.480  -4.860  -0.075  0.00  0.00    -0.277 N 
ATOM     22  C   UNL     1       2.856  -6.054  -0.081  0.00  0.00    +0.255 C 
ATOM     23  O   UNL     1       3.506  -7.078  -0.095  0.00  0.00    -0.272 OA
ATOM     24  H   UNL     1       2.961  -4.041  -0.064  0.00  0.00    +0.155 HD
BRANCH  22  25
ATOM     25  C   UNL     1       1.350  -6.117  -0.069  0.00  0.00    +0.325 C 
BRANCH  25  26
ATOM     26  O   UNL     1       0.930  -7.483  -0.078  0.00  0.00    -0.481 OA
BRANCH  26  27
ATOM     27  C   UNL     1      -0.408  -7.717  -0.069  0.00  0.00    +0.139 A 
ATOM     28  C   UNL     1      -1.300  -6.655  -0.058  0.00  0.00    +0.047 A 
ATOM     29  C   UNL     1      -2.660  -6.895  -0.050  0.00  0.00    +0.004 A 
ATOM     30  C   UNL     1      -3.134  -8.194  -0.052  0.00  0.00    +0.002 A 
ATOM     31  C   UNL     1      -2.249  -9.256  -0.062  0.00  0.00    +0.023 A 
ATOM     32  C   UNL     1      -0.886  -9.021  -0.077  0.00  0.00    +0.083 A 
ATOM     33 CL   UNL     1       0.225 -10.354  -0.097  0.00  0.00    -0.080 Cl
ENDBRANCH  26  27
ENDBRANCH  25  26
ENDBRANCH  22  25
ENDBRANCH   5  21
TORSDOF 6
