REMARK  Name = ZINC15767718
REMARK  2 active torsions:
REMARK  status: ('A' for Active; 'I' for Inactive)
REMARK    1  A    between atoms: C_3  and  C_13
REMARK    2  A    between atoms: C_6  and  C_7
REMARK                            x       y       z     vdW  Elec       q    Type
REMARK                         _______ _______ _______ _____ _____    ______ ____
ROOT
ATOM      1  C   UNL     1      -0.017   1.393   0.010  0.00  0.00    +0.012 A 
ATOM      2  C   UNL     1       1.165   2.097   0.002  0.00  0.00    +0.012 A 
ATOM      3  C   UNL     1       2.384   1.415  -0.014  0.00  0.00    +0.019 A 
ATOM      4  C   UNL     1       2.404   0.019  -0.021  0.00  0.00    +0.012 A 
ATOM      5  C   UNL     1       1.222  -0.686  -0.013  0.00  0.00    +0.012 A 
ATOM      6  C   UNL     1       0.002  -0.004   0.002  0.00  0.00    +0.019 A 
ENDROOT
BRANCH   3   7
ATOM      7  C   UNL     1       3.654   2.172  -0.023  0.00  0.00    +0.160 A 
ATOM      8  N   UNL     1       3.767   3.471  -0.012  0.00  0.00    -0.154 NA
ATOM      9  H   UNL     1       5.129   0.674  -0.045  0.00  0.00    +0.169 HD
ATOM     10  N   UNL     1       5.132   3.788  -0.026  0.00  0.00    -0.254 N 
ATOM     11  H   UNL     1       5.514   4.680  -0.022  0.00  0.00    +0.191 HD
ATOM     12  C   UNL     1       5.819   2.628  -0.046  0.00  0.00    +0.173 A 
ATOM     13  S   UNL     1       7.522   2.461  -0.069  0.00  0.00    -0.012 S 
ATOM     14  N   UNL     1       4.921   1.622  -0.038  0.00  0.00    -0.317 N 
ENDBRANCH   3   7
BRANCH   6  15
ATOM     15  C   UNL     1      -1.267  -0.760   0.011  0.00  0.00    +0.162 A 
ATOM     16  N   UNL     1      -2.478  -0.252   0.019  0.00  0.00    -0.128 NA
ATOM     17  N   UNL     1      -3.349  -1.197   0.025  0.00  0.00    -0.122 NA
ATOM     18  C   UNL     1      -2.748  -2.366   0.019  0.00  0.00    +0.200 A 
ATOM     19  S   UNL     1      -3.532  -3.944   0.022  0.00  0.00    -0.009 SA
ATOM     20  N   UNL     1      -1.403  -2.130   0.005  0.00  0.00    -0.316 N 
ATOM     21  H   UNL     1      -0.692  -2.789  -0.006  0.00  0.00    +0.169 HD
ENDBRANCH   6  15
TORSDOF 2
