REMARK  Name = ZINC08582548
REMARK  10 active torsions:
REMARK  status: ('A' for Active; 'I' for Inactive)
REMARK    1  A    between atoms: C_1  and  C_2
REMARK    2  A    between atoms: C_7  and  C_13
REMARK    3  A    between atoms: C_8  and  O_12
REMARK    4  A    between atoms: C_13  and  C_15
REMARK    5  A    between atoms: C_13  and  N_66
REMARK    6  A    between atoms: N_19  and  C_20
REMARK    7  A    between atoms: C_25  and  C_26
REMARK    8  A    between atoms: C_25  and  N_66
REMARK    9  A    between atoms: C_32  and  C_33
REMARK   10  A    between atoms: C_32  and  N_66
REMARK                            x       y       z     vdW  Elec       q    Type
REMARK                         _______ _______ _______ _____ _____    ______ ____
ROOT
ATOM      1  C   UNL     1      -2.943   3.253   6.642  0.00  0.00    +0.040 C 
ENDROOT
BRANCH   1   8
ATOM      2  C   UNL     1      -2.000   1.524  -1.036  0.00  0.00    +0.044 C 
ATOM      3  C   UNL     1      -2.391   1.928   0.362  0.00  0.00    -0.048 A 
ATOM      4  C   UNL     1      -3.646   2.489   0.587  0.00  0.00    +0.004 A 
ATOM      5  C   UNL     1      -4.030   2.860   1.840  0.00  0.00    +0.010 A 
ATOM      6  C   UNL     1      -3.147   2.685   2.917  0.00  0.00    +0.001 A 
ATOM      7  C   UNL     1      -3.507   3.062   4.227  0.00  0.00    +0.017 A 
ATOM      8  C   UNL     1      -2.601   2.864   5.227  0.00  0.00    +0.008 A 
ATOM      9  C   UNL     1      -1.353   2.301   4.936  0.00  0.00    +0.215 A 
ATOM     10  N   UNL     1      -1.022   1.951   3.712  0.00  0.00    -0.213 NA
ATOM     11  C   UNL     1      -1.869   2.120   2.689  0.00  0.00    +0.075 A 
ATOM     12  C   UNL     1      -1.510   1.744   1.383  0.00  0.00    +0.031 A 
BRANCH   9  13
ATOM     13  O   UNL     1      -0.463   2.111   5.941  0.00  0.00    -0.492 OA
ATOM     14  H   UNL     1       0.127   2.862   6.092  0.00  0.00    +0.294 HD
ENDBRANCH   9  13
ENDBRANCH   1   8
BRANCH   1  15
ATOM     15  C   UNL     1      -3.360   2.026   7.413  0.00  0.00    +0.143 A 
ATOM     16  N   UNL     1      -4.555   1.490   7.442  0.00  0.00    -0.115 NA
ATOM     17  N   UNL     1      -4.508   0.456   8.210  0.00  0.00    -0.023 NA
ATOM     18  N   UNL     1      -3.316   0.324   8.677  0.00  0.00    -0.044 NA
ATOM     19  N   UNL     1      -2.579   1.273   8.209  0.00  0.00    -0.227 N 
BRANCH  19  20
ATOM     20  C   UNL     1      -1.158   1.491   8.491  0.00  0.00    +0.111 C 
ATOM     21  C   UNL     1      -0.330   0.287   7.995  0.00  0.00    +0.027 C 
ATOM     22  C   UNL     1       0.777   0.121   9.067  0.00  0.00    +0.002 C 
ATOM     23  C   UNL     1       0.027   0.437  10.385  0.00  0.00    +0.002 C 
ATOM     24  C   UNL     1      -0.930   1.586  10.010  0.00  0.00    +0.027 C 
ENDBRANCH  19  20
ENDBRANCH   1  15
BRANCH   1  25
ATOM     25  N   UNL     1      -4.069   4.210   6.618  0.00  0.00    +0.397 N 
ATOM     26  H   UNL     1      -4.875   3.766   6.162  0.00  0.00    -0.079 HD
BRANCH  25  27
ATOM     27  C   UNL     1      -4.445   4.583   7.998  0.00  0.00    -0.039 C 
BRANCH  27  28
ATOM     28  C   UNL     1      -3.287   5.244   8.701  0.00  0.00    -0.046 A 
ATOM     29  C   UNL     1      -2.363   4.482   9.400  0.00  0.00    +0.005 A 
ATOM     30  C   UNL     1      -1.311   5.133  10.027  0.00  0.00    +0.020 A 
ATOM     31  C   UNL     1      -1.225   6.510   9.943  0.00  0.00    +0.111 A 
ATOM     32  N   UNL     1      -2.125   7.202   9.273  0.00  0.00    -0.263 NA
ATOM     33  C   UNL     1      -3.136   6.617   8.661  0.00  0.00    +0.112 A 
ENDBRANCH  27  28
ENDBRANCH  25  27
BRANCH  25  34
ATOM     34  C   UNL     1      -3.689   5.417   5.854  0.00  0.00    -0.001 C 
BRANCH  34  35
ATOM     35  C   UNL     1      -4.944   6.155   5.463  0.00  0.00    +0.089 A 
ATOM     36  C   UNL     1      -5.470   7.211   6.110  0.00  0.00    +0.042 A 
ATOM     37  C   UNL     1      -6.637   7.584   5.405  0.00  0.00    +0.041 A 
ATOM     38  C   UNL     1      -6.754   6.734   4.369  0.00  0.00    +0.195 A 
ATOM     39  O   UNL     1      -5.723   5.875   4.405  0.00  0.00    -0.470 OA
ENDBRANCH  34  35
ENDBRANCH  25  34
ENDBRANCH   1  25
TORSDOF 9
