REMARK  Name = ZINC38600405
REMARK  10 active torsions:
REMARK  status: ('A' for Active; 'I' for Inactive)
REMARK    1  A    between atoms: C_1  and  C_2
REMARK    2  A    between atoms: N_5  and  C_17
REMARK    3  A    between atoms: N_8  and  C_9
REMARK    4  A    between atoms: C_12  and  O_15
REMARK    5  A    between atoms: O_15  and  C_16
REMARK    6  A    between atoms: C_17  and  C_18
REMARK    7  A    between atoms: N_20  and  C_21
REMARK    8  A    between atoms: C_29  and  C_31
REMARK    9  A    between atoms: C_31  and  O_33
REMARK   10  A    between atoms: O_33  and  C_34
REMARK                            x       y       z     vdW  Elec       q    Type
REMARK                         _______ _______ _______ _____ _____    ______ ____
ROOT
ATOM      1  C   UNL     1       1.287  -4.950  -3.349  0.00  0.00    +0.200 C 
ATOM      2  O   UNL     1       1.038  -4.842  -2.167  0.00  0.00    -0.278 OA
ATOM      3  N   UNL     1       1.387  -6.172  -3.908  0.00  0.00    -0.288 N 
ATOM      4  H   UNL     1       1.654  -6.260  -4.836  0.00  0.00    +0.155 HD
ENDROOT
BRANCH   3   5
ATOM      5  C   UNL     1       1.115  -7.284  -3.168  0.00  0.00    +0.053 C 
ATOM      6  C   UNL     1       1.255  -8.603  -3.561  0.00  0.00    +0.019 A 
ATOM      7  C   UNL     1       1.694  -9.199  -4.769  0.00  0.00    +0.026 A 
ATOM      8  C   UNL     1       1.729 -10.550  -4.877  0.00  0.00    +0.019 A 
ATOM      9  C   UNL     1       1.341 -11.381  -3.821  0.00  0.00    +0.017 A 
ATOM     10  C   UNL     1       0.911 -10.880  -2.638  0.00  0.00    +0.027 A 
ATOM     11  C   UNL     1       0.846  -9.476  -2.447  0.00  0.00    +0.045 A 
ATOM     12  N   UNL     1       0.469  -8.753  -1.411  0.00  0.00    -0.367 N 
ATOM     13  C   UNL     1       0.602  -7.331  -1.746  0.00  0.00    +0.234 C 
ATOM     14 BR   UNL     1       2.317 -11.331  -6.496  0.00  0.00    -0.050 Br
ATOM     15  H   UNL     1       0.158  -9.104  -0.563  0.00  0.00    +0.161 HD
BRANCH  13  16
ATOM     16  C   UNL     1      -0.740  -6.652  -1.655  0.00  0.00    +0.335 C 
ATOM     17  O   UNL     1      -1.735  -7.228  -2.028  0.00  0.00    -0.248 OA
BRANCH  16  18
ATOM     18  O   UNL     1      -0.831  -5.408  -1.160  0.00  0.00    -0.466 OA
ATOM     19  C   UNL     1      -2.135  -4.826  -1.103  0.00  0.00    +0.280 C 
ENDBRANCH  16  18
ENDBRANCH  13  16
ENDBRANCH   3   5
BRANCH   1  20
ATOM     20  C   UNL     1       1.485  -3.717  -4.192  0.00  0.00    +0.019 C 
BRANCH  20  24
ATOM     21  C   UNL     1       1.335   1.181  -4.188  0.00  0.00    +0.026 C 
ATOM     22  C   UNL     1       1.119  -0.079  -3.347  0.00  0.00    +0.054 C 
ATOM     23  C   UNL     1       1.400  -1.321  -4.200  0.00  0.00    -0.056 C 
ATOM     24  N   UNL     1       1.325  -2.520  -3.355  0.00  0.00    +0.388 N 
ATOM     25  C   UNL     1       2.390  -2.486  -2.344  0.00  0.00    -0.059 C 
ATOM     26  C   UNL     1       2.158  -1.302  -1.400  0.00  0.00    +0.087 C 
ATOM     27  N   UNL     1       2.045  -0.074  -2.204  0.00  0.00    -0.331 N 
ATOM     28  H   UNL     1       0.428  -2.551  -2.896  0.00  0.00    -0.081 HD
BRANCH  27  29
ATOM     29  C   UNL     1       2.800   1.062  -1.894  0.00  0.00    +0.030 A 
ATOM     30  C   UNL     1       4.111   1.169  -2.339  0.00  0.00    +0.027 A 
ATOM     31  C   UNL     1       4.855   2.291  -2.033  0.00  0.00    +0.047 A 
ATOM     32  C   UNL     1       4.293   3.312  -1.281  0.00  0.00    +0.120 A 
ATOM     33  C   UNL     1       2.983   3.207  -0.835  0.00  0.00    +0.047 A 
ATOM     34  C   UNL     1       2.236   2.087  -1.145  0.00  0.00    +0.027 A 
BRANCH  32  35
ATOM     35  O   UNL     1       5.026   4.417  -0.980  0.00  0.00    -0.495 OA
ATOM     36  C   UNL     1       4.384   5.430  -0.202  0.00  0.00    +0.277 C 
ENDBRANCH  32  35
ENDBRANCH  27  29
ENDBRANCH  20  24
ENDBRANCH   1  20
TORSDOF 7
