REMARK  Name = ZINC20710229
REMARK  8 active torsions:
REMARK  status: ('A' for Active; 'I' for Inactive)
REMARK    1  A    between atoms: C_1  and  C_2
REMARK    2  A    between atoms: C_2  and  C_3
REMARK    3  A    between atoms: C_3  and  C_5
REMARK    4  A    between atoms: C_3  and  N_6
REMARK    5  A    between atoms: C_7  and  C_9
REMARK    6  A    between atoms: C_22  and  C_25
REMARK    7  A    between atoms: C_27  and  N_32
REMARK    8  A    between atoms: C_30  and  O_31
REMARK                            x       y       z     vdW  Elec       q    Type
REMARK                         _______ _______ _______ _____ _____    ______ ____
ROOT
ATOM      1  C   UNL     1       1.313   1.791  -0.022  0.00  0.00    +0.037 A 
ATOM      2  C   UNL     1       1.243   3.187  -0.024  0.00  0.00    +0.015 A 
ATOM      3  C   UNL     1       2.403   3.925  -0.019  0.00  0.00    +0.024 A 
ATOM      4  C   UNL     1       3.641   3.284  -0.025  0.00  0.00    +0.031 A 
ATOM      5  C   UNL     1       3.721   1.900  -0.032  0.00  0.00    -0.019 A 
ATOM      6  C   UNL     1       2.554   1.155  -0.029  0.00  0.00    +0.019 A 
ATOM      7  C   UNL     1       5.030   1.157  -0.048  0.00  0.00    +0.049 C 
ATOM      8  C   UNL     1       5.054   0.301  -1.308  0.00  0.00    -0.023 C 
ATOM      9  C   UNL     1       5.700   0.917  -2.267  0.00  0.00    -0.030 C 
ATOM     10  C   UNL     1       6.202   2.267  -1.787  0.00  0.00    +0.033 C 
ATOM     11  C   UNL     1       6.233   2.097  -0.249  0.00  0.00    +0.029 C 
ATOM     12  C   UNL     1       6.040   3.429   0.450  0.00  0.00    +0.108 C 
ATOM     13  N   UNL     1       4.801   4.056  -0.022  0.00  0.00    -0.336 N 
ATOM     14  H   UNL     1       4.808   5.104  -0.358  0.00  0.00    +0.147 HD
ENDROOT
BRANCH  12  15
ATOM     15  C   UNL     1       5.955   3.207   1.938  0.00  0.00    +0.017 A 
ATOM     16  C   UNL     1       4.727   3.230   2.572  0.00  0.00    +0.041 A 
ATOM     17  C   UNL     1       4.648   3.026   3.937  0.00  0.00    +0.127 A 
ATOM     18  C   UNL     1       5.797   2.798   4.672  0.00  0.00    +0.036 A 
ATOM     19  C   UNL     1       7.027   2.773   4.043  0.00  0.00    +0.048 A 
ATOM     20  C   UNL     1       7.108   2.973   2.673  0.00  0.00    +0.122 A 
BRANCH  17  21
ATOM     21  N   UNL     1       3.332   3.051   4.613  0.00  0.00    +0.056 N 
ATOM     22  O   UNL     1       2.319   3.252   3.966  0.00  0.00    -0.126 OA
ATOM     23  O   UNL     1       3.261   2.871   5.815  0.00  0.00    -0.126 OA
ENDBRANCH  17  21
BRANCH  20  24
ATOM     24  O   UNL     1       8.317   2.944   2.051  0.00  0.00    -0.506 OA
ATOM     25  H   UNL     1       9.231   2.758   2.634  0.00  0.00    +0.292 HD
ENDBRANCH  20  24
ENDBRANCH  12  15
BRANCH   1  27
ATOM     26  N   UNL     1      -1.126   1.604  -0.018  0.00  0.00    -0.309 N 
ATOM     27  C   UNL     1       0.074   0.990  -0.019  0.00  0.00    +0.244 C 
ATOM     28  O   UNL     1       0.135  -0.225  -0.023  0.00  0.00    -0.270 OA
ATOM     29  H   UNL     1      -1.181   2.703  -0.015  0.00  0.00    +0.149 HD
BRANCH  26  30
ATOM     30  C   UNL     1      -2.356   0.808  -0.021  0.00  0.00    +0.070 C 
ATOM     31  C   UNL     1      -2.715   0.431  -1.460  0.00  0.00    +0.028 C 
BRANCH  30  33
ATOM     32  C   UNL     1      -3.192   1.899   2.065  0.00  0.00    +0.005 C 
ATOM     33  C   UNL     1      -3.495   1.627   0.590  0.00  0.00    +0.018 C 
ENDBRANCH  30  33
ENDBRANCH  26  30
ENDBRANCH   1  27
TORSDOF 6
