REMARK  Name = ZINC01872042
REMARK  13 active torsions:
REMARK  status: ('A' for Active; 'I' for Inactive)
REMARK    1  A    between atoms: C_1  and  C_2
REMARK    2  A    between atoms: C_2  and  C_3
REMARK    3  A    between atoms: C_2  and  C_4
REMARK    4  A    between atoms: C_2  and  C_5
REMARK    5  A    between atoms: C_7  and  C_19
REMARK    6  A    between atoms: C_8  and  N_12
REMARK    7  A    between atoms: C_13  and  C_15
REMARK    8  A    between atoms: C_15  and  C_16
REMARK    9  A    between atoms: C_15  and  C_17
REMARK   10  A    between atoms: C_15  and  C_18
REMARK   11  A    between atoms: C_19  and  C_20
REMARK   12  A    between atoms: C_19  and  C_24
REMARK   13  A    between atoms: C_19  and  O_28
REMARK                            x       y       z     vdW  Elec       q    Type
REMARK                         _______ _______ _______ _____ _____    ______ ____
ROOT
ATOM      1  C   UNL     1      -1.001  -4.513   0.402  0.00  0.00    -0.040 A 
ATOM      2  C   UNL     1      -2.104  -3.961  -0.223  0.00  0.00    +0.013 A 
ATOM      3  C   UNL     1      -2.338  -2.602  -0.141  0.00  0.00    +0.024 A 
ATOM      4  C   UNL     1      -1.459  -1.789   0.562  0.00  0.00    +0.054 A 
ATOM      5  C   UNL     1      -0.352  -2.346   1.189  0.00  0.00    +0.040 A 
ATOM      6  C   UNL     1      -0.126  -3.708   1.107  0.00  0.00    +0.021 A 
ATOM      7 BR   UNL     1       0.846  -1.245   2.152  0.00  0.00    -0.048 Br
ENDROOT
BRANCH   1   9
ATOM      8  C   UNL     1       0.522  -6.347   1.086  0.00  0.00    +0.015 C 
ATOM      9  C   UNL     1      -0.752  -5.997   0.315  0.00  0.00    -0.013 C 
ATOM     10  C   UNL     1      -1.938  -6.750   0.923  0.00  0.00    +0.015 C 
ATOM     11  C   UNL     1      -0.589  -6.402  -1.151  0.00  0.00    +0.015 C 
ENDBRANCH   1   9
BRANCH   4  12
ATOM     12  N   UNL     1      -1.691  -0.411   0.643  0.00  0.00    -0.284 N 
ATOM     13  C   UNL     1      -0.717   0.458   0.306  0.00  0.00    +0.223 C 
ATOM     14  O   UNL     1       0.388   0.048   0.020  0.00  0.00    -0.275 OA
ATOM     15  H   UNL     1      -2.553  -0.081   0.942  0.00  0.00    +0.155 HD
BRANCH  13  16
ATOM     16  C   UNL     1      -1.002   1.937   0.283  0.00  0.00    +0.039 C 
ATOM     17  C   UNL     1       0.263   2.694  -0.129  0.00  0.00    +0.020 C 
ATOM     18  C   UNL     1      -2.119   2.226  -0.722  0.00  0.00    +0.020 C 
ATOM     19  C   UNL     1      -1.438   2.394   1.676  0.00  0.00    +0.020 C 
ENDBRANCH  13  16
ENDBRANCH   4  12
BRANCH   3  20
ATOM     20  C   UNL     1      -3.544  -2.002  -0.817  0.00  0.00    +0.283 C 
BRANCH  20  21
ATOM     21  C   UNL     1      -3.108  -1.293  -2.101  0.00  0.00    +0.431 C 
ATOM     22  F   UNL     1      -2.557  -2.226  -2.985  0.00  0.00    -0.167 F 
ATOM     23  F   UNL     1      -4.218  -0.684  -2.697  0.00  0.00    -0.167 F 
ATOM     24  F   UNL     1      -2.151  -0.320  -1.794  0.00  0.00    -0.167 F 
ENDBRANCH  20  21
BRANCH  20  25
ATOM     25  C   UNL     1      -4.540  -3.111  -1.161  0.00  0.00    +0.431 C 
ATOM     26  F   UNL     1      -4.835  -3.847  -0.008  0.00  0.00    -0.167 F 
ATOM     27  F   UNL     1      -5.715  -2.543  -1.664  0.00  0.00    -0.167 F 
ATOM     28  F   UNL     1      -3.982  -3.958  -2.124  0.00  0.00    -0.167 F 
ENDBRANCH  20  25
BRANCH  20  29
ATOM     29  O   UNL     1      -4.163  -1.060   0.061  0.00  0.00    -0.369 OA
ATOM     30  H   UNL     1      -4.465  -1.441   0.897  0.00  0.00    +0.211 HD
ENDBRANCH  20  29
ENDBRANCH   3  20
TORSDOF 7
