REMARK  Name = ZINC18193448
REMARK  8 active torsions:
REMARK  status: ('A' for Active; 'I' for Inactive)
REMARK    1  A    between atoms: C_1  and  N_2
REMARK    2  A    between atoms: N_4  and  C_5
REMARK    3  A    between atoms: C_5  and  C_6
REMARK    4  A    between atoms: C_6  and  S_7
REMARK    5  A    between atoms: S_7  and  C_8
REMARK    6  A    between atoms: C_8  and  C_9
REMARK    7  A    between atoms: C_12  and  N_14
REMARK    8  A    between atoms: N_18  and  C_19
REMARK                            x       y       z     vdW  Elec       q    Type
REMARK                         _______ _______ _______ _____ _____    ______ ____
ROOT
ATOM      1  C   UNL     1       3.040   4.234  -3.309  0.00  0.00    +0.125 C 
ENDROOT
BRANCH   1   2
ATOM      2  C   UNL     1       3.277   5.714  -3.461  0.00  0.00    +0.061 A 
ATOM      3  C   UNL     1       2.264   6.527  -3.847  0.00  0.00    +0.073 A 
ATOM      4  S   UNL     1       3.092   8.112  -3.857  0.00  0.00    -0.056 S 
ATOM      5  C   UNL     1       4.700   7.521  -3.345  0.00  0.00    +0.196 A 
ATOM      6  N   UNL     1       4.468   6.220  -3.213  0.00  0.00    -0.225 NA
BRANCH   5   7
ATOM      7  N   UNL     1       5.851   8.218  -3.141  0.00  0.00    -0.189 NA
ATOM      8  C   UNL     1       6.969   7.577  -2.877  0.00  0.00    +0.195 C 
ATOM      9  N   UNL     1       7.009   6.209  -2.950  0.00  0.00    -0.370 N 
ATOM     10  N   UNL     1       8.095   8.278  -2.528  0.00  0.00    -0.370 N 
ATOM     11  H   UNL     1       6.323   5.729  -3.439  0.00  0.00    +0.159 HD
ATOM     12  H   UNL     1       8.066   9.246  -2.477  0.00  0.00    +0.159 HD
ATOM     13  H   UNL     1       8.919   7.806  -2.333  0.00  0.00    +0.159 HD
ATOM     14  H   UNL     1       7.724   5.721  -2.511  0.00  0.00    +0.159 HD
ENDBRANCH   5   7
ENDBRANCH   1   2
BRANCH   1  15
ATOM     15  S   UNL     1       2.504   3.878  -1.613  0.00  0.00    -0.153 S 
BRANCH  15  16
ATOM     16  C   UNL     1       2.265   2.080  -1.596  0.00  0.00    +0.090 C 
BRANCH  16  17
ATOM     17  C   UNL     1       1.806   1.639  -0.205  0.00  0.00    +0.126 C 
BRANCH  17  21
ATOM     18  C   UNL     1       1.577  -2.538  -0.169  0.00  0.00    +0.174 C 
ATOM     19  N   UNL     1       1.218  -1.753   1.015  0.00  0.00    -0.255 NA
ATOM     20  C   UNL     1       1.297  -0.454   0.983  0.00  0.00    +0.206 C 
ATOM     21  N   UNL     1       1.613   0.187  -0.192  0.00  0.00    -0.355 N 
ATOM     22  N   UNL     1       1.063   0.280   2.128  0.00  0.00    -0.263 N 
ATOM     23  H   UNL     1       1.708  -0.322  -1.012  0.00  0.00    +0.163 HD
ATOM     24  H   UNL     1       1.122   1.248   2.104  0.00  0.00    +0.181 HD
BRANCH  22  25
ATOM     25  C   UNL     1       0.752  -0.351   3.285  0.00  0.00    +0.184 C 
ATOM     26  N   UNL     1       0.491  -0.881   4.256  0.00  0.00    -0.171 NA
ENDBRANCH  22  25
ENDBRANCH  17  21
ENDBRANCH  16  17
ENDBRANCH  15  16
ENDBRANCH   1  15
TORSDOF 7
