REMARK  Name = ZINC36737428
REMARK  12 active torsions:
REMARK  status: ('A' for Active; 'I' for Inactive)
REMARK    1  A    between atoms: C_1  and  C_2
REMARK    2  A    between atoms: C_2  and  C_4
REMARK    3  A    between atoms: C_2  and  C_17
REMARK    4  A    between atoms: C_4  and  C_5
REMARK    5  A    between atoms: N_7  and  C_8
REMARK    6  A    between atoms: C_8  and  C_9
REMARK    7  A    between atoms: C_11  and  N_16
REMARK    8  A    between atoms: C_14  and  O_15
REMARK    9  A    between atoms: C_17  and  C_18
REMARK   10  A    between atoms: C_18  and  C_19
REMARK   11  A    between atoms: C_18  and  C_20
REMARK   12  A    between atoms: C_18  and  C_21
REMARK                            x       y       z     vdW  Elec       q    Type
REMARK                         _______ _______ _______ _____ _____    ______ ____
ROOT
ATOM      1  C   UNL     1       1.883  -0.458   1.984  0.00  0.00    +0.214 C 
ATOM      2  O   UNL     1       0.980   0.260   2.358  0.00  0.00    -0.276 OA
ATOM      3  N   UNL     1       2.761  -0.958   2.876  0.00  0.00    -0.311 N 
ATOM      4  H   UNL     1       3.483  -1.532   2.577  0.00  0.00    +0.149 HD
ENDROOT
BRANCH   1   5
ATOM      5  C   UNL     1       2.025  -0.790   0.520  0.00  0.00    +0.099 C 
BRANCH   5   7
ATOM      6  C   UNL     1       1.086   1.417  -0.180  0.00  0.00    +0.008 C 
ATOM      7  C   UNL     1       0.910  -0.100  -0.269  0.00  0.00    -0.005 C 
BRANCH   7   8
ATOM      8  C   UNL     1       0.978  -0.536  -1.734  0.00  0.00    +0.010 C 
BRANCH   8   9
ATOM      9  C   UNL     1      -0.239   0.006  -2.485  0.00  0.00    -0.037 C 
ATOM     10  C   UNL     1      -0.159   1.533  -2.551  0.00  0.00    +0.010 C 
ATOM     11  C   UNL     1      -0.260  -0.565  -3.904  0.00  0.00    +0.010 C 
ATOM     12  C   UNL     1      -1.517  -0.406  -1.750  0.00  0.00    +0.010 C 
ENDBRANCH   8   9
ENDBRANCH   7   8
ENDBRANCH   5   7
ENDBRANCH   1   5
BRANCH   3  13
ATOM     13  C   UNL     1       2.623  -0.635   4.298  0.00  0.00    +0.143 C 
BRANCH  13  14
ATOM     14  C   UNL     1       3.721  -1.314   5.076  0.00  0.00    +0.013 A 
ATOM     15  C   UNL     1       4.786  -0.576   5.554  0.00  0.00    +0.031 A 
ATOM     16  C   UNL     1       5.797  -1.202   6.271  0.00  0.00    +0.025 A 
ATOM     17  C   UNL     1       5.737  -2.569   6.507  0.00  0.00    +0.026 A 
ATOM     18  C   UNL     1       4.671  -3.305   6.028  0.00  0.00    +0.047 A 
ATOM     19  C   UNL     1       3.658  -2.678   5.316  0.00  0.00    +0.122 A 
BRANCH  16  20
ATOM     20  N   UNL     1       6.877  -0.456   6.756  0.00  0.00    -0.358 N 
ATOM     21  H   UNL     1       6.920   0.499   6.591  0.00  0.00    +0.142 HD
ATOM     22  H   UNL     1       7.583  -0.893   7.257  0.00  0.00    +0.142 HD
ENDBRANCH  16  20
BRANCH  19  23
ATOM     23  O   UNL     1       2.607  -3.403   4.849  0.00  0.00    -0.506 OA
ATOM     24  H   UNL     1       2.741  -3.765   3.963  0.00  0.00    +0.292 HD
ENDBRANCH  19  23
ENDBRANCH  13  14
ENDBRANCH   3  13
TORSDOF 8
