REMARK  Name = ZINC38713669
REMARK  13 active torsions:
REMARK  status: ('A' for Active; 'I' for Inactive)
REMARK    1  A    between atoms: C_1  and  C_2
REMARK    2  A    between atoms: C_2  and  N_3
REMARK    3  A    between atoms: N_3  and  C_4
REMARK    4  A    between atoms: N_3  and  C_6
REMARK    5  A    between atoms: C_4  and  C_5
REMARK    6  A    between atoms: C_6  and  C_7
REMARK    7  A    between atoms: C_7  and  C_8
REMARK    8  A    between atoms: C_8  and  N_9
REMARK    9  A    between atoms: C_10  and  C_29
REMARK   10  A    between atoms: C_32  and  O_35
REMARK   11  A    between atoms: O_35  and  C_36
REMARK   12  A    between atoms: C_36  and  C_37
REMARK   13  A    between atoms: C_36  and  C_38
REMARK                            x       y       z     vdW  Elec       q    Type
REMARK                         _______ _______ _______ _____ _____    ______ ____
ROOT
ATOM      1  N   UNL     1       1.818  -4.423  -4.144  0.00  0.00    -0.284 N 
ATOM      2  C   UNL     1       1.363  -4.399  -5.544  0.00  0.00    +0.144 C 
ATOM      3  C   UNL     1       2.484  -4.972  -6.347  0.00  0.00    +0.072 A 
ATOM      4  C   UNL     1       2.619  -5.216  -7.785  0.00  0.00    +0.199 A 
ATOM      5  O   UNL     1       1.827  -4.794  -8.611  0.00  0.00    -0.287 OA
ATOM      6  C   UNL     1       3.810  -6.024  -8.143  0.00  0.00    +0.065 A 
ATOM      7  C   UNL     1       3.961  -6.513  -9.453  0.00  0.00    +0.016 A 
ATOM      8  C   UNL     1       5.039  -7.259  -9.794  0.00  0.00    +0.009 A 
ATOM      9  C   UNL     1       6.029  -7.555  -8.832  0.00  0.00    -0.014 A 
ATOM     10  C   UNL     1       7.149  -8.331  -9.169  0.00  0.00    +0.008 A 
ATOM     11  C   UNL     1       8.093  -8.602  -8.225  0.00  0.00    +0.001 A 
ATOM     12  C   UNL     1       7.964  -8.120  -6.925  0.00  0.00    +0.001 A 
ATOM     13  C   UNL     1       6.889  -7.365  -6.563  0.00  0.00    +0.012 A 
ATOM     14  C   UNL     1       5.898  -7.068  -7.511  0.00  0.00    +0.025 A 
ATOM     15  C   UNL     1       4.768  -6.288  -7.160  0.00  0.00    +0.147 A 
ATOM     16  O   UNL     1       4.658  -5.826  -5.897  0.00  0.00    -0.449 OA
ATOM     17  C   UNL     1       3.494  -5.291  -5.482  0.00  0.00    +0.199 A 
ATOM     18  C   UNL     1       3.063  -4.939  -4.119  0.00  0.00    +0.283 C 
ATOM     19  O   UNL     1       3.732  -5.095  -3.116  0.00  0.00    -0.267 OA
ENDROOT
BRANCH   2  20
ATOM     20  C   UNL     1       0.124  -5.241  -5.703  0.00  0.00    -0.022 A 
ATOM     21  C   UNL     1       0.016  -6.444  -5.030  0.00  0.00    +0.009 A 
ATOM     22  C   UNL     1      -1.119  -7.219  -5.174  0.00  0.00    +0.046 A 
ATOM     23  C   UNL     1      -2.151  -6.789  -5.995  0.00  0.00    +0.121 A 
ATOM     24  C   UNL     1      -2.041  -5.581  -6.669  0.00  0.00    +0.046 A 
ATOM     25  C   UNL     1      -0.906  -4.808  -6.517  0.00  0.00    +0.009 A 
BRANCH  23  26
ATOM     26  O   UNL     1      -3.268  -7.549  -6.138  0.00  0.00    -0.489 OA
BRANCH  26  27
ATOM     27  C   UNL     1      -3.364  -8.722  -5.327  0.00  0.00    +0.167 C 
ATOM     28  C   UNL     1      -4.836  -9.091  -5.136  0.00  0.00    +0.051 C 
ATOM     29  C   UNL     1      -2.633  -9.877  -6.014  0.00  0.00    +0.051 C 
ENDBRANCH  26  27
ENDBRANCH  23  26
ENDBRANCH   2  20
BRANCH   1  30
ATOM     30  C   UNL     1       1.054  -3.961  -2.983  0.00  0.00    +0.107 C 
BRANCH  30  31
ATOM     31  C   UNL     1       1.340  -2.477  -2.741  0.00  0.00    +0.000 C 
BRANCH  31  32
ATOM     32  C   UNL     1       0.542  -1.995  -1.528  0.00  0.00    -0.077 C 
BRANCH  32  33
ATOM     33  N   UNL     1       0.912  -0.607  -1.219  0.00  0.00    +0.379 N 
ATOM     34  H   UNL     1       1.912  -0.546  -1.095  0.00  0.00    -0.082 HD
BRANCH  33  36
ATOM     35  C   UNL     1       0.998   1.691  -2.061  0.00  0.00    -0.017 C 
ATOM     36  C   UNL     1       0.502   0.268  -2.325  0.00  0.00    -0.082 C 
ENDBRANCH  33  36
BRANCH  33  37
ATOM     37  C   UNL     1       0.239  -0.184   0.016  0.00  0.00    -0.082 C 
ATOM     38  C   UNL     1       0.783  -0.992   1.196  0.00  0.00    -0.017 C 
ENDBRANCH  33  37
ENDBRANCH  32  33
ENDBRANCH  31  32
ENDBRANCH  30  31
ENDBRANCH   1  30
TORSDOF 9
