REMARK  Name = ZINC35374918
REMARK  6 active torsions:
REMARK  status: ('A' for Active; 'I' for Inactive)
REMARK    1  A    between atoms: C_1  and  C_2
REMARK    2  A    between atoms: C_2  and  C_3
REMARK    3  A    between atoms: C_3  and  C_5
REMARK    4  A    between atoms: C_3  and  N_6
REMARK    5  A    between atoms: C_11  and  C_29
REMARK    6  A    between atoms: C_29  and  C_30
REMARK                            x       y       z     vdW  Elec       q    Type
REMARK                         _______ _______ _______ _____ _____    ______ ____
ROOT
ATOM      1  N   UNL     1       2.148  -0.104   1.172  0.00  0.00    -0.239 N 
ATOM      2  C   UNL     1       2.992  -0.469   0.162  0.00  0.00    +0.227 C 
ATOM      3  O   UNL     1       2.685  -0.916  -0.923  0.00  0.00    -0.275 OA
ATOM      4  C   UNL     1       4.381  -0.203   0.673  0.00  0.00    +0.107 C 
ATOM      5  C   UNL     1       5.409   0.453  -0.257  0.00  0.00    +0.072 C 
ATOM      6  N   UNL     1       6.211   1.303   0.684  0.00  0.00    -0.295 NA
ATOM      7  C   UNL     1       5.319   1.659   1.831  0.00  0.00    +0.136 C 
ATOM      8  C   UNL     1       4.002   1.092   1.499  0.00  0.00    +0.122 C 
ATOM      9  C   UNL     1       2.756   0.691   2.111  0.00  0.00    +0.228 C 
ATOM     10  O   UNL     1       2.342   0.988   3.211  0.00  0.00    -0.275 OA
ATOM     11  C   UNL     1       5.901   1.108   3.107  0.00  0.00    +0.005 A 
ATOM     12  C   UNL     1       6.155  -0.170   3.552  0.00  0.00    +0.027 A 
ATOM     13  C   UNL     1       6.707  -0.370   4.806  0.00  0.00    +0.041 A 
ATOM     14  C   UNL     1       7.002   0.719   5.609  0.00  0.00    +0.022 A 
ATOM     15  C   UNL     1       6.749   2.000   5.166  0.00  0.00    +0.025 A 
ATOM     16  C   UNL     1       6.194   2.208   3.905  0.00  0.00    +0.039 A 
ATOM     17  N   UNL     1       5.853   3.389   3.242  0.00  0.00    -0.283 N 
ATOM     18  C   UNL     1       5.335   3.156   2.023  0.00  0.00    +0.243 C 
ATOM     19  O   UNL     1       4.954   3.990   1.229  0.00  0.00    -0.273 OA
ATOM     20 CL   UNL     1       7.028  -1.980   5.370  0.00  0.00    -0.084 Cl
ATOM     21  H   UNL     1       7.033   0.812   1.004  0.00  0.00    +0.124 HD
ATOM     22  H   UNL     1       5.976   4.275   3.618  0.00  0.00    +0.155 HD
ENDROOT
BRANCH   1  23
ATOM     23  C   UNL     1       0.742  -0.511   1.242  0.00  0.00    +0.081 C 
ATOM     24  C   UNL     1       0.655  -2.037   1.299  0.00  0.00    +0.028 C 
BRANCH  23  26
ATOM     25  C   UNL     1      -0.019   1.526   0.010  0.00  0.00    +0.006 C 
ATOM     26  C   UNL     1       0.002  -0.004   0.002  0.00  0.00    +0.019 C 
ENDBRANCH  23  26
ENDBRANCH   1  23
BRANCH   5  27
ATOM     27  C   UNL     1       6.290  -0.606  -0.924  0.00  0.00    +0.054 C 
BRANCH  27  28
ATOM     28  C   UNL     1       7.205   0.057  -1.921  0.00  0.00    -0.046 A 
ATOM     29  C   UNL     1       6.797   0.218  -3.232  0.00  0.00    +0.004 A 
ATOM     30  C   UNL     1       7.636   0.826  -4.147  0.00  0.00    +0.000 A 
ATOM     31  C   UNL     1       8.882   1.274  -3.751  0.00  0.00    +0.000 A 
ATOM     32  C   UNL     1       9.290   1.114  -2.440  0.00  0.00    +0.000 A 
ATOM     33  C   UNL     1       8.449   0.510  -1.524  0.00  0.00    +0.004 A 
ENDBRANCH  27  28
ENDBRANCH   5  27
TORSDOF 4
