REMARK  Name = ZINC50309055
REMARK  3 active torsions:
REMARK  status: ('A' for Active; 'I' for Inactive)
REMARK    1  A    between atoms: C_3  and  C_9
REMARK    2  A    between atoms: C_6  and  N_7
REMARK    3  A    between atoms: C_12  and  C_14
REMARK                            x       y       z     vdW  Elec       q    Type
REMARK                         _______ _______ _______ _____ _____    ______ ____
ROOT
ATOM      1  C   UNL     1      -0.017   1.387   0.010  0.00  0.00    +0.023 A 
ATOM      2  C   UNL     1       1.165   2.094   0.002  0.00  0.00    +0.018 A 
ATOM      3  C   UNL     1       2.385   1.414  -0.013  0.00  0.00    +0.074 A 
ATOM      4  C   UNL     1       2.402   0.015  -0.021  0.00  0.00    +0.137 A 
ATOM      5  C   UNL     1       1.213  -0.686  -0.013  0.00  0.00    +0.061 A 
ATOM      6  C   UNL     1       0.002  -0.004   0.002  0.00  0.00    +0.027 A 
ATOM      7  F   UNL     1       3.579  -0.647  -0.036  0.00  0.00    -0.205 F 
ENDROOT
BRANCH   3   8
ATOM      8  C   UNL     1       3.654   2.170  -0.022  0.00  0.00    +0.251 A 
ATOM      9  N   UNL     1       3.782   3.477  -0.011  0.00  0.00    -0.107 NA
ATOM     10  N   UNL     1       5.032   3.780  -0.023  0.00  0.00    -0.112 NA
ATOM     11  C   UNL     1       5.746   2.690  -0.043  0.00  0.00    +0.221 A 
ATOM     12  O   UNL     1       4.896   1.647  -0.036  0.00  0.00    -0.420 OA
BRANCH  11  13
ATOM     13  C   UNL     1       7.250   2.611  -0.063  0.00  0.00    +0.077 C 
ATOM     14  C   UNL     1       8.029   3.912   0.144  0.00  0.00    +0.013 C 
ATOM     15  C   UNL     1       7.976   3.263  -1.241  0.00  0.00    +0.013 C 
ENDBRANCH  11  13
ENDBRANCH   3   8
BRANCH   6  16
ATOM     16  N   UNL     1      -1.197  -0.716   0.010  0.00  0.00    -0.358 N 
ATOM     17  H   UNL     1      -2.043  -0.241   0.021  0.00  0.00    +0.142 HD
ATOM     18  H   UNL     1      -1.185  -1.686   0.005  0.00  0.00    +0.142 HD
ENDBRANCH   6  16
TORSDOF 3
