REMARK  Name = ZINC53115324
REMARK  5 active torsions:
REMARK  status: ('A' for Active; 'I' for Inactive)
REMARK    1  A    between atoms: C_1  and  C_2
REMARK    2  A    between atoms: C_7  and  C_9
REMARK    3  A    between atoms: C_7  and  N_11
REMARK    4  A    between atoms: C_9  and  O_10
REMARK    5  A    between atoms: C_13  and  N_19
REMARK                            x       y       z     vdW  Elec       q    Type
REMARK                         _______ _______ _______ _____ _____    ______ ____
ROOT
ATOM      1  N   UNL     1       2.024   1.460   1.166  0.00  0.00    -0.320 N 
ATOM      2  C   UNL     1       1.440   1.966   2.325  0.00  0.00    +0.140 A 
ATOM      3  C   UNL     1       1.294   3.347   2.482  0.00  0.00    +0.066 A 
ATOM      4  C   UNL     1       0.710   3.833   3.644  0.00  0.00    +0.043 A 
ATOM      5  C   UNL     1       0.292   2.922   4.606  0.00  0.00    +0.038 A 
ATOM      6  C   UNL     1       0.469   1.571   4.382  0.00  0.00    +0.128 A 
ATOM      7  N   UNL     1       1.023   1.135   3.265  0.00  0.00    -0.238 NA
ATOM      8 BR   UNL     1      -0.510   3.526   6.208  0.00  0.00    -0.049 Br
ATOM      9  H   UNL     1       2.263   2.060   0.442  0.00  0.00    +0.148 HD
ENDROOT
BRANCH   1  15
ATOM     10  C   UNL     1      -0.197   1.232   0.042  0.00  0.00    +0.007 C 
ATOM     11  C   UNL     1       0.069  -0.269  -0.089  0.00  0.00    -0.012 C 
ATOM     12  C   UNL     1       0.782  -0.546  -1.414  0.00  0.00    +0.003 C 
ATOM     13  C   UNL     1       2.111   0.211  -1.446  0.00  0.00    +0.002 C 
ATOM     14  C   UNL     1       2.992  -0.255  -0.285  0.00  0.00    +0.028 C 
ATOM     15  C   UNL     1       2.278   0.023   1.040  0.00  0.00    +0.057 C 
ATOM     16  C   UNL     1       0.950  -0.734   1.072  0.00  0.00    +0.031 C 
BRANCH  15  17
ATOM     17  C   UNL     1       3.159  -0.443   2.201  0.00  0.00    +0.181 C 
BRANCH  17  18
ATOM     18  O   UNL     1       4.408   0.251   2.159  0.00  0.00    -0.393 OA
ATOM     19  H   UNL     1       5.018   0.005   2.868  0.00  0.00    +0.209 HD
ENDBRANCH  17  18
ENDBRANCH  15  17
ENDBRANCH   1  15
BRANCH   3  20
ATOM     20  N   UNL     1       1.731   4.226   1.484  0.00  0.00    -0.355 N 
ATOM     21  H   UNL     1       2.139   3.878   0.676  0.00  0.00    +0.142 HD
ATOM     22  H   UNL     1       1.626   5.183   1.601  0.00  0.00    +0.142 HD
ENDBRANCH   3  20
TORSDOF 4
