REMARK  Name = ZINC16567629
REMARK  12 active torsions:
REMARK  status: ('A' for Active; 'I' for Inactive)
REMARK    1  A    between atoms: C_1  and  C_2
REMARK    2  A    between atoms: C_2  and  C_3
REMARK    3  A    between atoms: C_6  and  C_9
REMARK    4  A    between atoms: N_11  and  C_12
REMARK    5  A    between atoms: C_12  and  C_14
REMARK    6  A    between atoms: C_12  and  C_15
REMARK    7  A    between atoms: C_18  and  S_29
REMARK    8  A    between atoms: N_19  and  C_20
REMARK    9  A    between atoms: C_23  and  N_26
REMARK   10  A    between atoms: S_29  and  C_30
REMARK   11  A    between atoms: C_30  and  C_31
REMARK   12  A    between atoms: C_35  and  C_37
REMARK                            x       y       z     vdW  Elec       q    Type
REMARK                         _______ _______ _______ _____ _____    ______ ____
ROOT
ATOM      1  C   UNL     1      -0.148   9.862  -1.624  0.00  0.00    +0.159 A 
ATOM      2  N   UNL     1      -0.131   9.562  -0.356  0.00  0.00    -0.131 NA
ATOM      3  N   UNL     1      -0.112   8.286  -0.203  0.00  0.00    -0.122 NA
ATOM      4  C   UNL     1      -0.116   7.695  -1.375  0.00  0.00    +0.196 A 
ATOM      5  N   UNL     1      -0.133   8.683  -2.321  0.00  0.00    -0.273 N 
ENDROOT
BRANCH   5   6
ATOM      6  C   UNL     1      -0.137   8.522  -3.715  0.00  0.00    +0.050 A 
ATOM      7  C   UNL     1       0.940   8.966  -4.469  0.00  0.00    +0.028 A 
ATOM      8  C   UNL     1       0.936   8.802  -5.840  0.00  0.00    +0.035 A 
ATOM      9  C   UNL     1      -0.146   8.206  -6.463  0.00  0.00    +0.126 A 
ATOM     10  C   UNL     1      -1.223   7.769  -5.715  0.00  0.00    +0.035 A 
ATOM     11  C   UNL     1      -1.222   7.925  -4.342  0.00  0.00    +0.028 A 
BRANCH   9  12
ATOM     12  N   UNL     1      -0.151   8.037  -7.934  0.00  0.00    +0.056 N 
ATOM     13  O   UNL     1      -1.103   7.513  -8.483  0.00  0.00    -0.126 OA
ATOM     14  O   UNL     1       0.798   8.422  -8.594  0.00  0.00    -0.126 OA
ENDBRANCH   9  12
ENDBRANCH   5   6
BRANCH   1  15
ATOM     15  C   UNL     1      -0.172  11.248  -2.214  0.00  0.00    +0.139 C 
ATOM     16  C   UNL     1       1.214  11.882  -2.083  0.00  0.00    +0.036 C 
BRANCH  15  19
ATOM     17  C   UNL     1      -1.722  13.126  -2.106  0.00  0.00    +0.245 C 
ATOM     18  O   UNL     1      -1.421  13.402  -3.251  0.00  0.00    -0.270 OA
ATOM     19  N   UNL     1      -1.153  12.067  -1.496  0.00  0.00    -0.302 N 
ATOM     20  H   UNL     1      -1.393  11.847  -0.583  0.00  0.00    +0.150 HD
BRANCH  17  24
ATOM     21  C   UNL     1      -4.566  15.499  -0.027  0.00  0.00    -0.048 A 
ATOM     22  C   UNL     1      -4.225  15.816  -1.331  0.00  0.00    +0.004 A 
ATOM     23  C   UNL     1      -3.302  15.049  -2.011  0.00  0.00    +0.013 A 
ATOM     24  C   UNL     1      -2.711  13.952  -1.383  0.00  0.00    +0.037 A 
ATOM     25  C   UNL     1      -3.063  13.635  -0.070  0.00  0.00    +0.013 A 
ATOM     26  C   UNL     1      -3.983  14.413   0.602  0.00  0.00    +0.004 A 
BRANCH  21  28
ATOM     27  C   UNL     1      -6.977  15.778   0.477  0.00  0.00    +0.009 C 
ATOM     28  C   UNL     1      -5.574  16.341   0.710  0.00  0.00    +0.032 C 
ENDBRANCH  21  28
ENDBRANCH  17  24
ENDBRANCH  15  19
ENDBRANCH   1  15
BRANCH   4  29
ATOM     29  S   UNL     1      -0.095   5.958  -1.674  0.00  0.00    -0.081 S 
BRANCH  29  30
ATOM     30  C   UNL     1      -0.070   5.347   0.030  0.00  0.00    +0.112 C 
BRANCH  30  31
ATOM     31  C   UNL     1      -0.050   3.840   0.022  0.00  0.00    -0.037 A 
ATOM     32  C   UNL     1       1.157   3.165   0.008  0.00  0.00    +0.004 A 
ATOM     33  C   UNL     1       1.175   1.783   0.000  0.00  0.00    +0.001 A 
ATOM     34  C   UNL     1      -0.013   1.076   0.008  0.00  0.00    +0.003 A 
ATOM     35  C   UNL     1      -1.219   1.750   0.017  0.00  0.00    -0.050 A 
ATOM     36  C   UNL     1      -1.238   3.133   0.030  0.00  0.00    +0.007 A 
ATOM     37  C   UNL     1      -2.514   0.979   0.019  0.00  0.00    +0.044 C 
ENDBRANCH  30  31
ENDBRANCH  29  30
ENDBRANCH   4  29
TORSDOF 9
