REMARK  Name = ZINC12779198
REMARK  16 active torsions:
REMARK  status: ('A' for Active; 'I' for Inactive)
REMARK    1  A    between atoms: C_1  and  C_2
REMARK    2  A    between atoms: C_2  and  N_71
REMARK    3  A    between atoms: C_3  and  C_4
REMARK    4  A    between atoms: C_3  and  N_71
REMARK    5  A    between atoms: N_6  and  C_7
REMARK    6  A    between atoms: C_9  and  S_17
REMARK    7  A    between atoms: C_12  and  O_13
REMARK    8  A    between atoms: O_13  and  C_14
REMARK    9  A    between atoms: C_14  and  C_15
REMARK   10  A    between atoms: C_14  and  C_16
REMARK   11  A    between atoms: S_17  and  N_20
REMARK   12  A    between atoms: C_26  and  C_27
REMARK   13  A    between atoms: C_26  and  N_71
REMARK   14  A    between atoms: N_29  and  C_30
REMARK   15  A    between atoms: C_30  and  C_31
REMARK   16  A    between atoms: C_30  and  C_32
REMARK                            x       y       z     vdW  Elec       q    Type
REMARK                         _______ _______ _______ _____ _____    ______ ____
ROOT
ATOM      1  C   UNL     1       4.902  -0.691  -2.416  0.00  0.00    +0.077 A 
ATOM      2  C   UNL     1       4.181  -0.300  -1.297  0.00  0.00    +0.055 A 
ATOM      3  C   UNL     1       3.140  -1.085  -0.838  0.00  0.00    +0.107 A 
ATOM      4  C   UNL     1       2.818  -2.262  -1.487  0.00  0.00    +0.032 A 
ATOM      5  C   UNL     1       3.529  -2.655  -2.606  0.00  0.00    +0.049 A 
ATOM      6  C   UNL     1       4.574  -1.874  -3.073  0.00  0.00    +0.142 A 
ENDROOT
BRANCH   1   9
ATOM      7  C   UNL     1       5.917   1.440  -2.725  0.00  0.00    +0.201 C 
ATOM      8  O   UNL     1       5.013   1.949  -2.096  0.00  0.00    -0.278 OA
ATOM      9  N   UNL     1       5.958   0.103  -2.884  0.00  0.00    -0.284 N 
ATOM     10  H   UNL     1       6.718  -0.311  -3.322  0.00  0.00    +0.155 HD
BRANCH   7  11
ATOM     11  C   UNL     1       6.994   2.304  -3.329  0.00  0.00    +0.020 C 
BRANCH  11  12
ATOM     12  N   UNL     1       6.773   3.703  -2.905  0.00  0.00    +0.391 N 
ATOM     13  H   UNL     1       5.768   3.910  -2.949  0.00  0.00    -0.080 HD
BRANCH  12  15
ATOM     14  C   UNL     1       6.692   4.767  -5.104  0.00  0.00    -0.017 C 
ATOM     15  C   UNL     1       7.494   4.625  -3.808  0.00  0.00    -0.081 C 
ENDBRANCH  12  15
BRANCH  12  16
ATOM     16  C   UNL     1       7.241   3.889  -1.515  0.00  0.00    +0.019 C 
BRANCH  16  17
ATOM     17  C   UNL     1       6.806   5.250  -1.034  0.00  0.00    +0.197 C 
ATOM     18  O   UNL     1       6.191   5.987  -1.775  0.00  0.00    -0.278 OA
ATOM     19  N   UNL     1       7.102   5.647   0.219  0.00  0.00    -0.315 N 
ATOM     20  H   UNL     1       7.594   5.058   0.812  0.00  0.00    +0.149 HD
BRANCH  19  21
ATOM     21  C   UNL     1       6.680   6.970   0.686  0.00  0.00    +0.067 C 
ATOM     22  C   UNL     1       6.556   6.957   2.212  0.00  0.00    +0.027 C 
ATOM     23  C   UNL     1       7.717   8.014   0.268  0.00  0.00    +0.027 C 
ENDBRANCH  19  21
ENDBRANCH  16  17
ENDBRANCH  12  16
ENDBRANCH  11  12
ENDBRANCH   7  11
ENDBRANCH   1   9
BRANCH   3  24
ATOM     24  S   UNL     1       2.226  -0.587   0.584  0.00  0.00    +0.061 S 
ATOM     25  O   UNL     1       3.076   0.269   1.335  0.00  0.00    -0.153 OA
ATOM     26  O   UNL     1       1.656  -1.767   1.134  0.00  0.00    -0.153 OA
BRANCH  24  27
ATOM     27  N   UNL     1       0.964   0.345   0.053  0.00  0.00    -0.177 NA
ATOM     28  C   UNL     1      -0.327  -0.267  -0.288  0.00  0.00    +0.109 C 
ATOM     29  C   UNL     1      -0.715   0.161  -1.707  0.00  0.00    +0.017 C 
ATOM     30  C   UNL     1      -0.700   1.688  -1.798  0.00  0.00    +0.003 C 
ATOM     31  C   UNL     1       0.711   2.205  -1.506  0.00  0.00    +0.017 C 
ATOM     32  C   UNL     1       1.115   1.800  -0.085  0.00  0.00    +0.109 C 
ENDBRANCH  24  27
ENDBRANCH   3  24
BRANCH   6  33
ATOM     33  O   UNL     1       5.277  -2.263  -4.170  0.00  0.00    -0.488 OA
BRANCH  33  34
ATOM     34  C   UNL     1       4.815  -3.426  -4.859  0.00  0.00    +0.167 C 
ATOM     35  C   UNL     1       5.271  -3.369  -6.319  0.00  0.00    +0.051 C 
ATOM     36  C   UNL     1       5.391  -4.677  -4.193  0.00  0.00    +0.051 C 
ENDBRANCH  33  34
ENDBRANCH   6  33
TORSDOF 11
