REMARK  Name = ZINC02255194
REMARK  4 active torsions:
REMARK  status: ('A' for Active; 'I' for Inactive)
REMARK    1  A    between atoms: C_3  and  C_6
REMARK    2  A    between atoms: C_8  and  C_19
REMARK    3  A    between atoms: C_10  and  N_18
REMARK    4  A    between atoms: C_11  and  C_15
REMARK                            x       y       z     vdW  Elec       q    Type
REMARK                         _______ _______ _______ _____ _____    ______ ____
ROOT
ATOM      1  C   UNL     1      -0.637  -2.160  -0.304  0.00  0.00    +0.079 A 
ATOM      2  C   UNL     1       0.696  -2.582  -0.339  0.00  0.00    +0.038 A 
ATOM      3  C   UNL     1       1.719  -1.659  -0.220  0.00  0.00    -0.004 A 
ATOM      4  C   UNL     1       1.388  -0.276  -0.060  0.00  0.00    +0.037 A 
ATOM      5  C   UNL     1       2.285   0.856   0.083  0.00  0.00    +0.054 A 
ATOM      6  C   UNL     1       1.735   2.113   0.224  0.00  0.00    +0.097 A 
ATOM      7  S   UNL     1      -0.019   1.804   0.167  0.00  0.00    -0.062 S 
ATOM      8  C   UNL     1       0.011   0.040  -0.039  0.00  0.00    +0.112 A 
ATOM      9  N   UNL     1      -0.929  -0.871  -0.157  0.00  0.00    -0.239 NA
ENDROOT
BRANCH   3  10
ATOM     10  C   UNL     1       3.134  -2.095  -0.255  0.00  0.00    -0.017 A 
ATOM     11  C   UNL     1       4.004  -1.571  -1.211  0.00  0.00    +0.011 A 
ATOM     12  C   UNL     1       5.322  -1.977  -1.238  0.00  0.00    +0.039 A 
ATOM     13  C   UNL     1       5.780  -2.911  -0.322  0.00  0.00    +0.123 A 
ATOM     14  C   UNL     1       4.918  -3.438   0.626  0.00  0.00    +0.039 A 
ATOM     15  C   UNL     1       3.600  -3.035   0.664  0.00  0.00    +0.011 A 
ATOM     16  F   UNL     1       7.071  -3.309  -0.355  0.00  0.00    -0.205 F 
ENDBRANCH   3  10
BRANCH   1  19
ATOM     17  C   UNL     1      -3.910  -4.038  -0.562  0.00  0.00    +0.008 A 
ATOM     18  C   UNL     1      -3.080  -2.949  -0.425  0.00  0.00    +0.017 A 
ATOM     19  C   UNL     1      -1.724  -3.150  -0.433  0.00  0.00    +0.038 A 
ATOM     20  S   UNL     1      -1.615  -4.919  -0.647  0.00  0.00    -0.095 S 
ATOM     21  C   UNL     1      -3.364  -5.274  -0.701  0.00  0.00    +0.046 A 
ENDBRANCH   1  19
BRANCH   6  22
ATOM     22  C   UNL     1       2.404   3.352   0.377  0.00  0.00    +0.250 C 
ATOM     23  O   UNL     1       3.621   3.388   0.395  0.00  0.00    -0.270 OA
ATOM     24  N   UNL     1       1.694   4.490   0.503  0.00  0.00    -0.325 N 
ATOM     25  H   UNL     1       0.724   4.461   0.489  0.00  0.00    +0.145 HD
ATOM     26  H   UNL     1       2.152   5.338   0.608  0.00  0.00    +0.145 HD
ENDBRANCH   6  22
BRANCH   5  27
ATOM     27  N   UNL     1       3.662   0.677   0.077  0.00  0.00    -0.356 N 
ATOM     28  H   UNL     1       4.241   1.386  -0.244  0.00  0.00    +0.142 HD
ATOM     29  H   UNL     1       4.045  -0.156   0.394  0.00  0.00    +0.142 HD
ENDBRANCH   5  27
TORSDOF 4
