REMARK  Name = ZINC35599566
REMARK  7 active torsions:
REMARK  status: ('A' for Active; 'I' for Inactive)
REMARK    1  A    between atoms: C_1  and  C_2
REMARK    2  A    between atoms: C_2  and  C_4
REMARK    3  A    between atoms: C_2  and  O_18
REMARK    4  A    between atoms: C_4  and  N_5
REMARK    5  A    between atoms: N_5  and  S_6
REMARK    6  A    between atoms: S_6  and  C_9
REMARK    7  A    between atoms: C_10  and  N_17
REMARK                            x       y       z     vdW  Elec       q    Type
REMARK                         _______ _______ _______ _____ _____    ______ ____
ROOT
ATOM      1  C   UNL     1      -4.287  -2.732  -0.722  0.00  0.00    +0.140 A 
ATOM      2  C   UNL     1      -4.910  -1.492  -0.677  0.00  0.00    +0.053 A 
ATOM      3  C   UNL     1      -5.535  -0.990  -1.811  0.00  0.00    +0.040 A 
ATOM      4  C   UNL     1      -5.535  -1.726  -2.981  0.00  0.00    +0.021 A 
ATOM      5  C   UNL     1      -4.914  -2.961  -3.023  0.00  0.00    +0.032 A 
ATOM      6  C   UNL     1      -4.286  -3.461  -1.896  0.00  0.00    +0.047 A 
ATOM      7 BR   UNL     1      -3.431  -5.147  -1.960  0.00  0.00    -0.048 Br
ATOM      8 BR   UNL     1      -6.386  -1.043  -4.526  0.00  0.00    -0.050 Br
ENDROOT
BRANCH   1   9
ATOM      9  S   UNL     1      -3.492  -3.373   0.715  0.00  0.00    +0.061 S 
ATOM     10  O   UNL     1      -3.519  -4.789   0.596  0.00  0.00    -0.153 OA
ATOM     11  O   UNL     1      -4.053  -2.691   1.827  0.00  0.00    -0.153 OA
BRANCH   9  12
ATOM     12  N   UNL     1      -1.901  -2.921   0.636  0.00  0.00    -0.187 NA
ATOM     13  H   UNL     1      -1.209  -3.595   0.545  0.00  0.00    +0.148 HD
BRANCH  12  14
ATOM     14  C   UNL     1      -1.537  -1.504   0.705  0.00  0.00    +0.136 C 
BRANCH  14  16
ATOM     15  C   UNL     1       0.340   0.106   1.058  0.00  0.00    +0.039 C 
ATOM     16  C   UNL     1      -0.039  -1.374   0.986  0.00  0.00    +0.127 C 
BRANCH  16  17
ATOM     17  O   UNL     1       0.268  -2.005   2.231  0.00  0.00    -0.391 OA
ATOM     18  H   UNL     1       1.203  -1.962   2.474  0.00  0.00    +0.210 HD
ENDBRANCH  16  17
ENDBRANCH  14  16
ENDBRANCH  12  14
ENDBRANCH   9  12
ENDBRANCH   1   9
BRANCH   2  19
ATOM     19  N   UNL     1      -4.908  -0.750   0.507  0.00  0.00    -0.356 N 
ATOM     20  H   UNL     1      -4.210  -0.890   1.166  0.00  0.00    +0.142 HD
ATOM     21  H   UNL     1      -5.605  -0.096   0.671  0.00  0.00    +0.142 HD
ENDBRANCH   2  19
TORSDOF 6
