REMARK  Name = ZINC09662929
REMARK  7 active torsions:
REMARK  status: ('A' for Active; 'I' for Inactive)
REMARK    1  A    between atoms: C_4  and  N_7
REMARK    2  A    between atoms: C_11  and  S_13
REMARK    3  A    between atoms: S_13  and  C_14
REMARK    4  A    between atoms: C_14  and  C_15
REMARK    5  A    between atoms: N_17  and  C_18
REMARK    6  A    between atoms: C_21  and  N_28
REMARK    7  A    between atoms: C_23  and  C_24
REMARK                            x       y       z     vdW  Elec       q    Type
REMARK                         _______ _______ _______ _____ _____    ______ ____
ROOT
ATOM      1  C   UNL     1      -9.389  -0.446  -0.513  0.00  0.00    +0.227 C 
ATOM      2  O   UNL     1     -10.273   0.382  -0.583  0.00  0.00    -0.275 OA
ATOM      3  N   UNL     1      -9.691  -1.759  -0.552  0.00  0.00    -0.284 N 
ATOM      4  H   UNL     1      -8.992  -2.421  -0.434  0.00  0.00    +0.155 HD
ENDROOT
BRANCH   3   5
ATOM      5  C   UNL     1     -11.012  -2.167  -0.764  0.00  0.00    +0.045 A 
ATOM      6  C   UNL     1     -12.063  -1.419  -0.248  0.00  0.00    +0.026 A 
ATOM      7  C   UNL     1     -13.366  -1.825  -0.459  0.00  0.00    +0.034 A 
ATOM      8  C   UNL     1     -13.626  -2.974  -1.182  0.00  0.00    +0.127 A 
ATOM      9  C   UNL     1     -12.582  -3.721  -1.697  0.00  0.00    +0.047 A 
ATOM     10  C   UNL     1     -11.277  -3.318  -1.495  0.00  0.00    +0.078 A 
BRANCH  10  11
ATOM     11  C   UNL     1     -10.140  -4.129  -2.062  0.00  0.00    +0.419 C 
ATOM     12  F   UNL     1     -10.653  -5.232  -2.752  0.00  0.00    -0.166 F 
ATOM     13  F   UNL     1      -9.393  -3.336  -2.939  0.00  0.00    -0.166 F 
ATOM     14  F   UNL     1      -9.318  -4.572  -1.019  0.00  0.00    -0.166 F 
ENDBRANCH  10  11
BRANCH   8  15
ATOM     15  N   UNL     1     -15.024  -3.406  -1.407  0.00  0.00    +0.056 N 
ATOM     16  O   UNL     1     -15.944  -2.749  -0.954  0.00  0.00    -0.126 OA
ATOM     17  O   UNL     1     -15.254  -4.418  -2.043  0.00  0.00    -0.126 OA
ENDBRANCH   8  15
ENDBRANCH   3   5
BRANCH   1  18
ATOM     18  C   UNL     1      -7.954  -0.006  -0.384  0.00  0.00    +0.172 C 
BRANCH  18  19
ATOM     19  S   UNL     1      -7.877   1.806  -0.360  0.00  0.00    -0.088 S 
BRANCH  19  24
ATOM     20  N   UNL     1      -2.464   3.825   0.132  0.00  0.00    -0.292 N 
ATOM     21  C   UNL     1      -3.657   3.120   0.021  0.00  0.00    +0.187 A 
ATOM     22  N   UNL     1      -3.857   1.817  -0.014  0.00  0.00    -0.125 NA
ATOM     23  N   UNL     1      -5.137   1.324  -0.125  0.00  0.00    -0.133 NA
ATOM     24  C   UNL     1      -6.157   2.158  -0.206  0.00  0.00    +0.160 A 
ATOM     25  S   UNL     1      -5.327   3.737  -0.118  0.00  0.00    -0.024 S 
ATOM     26  H   UNL     1      -2.477   4.791   0.219  0.00  0.00    +0.154 HD
BRANCH  20  30
ATOM     27  C   UNL     1       1.169   1.791   0.085  0.00  0.00    +0.000 A 
ATOM     28  C   UNL     1       1.077   3.024   0.703  0.00  0.00    +0.002 A 
ATOM     29  C   UNL     1      -0.127   3.699   0.725  0.00  0.00    +0.023 A 
ATOM     30  C   UNL     1      -1.245   3.143   0.116  0.00  0.00    +0.033 A 
ATOM     31  C   UNL     1      -1.149   1.903  -0.504  0.00  0.00    +0.023 A 
ATOM     32  C   UNL     1       0.057   1.231  -0.517  0.00  0.00    +0.002 A 
ENDBRANCH  20  30
ENDBRANCH  19  24
ENDBRANCH  18  19
ENDBRANCH   1  18
TORSDOF 7
