REMARK  Name = ZINC42653476
REMARK  5 active torsions:
REMARK  status: ('A' for Active; 'I' for Inactive)
REMARK    1  A    between atoms: C_3  and  C_7
REMARK    2  A    between atoms: C_7  and  C_9
REMARK    3  A    between atoms: C_11  and  C_23
REMARK    4  A    between atoms: C_17  and  C_18
REMARK    5  A    between atoms: C_17  and  O_22
REMARK                            x       y       z     vdW  Elec       q    Type
REMARK                         _______ _______ _______ _____ _____    ______ ____
ROOT
ATOM      1  C   UNL     1       4.951   1.221  -0.039  0.00  0.00    +0.144 C 
ATOM      2  C   UNL     1       5.377   0.962  -1.488  0.00  0.00    +0.124 C 
ATOM      3  N   UNL     1       5.695   2.238  -2.131  0.00  0.00    -0.318 N 
ATOM      4  C   UNL     1       6.156   3.280  -1.423  0.00  0.00    +0.133 C 
ATOM      5  S   UNL     1       6.519   4.737  -2.246  0.00  0.00    -0.019 S 
ATOM      6  N   UNL     1       6.343   3.226  -0.096  0.00  0.00    -0.291 N 
ATOM      7  C   UNL     1       6.062   2.005   0.668  0.00  0.00    +0.241 C 
ATOM      8  H   UNL     1       5.569   2.332  -3.088  0.00  0.00    +0.148 HD
ATOM      9  H   UNL     1       6.671   4.011   0.370  0.00  0.00    +0.151 HD
ENDROOT
BRANCH   2  10
ATOM     10  C   UNL     1       4.253   0.288  -2.231  0.00  0.00    +0.011 A 
ATOM     11  C   UNL     1       4.088  -1.026  -2.523  0.00  0.00    +0.013 A 
ATOM     12  C   UNL     1       2.964  -1.421  -3.223  0.00  0.00    +0.008 A 
ATOM     13  C   UNL     1       2.059  -0.484  -3.597  0.00  0.00    +0.045 A 
ATOM     14  S   UNL     1       2.787   1.012  -2.949  0.00  0.00    -0.100 S 
ENDBRANCH   2  10
BRANCH   7  15
ATOM     15  C   UNL     1       7.326   1.146   0.741  0.00  0.00    +0.436 C 
ATOM     16  F   UNL     1       7.741   0.815  -0.554  0.00  0.00    -0.166 F 
ATOM     17  F   UNL     1       8.340   1.862   1.386  0.00  0.00    -0.166 F 
ATOM     18  F   UNL     1       7.054  -0.025   1.457  0.00  0.00    -0.166 F 
ENDBRANCH   7  15
BRANCH   1  19
ATOM     19  C   UNL     1       3.676   2.024  -0.023  0.00  0.00    +0.174 C 
ATOM     20  O   UNL     1       3.723   3.236  -0.017  0.00  0.00    -0.291 OA
BRANCH  19  23
ATOM     21  C   UNL     1      -0.017   1.379   0.010  0.00  0.00    +0.020 A 
ATOM     22  C   UNL     1       1.180   2.073   0.002  0.00  0.00    +0.014 A 
ATOM     23  C   UNL     1       2.374   1.338  -0.013  0.00  0.00    +0.036 A 
ATOM     24  C   UNL     1       2.306  -0.059  -0.020  0.00  0.00    +0.122 A 
ATOM     25  N   UNL     1       1.141  -0.671  -0.013  0.00  0.00    -0.263 NA
ATOM     26  C   UNL     1       0.002  -0.004   0.002  0.00  0.00    +0.111 A 
ENDBRANCH  19  23
ENDBRANCH   1  19
BRANCH   7  27
ATOM     27  O   UNL     1       5.639   2.347   1.989  0.00  0.00    -0.364 OA
ATOM     28  H   UNL     1       6.295   2.846   2.495  0.00  0.00    +0.212 HD
ENDBRANCH   7  27
TORSDOF 5
