REMARK  Name = ZINC33717303
REMARK  12 active torsions:
REMARK  status: ('A' for Active; 'I' for Inactive)
REMARK    1  A    between atoms: C_1  and  C_2
REMARK    2  A    between atoms: C_5  and  C_8
REMARK    3  A    between atoms: C_14  and  C_16
REMARK    4  A    between atoms: C_16  and  C_17
REMARK    5  A    between atoms: C_17  and  N_18
REMARK    6  A    between atoms: N_18  and  C_19
REMARK    7  A    between atoms: C_19  and  C_21
REMARK    8  A    between atoms: C_19  and  C_22
REMARK    9  A    between atoms: C_28  and  C_30
REMARK   10  A    between atoms: C_30  and  O_31
REMARK   11  A    between atoms: O_31  and  C_32
REMARK   12  A    between atoms: C_32  and  C_33
REMARK                            x       y       z     vdW  Elec       q    Type
REMARK                         _______ _______ _______ _____ _____    ______ ____
ROOT
ATOM      1  N   UNL     1       2.130   4.089   0.980  0.00  0.00    -0.292 N 
ATOM      2  C   UNL     1       1.716   4.780   2.061  0.00  0.00    +0.242 C 
ATOM      3  O   UNL     1       2.528   5.203   2.857  0.00  0.00    -0.273 OA
ENDROOT
BRANCH   1   4
ATOM      4  C   UNL     1       1.149   3.578   0.018  0.00  0.00    +0.103 C 
ATOM      5  C   UNL     1       1.500   4.082  -1.383  0.00  0.00    +0.033 C 
BRANCH   4   6
ATOM      6  C   UNL     1       1.171   2.072   0.031  0.00  0.00    -0.027 A 
ATOM      7  C   UNL     1       1.498   1.395   1.191  0.00  0.00    +0.005 A 
ATOM      8  C   UNL     1       1.518   0.013   1.203  0.00  0.00    +0.000 A 
ATOM      9  C   UNL     1       1.209  -0.693   0.055  0.00  0.00    +0.000 A 
ATOM     10  C   UNL     1       0.882  -0.016  -1.105  0.00  0.00    +0.000 A 
ATOM     11  C   UNL     1       0.863   1.366  -1.117  0.00  0.00    +0.005 A 
ENDBRANCH   4   6
ENDBRANCH   1   4
BRANCH   1  12
ATOM     12  C   UNL     1       3.559   3.848   0.767  0.00  0.00    +0.117 C 
BRANCH  12  13
ATOM     13  C   UNL     1       4.181   5.059   0.068  0.00  0.00    +0.115 C 
BRANCH  13  20
ATOM     14  C   UNL     1      10.342   5.421  -1.495  0.00  0.00    +0.134 A 
ATOM     15  N   UNL     1       9.734   4.408  -0.890  0.00  0.00    -0.140 NA
ATOM     16  N   UNL     1       8.500   4.467  -0.631  0.00  0.00    -0.125 NA
ATOM     17  C   UNL     1       7.766   5.519  -0.956  0.00  0.00    +0.188 A 
ATOM     18  S   UNL     1       8.962   6.541  -1.698  0.00  0.00    -0.030 S 
ATOM     19  N   UNL     1       6.410   5.747  -0.754  0.00  0.00    -0.263 N 
ATOM     20  C   UNL     1       5.652   4.811  -0.151  0.00  0.00    +0.220 C 
ATOM     21  O   UNL     1       6.152   3.769   0.216  0.00  0.00    -0.275 OA
ATOM     22  H   UNL     1       5.956   6.692  -1.086  0.00  0.00    +0.157 HD
BRANCH  14  27
ATOM     23  C   UNL     1      15.855   6.037  -3.027  0.00  0.00    +0.044 C 
ATOM     24  C   UNL     1      14.411   5.876  -2.626  0.00  0.00    -0.050 A 
ATOM     25  C   UNL     1      13.996   4.715  -1.998  0.00  0.00    +0.004 A 
ATOM     26  C   UNL     1      12.676   4.561  -1.628  0.00  0.00    +0.011 A 
ATOM     27  C   UNL     1      11.758   5.579  -1.889  0.00  0.00    +0.009 A 
ATOM     28  C   UNL     1      12.182   6.745  -2.528  0.00  0.00    +0.011 A 
ATOM     29  C   UNL     1      13.506   6.889  -2.888  0.00  0.00    +0.004 A 
ENDBRANCH  14  27
ENDBRANCH  13  20
ENDBRANCH  12  13
ENDBRANCH   1  12
BRANCH   2  30
ATOM     30  C   UNL     1       0.246   5.028   2.280  0.00  0.00    +0.256 C 
BRANCH  30  31
ATOM     31  O   UNL     1       0.063   5.777   3.483  0.00  0.00    -0.366 OA
BRANCH  31  32
ATOM     32  C   UNL     1      -1.303   6.067   3.785  0.00  0.00    +0.195 C 
BRANCH  32  33
ATOM     33  C   UNL     1      -1.377   6.855   5.068  0.00  0.00    -0.022 A 
ATOM     34  C   UNL     1      -1.496   6.197   6.277  0.00  0.00    +0.006 A 
ATOM     35  C   UNL     1      -1.560   6.920   7.454  0.00  0.00    +0.000 A 
ATOM     36  C   UNL     1      -1.514   8.301   7.420  0.00  0.00    +0.000 A 
ATOM     37  C   UNL     1      -1.401   8.959   6.210  0.00  0.00    +0.000 A 
ATOM     38  C   UNL     1      -1.332   8.236   5.034  0.00  0.00    +0.006 A 
ENDBRANCH  32  33
ENDBRANCH  31  32
ENDBRANCH  30  31
ENDBRANCH   2  30
TORSDOF 10
