REMARK  Name = ZINC21804479
REMARK  5 active torsions:
REMARK  status: ('A' for Active; 'I' for Inactive)
REMARK    1  A    between atoms: C_6  and  N_7
REMARK    2  A    between atoms: N_7  and  S_8
REMARK    3  A    between atoms: S_8  and  C_11
REMARK    4  A    between atoms: C_14  and  O_18
REMARK    5  A    between atoms: C_15  and  N_17
REMARK                            x       y       z     vdW  Elec       q    Type
REMARK                         _______ _______ _______ _____ _____    ______ ____
ROOT
ATOM      1  S   UNL     1       0.081  -0.000   0.082  0.00  0.00    +0.072 S 
ATOM      2  O   UNL     1      -1.238  -0.465   0.337  0.00  0.00    -0.150 OA
ATOM      3  O   UNL     1       0.831  -0.421  -1.049  0.00  0.00    -0.150 OA
ENDROOT
BRANCH   1   4
ATOM      4  C   UNL     1       1.041  -0.405   1.502  0.00  0.00    +0.110 A 
ATOM      5  C   UNL     1       2.420  -0.435   1.417  0.00  0.00    +0.032 A 
ATOM      6  C   UNL     1       3.179  -0.748   2.530  0.00  0.00    +0.049 A 
ATOM      7  C   UNL     1       2.558  -1.042   3.732  0.00  0.00    +0.137 A 
ATOM      8  C   UNL     1       1.167  -1.017   3.818  0.00  0.00    +0.068 A 
ATOM      9  C   UNL     1       0.413  -0.698   2.699  0.00  0.00    +0.055 A 
BRANCH   8  10
ATOM     10  N   UNL     1       0.534  -1.313   5.030  0.00  0.00    -0.355 N 
ATOM     11  H   UNL     1      -0.564  -1.293   5.096  0.00  0.00    +0.142 HD
ATOM     12  H   UNL     1       1.134  -1.566   5.917  0.00  0.00    +0.142 HD
ENDBRANCH   8  10
BRANCH   7  13
ATOM     13  O   UNL     1       3.303  -1.355   4.826  0.00  0.00    -0.505 OA
ATOM     14  H   UNL     1       2.808  -1.588   5.780  0.00  0.00    +0.292 HD
ENDBRANCH   7  13
ENDBRANCH   1   4
BRANCH   1  15
ATOM     15  N   UNL     1      -0.006   1.652   0.004  0.00  0.00    -0.216 N 
ATOM     16  H   UNL     1       0.429   2.186  -0.853  0.00  0.00    +0.174 HD
BRANCH  15  22
ATOM     17  C   UNL     1      -1.861   1.944   1.521  0.00  0.00    +0.026 A 
ATOM     18  C   UNL     1      -2.476   2.650   2.537  0.00  0.00    +0.023 A 
ATOM     19  C   UNL     1      -1.877   3.784   3.054  0.00  0.00    +0.059 A 
ATOM     20  C   UNL     1      -0.656   4.212   2.560  0.00  0.00    +0.061 A 
ATOM     21  C   UNL     1      -0.033   3.506   1.548  0.00  0.00    +0.046 A 
ATOM     22  C   UNL     1      -0.633   2.367   1.027  0.00  0.00    +0.050 A 
ATOM     23 CL   UNL     1       0.093   5.636   3.213  0.00  0.00    -0.082 Cl
ATOM     24 CL   UNL     1      -2.657   4.672   4.326  0.00  0.00    -0.082 Cl
ENDBRANCH  15  22
ENDBRANCH   1  15
TORSDOF 5
