REMARK  Name = ZINC32125068
REMARK  5 active torsions:
REMARK  status: ('A' for Active; 'I' for Inactive)
REMARK    1  A    between atoms: C_6  and  C_7
REMARK    2  A    between atoms: N_9  and  C_10
REMARK    3  A    between atoms: C_10  and  N_12
REMARK    4  A    between atoms: N_12  and  C_13
REMARK    5  A    between atoms: C_14  and  C_23
REMARK                            x       y       z     vdW  Elec       q    Type
REMARK                         _______ _______ _______ _____ _____    ______ ____
ROOT
ATOM      1  N   UNL     1       5.328  -2.502   2.007  0.00  0.00    -0.291 N 
ATOM      2  H   UNL     1       5.058  -3.229   2.787  0.00  0.00    +0.154 HD
ENDROOT
BRANCH   1   3
ATOM      3  C   UNL     1       4.353  -1.688   1.453  0.00  0.00    +0.084 A 
ATOM      4  C   UNL     1       2.999  -1.642   1.746  0.00  0.00    +0.068 A 
ATOM      5  C   UNL     1       2.179  -0.684   1.016  0.00  0.00    -0.023 A 
ATOM      6  C   UNL     1       2.846   0.061   0.110  0.00  0.00    -0.004 A 
ATOM      7  S   UNL     1       4.530  -0.480   0.225  0.00  0.00    -0.077 S 
ATOM      8  C   UNL     1       2.288   1.105  -0.807  0.00  0.00    +0.043 C 
ATOM      9  C   UNL     1       1.406   2.067  -0.000  0.00  0.00    +0.005 C 
ATOM     10  C   UNL     1      -0.019   1.523   0.010  0.00  0.00    +0.001 C 
ATOM     11  C   UNL     1       0.002  -0.004   0.002  0.00  0.00    +0.005 C 
ATOM     12  C   UNL     1       0.683  -0.535   1.259  0.00  0.00    +0.037 C 
BRANCH   4  13
ATOM     13  C   UNL     1       2.412  -2.527   2.757  0.00  0.00    +0.244 C 
ATOM     14  O   UNL     1       1.983  -3.619   2.434  0.00  0.00    -0.270 OA
ATOM     15  N   UNL     1       2.348  -2.131   4.044  0.00  0.00    -0.325 N 
ATOM     16  H   UNL     1       1.907  -2.795   4.802  0.00  0.00    +0.145 HD
ATOM     17  H   UNL     1       2.736  -1.143   4.335  0.00  0.00    +0.145 HD
ENDBRANCH   4  13
ENDBRANCH   1   3
BRANCH   1  18
ATOM     18  C   UNL     1       6.606  -2.402   1.591  0.00  0.00    +0.141 C 
ATOM     19  S   UNL     1       7.025  -1.270   0.377  0.00  0.00    -0.018 S 
BRANCH  18  22
ATOM     20  C   UNL     1       8.832  -3.095   1.714  0.00  0.00    +0.250 C 
ATOM     21  O   UNL     1       9.129  -2.291   0.852  0.00  0.00    -0.270 OA
ATOM     22  N   UNL     1       7.554  -3.194   2.130  0.00  0.00    -0.264 N 
ATOM     23  H   UNL     1       7.284  -3.922   2.910  0.00  0.00    +0.157 HD
BRANCH  20  29
ATOM     24  C   UNL     1       9.532  -4.883   3.299  0.00  0.00    +0.016 A 
ATOM     25  C   UNL     1      10.504  -5.695   3.843  0.00  0.00    +0.039 A 
ATOM     26  C   UNL     1      11.818  -5.590   3.413  0.00  0.00    +0.123 A 
ATOM     27  C   UNL     1      12.161  -4.674   2.430  0.00  0.00    +0.039 A 
ATOM     28  C   UNL     1      11.195  -3.861   1.875  0.00  0.00    +0.016 A 
ATOM     29  C   UNL     1       9.870  -3.962   2.305  0.00  0.00    +0.037 A 
ATOM     30  F   UNL     1      12.768  -6.384   3.953  0.00  0.00    -0.205 F 
ENDBRANCH  20  29
ENDBRANCH  18  22
ENDBRANCH   1  18
TORSDOF 5
