REMARK  Name = ZINC36533736
REMARK  8 active torsions:
REMARK  status: ('A' for Active; 'I' for Inactive)
REMARK    1  A    between atoms: C_1  and  C_2
REMARK    2  A    between atoms: C_17  and  C_32
REMARK    3  A    between atoms: C_19  and  O_30
REMARK    4  A    between atoms: C_22  and  C_29
REMARK    5  A    between atoms: C_23  and  C_24
REMARK    6  A    between atoms: C_23  and  O_28
REMARK    7  A    between atoms: C_24  and  C_26
REMARK    8  A    between atoms: C_26  and  O_27
REMARK                            x       y       z     vdW  Elec       q    Type
REMARK                         _______ _______ _______ _____ _____    ______ ____
ROOT
ATOM      1  C   UNL     1       0.208   1.602  -1.310  0.00  0.00    +0.011 C 
ATOM      2  C   UNL     1       0.141   0.072  -1.248  0.00  0.00    +0.026 C 
ATOM      3  C   UNL     1      -1.323  -0.388  -1.132  0.00  0.00    +0.011 C 
ATOM      4  C   UNL     1      -1.299  -1.607  -0.174  0.00  0.00    +0.005 C 
ATOM      5  C   UNL     1      -1.189  -2.874  -0.984  0.00  0.00    +0.034 C 
ATOM      6  C   UNL     1      -0.323  -2.733  -2.237  0.00  0.00    +0.011 C 
ATOM      7  C   UNL     1      -0.892  -3.768  -3.223  0.00  0.00    +0.032 C 
ATOM      8  C   UNL     1      -0.945  -5.108  -2.538  0.00  0.00    -0.053 C 
ATOM      9  C   UNL     1      -1.199  -6.177  -3.324  0.00  0.00    +0.051 C 
ATOM     10  C   UNL     1      -1.252  -7.500  -2.652  0.00  0.00    +0.179 C 
ATOM     11  O   UNL     1      -0.845  -8.520  -3.181  0.00  0.00    -0.288 OA
ATOM     12  C   UNL     1      -1.837  -7.490  -1.286  0.00  0.00    +0.047 C 
ATOM     13  C   UNL     1      -1.559  -6.418  -0.521  0.00  0.00    -0.009 C 
ATOM     14  C   UNL     1      -0.696  -5.319  -1.081  0.00  0.00    +0.044 C 
ATOM     15  C   UNL     1      -0.721  -4.094  -0.197  0.00  0.00    +0.153 C 
ATOM     16  C   UNL     1       0.596  -3.792   0.503  0.00  0.00    +0.154 C 
ATOM     17  C   UNL     1       0.466  -2.560   1.395  0.00  0.00    +0.044 C 
ATOM     18  C   UNL     1      -0.117  -1.333   0.758  0.00  0.00    +0.010 C 
ATOM     19  C   UNL     1       0.867  -0.432   0.015  0.00  0.00    +0.134 C 
ATOM     20  C   UNL     1      -0.680  -0.478   1.928  0.00  0.00    +0.015 C 
ATOM     21  F   UNL     1      -1.692  -4.328   0.805  0.00  0.00    -0.238 F 
ATOM     22  C   UNL     1       0.718  -5.897  -1.053  0.00  0.00    +0.023 C 
ENDROOT
BRANCH  19  23
ATOM     23  C   UNL     1       2.139  -1.134  -0.367  0.00  0.00    +0.190 C 
ATOM     24  O   UNL     1       2.211  -1.725  -1.418  0.00  0.00    -0.292 OA
BRANCH  23  25
ATOM     25  C   UNL     1       3.326  -1.101   0.562  0.00  0.00    +0.233 C 
BRANCH  25  26
ATOM     26  O   UNL     1       4.438  -1.746  -0.063  0.00  0.00    -0.387 OA
ATOM     27  H   UNL     1       5.239  -1.762   0.478  0.00  0.00    +0.210 HD
ENDBRANCH  25  26
ENDBRANCH  23  25
ENDBRANCH  19  23
BRANCH  19  28
ATOM     28  O   UNL     1       1.191   0.698   0.846  0.00  0.00    -0.380 OA
ATOM     29  H   UNL     1       1.784   1.337   0.427  0.00  0.00    +0.211 HD
ENDBRANCH  19  28
BRANCH  16  30
ATOM     30  O   UNL     1       0.937  -4.869   1.402  0.00  0.00    -0.389 OA
ATOM     31  H   UNL     1       1.768  -4.736   1.879  0.00  0.00    +0.210 HD
ENDBRANCH  16  30
TORSDOF 5
