REMARK  Name = ZINC38595834
REMARK  10 active torsions:
REMARK  status: ('A' for Active; 'I' for Inactive)
REMARK    1  A    between atoms: C_1  and  C_2
REMARK    2  A    between atoms: C_2  and  C_4
REMARK    3  A    between atoms: C_2  and  N_24
REMARK    4  A    between atoms: C_4  and  C_6
REMARK    5  A    between atoms: C_4  and  N_11
REMARK    6  A    between atoms: N_14  and  C_17
REMARK    7  A    between atoms: C_17  and  C_18
REMARK    8  A    between atoms: C_25  and  C_27
REMARK    9  A    between atoms: C_27  and  C_28
REMARK   10  A    between atoms: C_31  and  N_34
REMARK                            x       y       z     vdW  Elec       q    Type
REMARK                         _______ _______ _______ _____ _____    ______ ____
ROOT
ATOM      1  C   UNL     1       0.848  -0.509   1.173  0.00  0.00    +0.113 C 
ENDROOT
BRANCH   1   2
ATOM      2  N   UNL     1       2.102   0.249   1.262  0.00  0.00    -0.297 NA
ATOM      3  C   UNL     1       2.803  -0.037   2.522  0.00  0.00    +0.066 C 
ATOM      4  C   UNL     1       4.071   0.815   2.602  0.00  0.00    -0.063 C 
ATOM      5  N   UNL     1       4.940   0.509   1.458  0.00  0.00    +0.384 N 
ATOM      6  C   UNL     1       4.236   0.824   0.208  0.00  0.00    -0.063 C 
ATOM      7  C   UNL     1       2.969  -0.029   0.108  0.00  0.00    +0.066 C 
ATOM      8  H   UNL     1       5.181  -0.471   1.471  0.00  0.00    -0.081 HD
BRANCH   5   9
ATOM      9  C   UNL     1       6.166   1.314   1.545  0.00  0.00    -0.043 C 
BRANCH   9  10
ATOM     10  C   UNL     1       7.110   0.913   0.442  0.00  0.00    -0.064 A 
ATOM     11  C   UNL     1       8.029  -0.098   0.652  0.00  0.00    +0.002 A 
ATOM     12  C   UNL     1       8.896  -0.467  -0.360  0.00  0.00    +0.000 A 
ATOM     13  C   UNL     1       8.842   0.176  -1.583  0.00  0.00    +0.000 A 
ATOM     14  C   UNL     1       7.923   1.186  -1.794  0.00  0.00    +0.000 A 
ATOM     15  C   UNL     1       7.054   1.552  -0.783  0.00  0.00    +0.002 A 
ENDBRANCH   9  10
ENDBRANCH   5   9
ENDBRANCH   1   2
BRANCH   1  16
ATOM     16  C   UNL     1      -0.000  -0.222   2.385  0.00  0.00    +0.009 A 
ATOM     17  C   UNL     1      -0.707  -1.084   3.156  0.00  0.00    +0.013 A 
ATOM     18  C   UNL     1      -1.420  -0.591   4.233  0.00  0.00    +0.008 A 
ATOM     19  C   UNL     1      -1.392   0.741   4.486  0.00  0.00    +0.045 A 
ATOM     20  S   UNL     1      -0.328   1.341   3.184  0.00  0.00    -0.100 S 
ENDBRANCH   1  16
BRANCH   1  22
ATOM     21  C   UNL     1      -0.127   1.421  -0.079  0.00  0.00    +0.030 C 
ATOM     22  C   UNL     1       0.089  -0.094  -0.089  0.00  0.00    +0.092 C 
BRANCH  22  23
ATOM     23  N   UNL     1      -1.209  -0.773  -0.125  0.00  0.00    -0.311 N 
ATOM     24  C   UNL     1      -1.827  -0.983  -1.304  0.00  0.00    +0.218 C 
ATOM     25  O   UNL     1      -1.309  -0.611  -2.335  0.00  0.00    -0.275 OA
ATOM     26  H   UNL     1      -1.623  -1.070   0.700  0.00  0.00    +0.149 HD
BRANCH  24  27
ATOM     27  C   UNL     1      -3.162  -1.681  -1.340  0.00  0.00    +0.130 C 
BRANCH  27  28
ATOM     28  C   UNL     1      -3.633  -1.791  -2.767  0.00  0.00    -0.038 A 
ATOM     29  C   UNL     1      -4.399  -0.782  -3.321  0.00  0.00    +0.006 A 
ATOM     30  C   UNL     1      -4.831  -0.882  -4.631  0.00  0.00    +0.033 A 
ATOM     31  C   UNL     1      -4.497  -1.991  -5.386  0.00  0.00    +0.126 A 
ATOM     32  C   UNL     1      -3.730  -2.999  -4.832  0.00  0.00    +0.033 A 
ATOM     33  C   UNL     1      -3.294  -2.897  -3.524  0.00  0.00    +0.006 A 
BRANCH  31  34
ATOM     34  N   UNL     1      -4.960  -2.098  -6.788  0.00  0.00    +0.056 N 
ATOM     35  O   UNL     1      -5.631  -1.217  -7.272  0.00  0.00    -0.126 OA
ATOM     36  O   UNL     1      -4.668  -3.068  -7.448  0.00  0.00    -0.126 OA
ENDBRANCH  31  34
ENDBRANCH  27  28
ENDBRANCH  24  27
ENDBRANCH  22  23
ENDBRANCH   1  22
TORSDOF 9
