REMARK  Name = ZINC45138961
REMARK  5 active torsions:
REMARK  status: ('A' for Active; 'I' for Inactive)
REMARK    1  A    between atoms: C_1  and  C_2
REMARK    2  A    between atoms: C_2  and  C_19
REMARK    3  A    between atoms: C_4  and  N_6
REMARK    4  A    between atoms: N_9  and  C_10
REMARK    5  A    between atoms: C_13  and  C_16
REMARK                            x       y       z     vdW  Elec       q    Type
REMARK                         _______ _______ _______ _____ _____    ______ ____
ROOT
ATOM      1  N   UNL     1       1.300   0.135   2.205  0.00  0.00    -0.296 N 
ATOM      2  C   UNL     1       2.320  -0.335   2.950  0.00  0.00    +0.300 C 
ATOM      3  O   UNL     1       2.744  -1.459   2.760  0.00  0.00    -0.253 OA
ATOM      4  N   UNL     1       2.871   0.440   3.905  0.00  0.00    -0.297 N 
ATOM      5  H   UNL     1       0.962   1.032   2.357  0.00  0.00    +0.151 HD
ATOM      6  H   UNL     1       2.533   1.337   4.056  0.00  0.00    +0.151 HD
ENDROOT
BRANCH   4   7
ATOM      7  C   UNL     1       3.979  -0.071   4.714  0.00  0.00    +0.074 C 
ATOM      8  C   UNL     1       5.299   0.158   3.974  0.00  0.00    +0.023 C 
ATOM      9  C   UNL     1       6.457  -0.376   4.819  0.00  0.00    +0.016 C 
ATOM     10  C   UNL     1       6.491   0.359   6.161  0.00  0.00    +0.102 C 
ATOM     11  C   UNL     1       5.171   0.131   6.901  0.00  0.00    +0.016 C 
ATOM     12  C   UNL     1       4.013   0.664   6.056  0.00  0.00    +0.023 C 
BRANCH  10  13
ATOM     13  C   UNL     1       7.631  -0.167   6.994  0.00  0.00    +0.359 C 
ATOM     14  O   UNL     1       8.306   0.602   7.657  0.00  0.00    -0.246 OA
ATOM     15  O   UNL     1       7.879  -1.360   7.004  0.00  0.00    -0.246 OA
ENDBRANCH  10  13
ENDBRANCH   4   7
BRANCH   1  19
ATOM     16  C   UNL     1      -0.019   1.526   0.010  0.00  0.00    +0.013 C 
ATOM     17  C   UNL     1       0.002  -0.004   0.002  0.00  0.00    -0.015 C 
ATOM     18  C   UNL     1      -0.825  -0.728   1.066  0.00  0.00    +0.031 C 
ATOM     19  C   UNL     1       0.701  -0.708   1.167  0.00  0.00    +0.081 C 
ATOM     20  C   UNL     1       0.102  -0.655  -1.379  0.00  0.00    +0.013 C 
ENDBRANCH   1  19
TORSDOF 3
