REMARK  Name = ZINC24583254
REMARK  7 active torsions:
REMARK  status: ('A' for Active; 'I' for Inactive)
REMARK    1  A    between atoms: C_4  and  C_7
REMARK    2  A    between atoms: C_7  and  C_8
REMARK    3  A    between atoms: C_8  and  C_10
REMARK    4  A    between atoms: C_8  and  N_22
REMARK    5  A    between atoms: N_12  and  N_13
REMARK    6  A    between atoms: C_14  and  C_16
REMARK    7  A    between atoms: C_23  and  C_25
REMARK                            x       y       z     vdW  Elec       q    Type
REMARK                         _______ _______ _______ _____ _____    ______ ____
ROOT
ATOM      1  C   UNL     1      -2.794   9.391   0.081  0.00  0.00    +0.165 C 
ENDROOT
BRANCH   1   2
ATOM      2  C   UNL     1      -2.708   7.887   0.071  0.00  0.00    +0.250 C 
ATOM      3  O   UNL     1      -3.722   7.221   0.077  0.00  0.00    -0.272 OA
ATOM      4  N   UNL     1      -1.504   7.281   0.057  0.00  0.00    -0.233 N 
ATOM      5  H   UNL     1      -0.585   7.884   0.051  0.00  0.00    +0.173 HD
BRANCH   4   6
ATOM      6  N   UNL     1      -1.425   5.882   0.048  0.00  0.00    -0.229 N 
ATOM      7  C   UNL     1      -0.221   5.276   0.033  0.00  0.00    +0.278 C 
ATOM      8  O   UNL     1       0.795   5.943   0.027  0.00  0.00    -0.267 OA
ATOM      9  H   UNL     1      -2.344   5.279   0.053  0.00  0.00    +0.173 HD
BRANCH   7  10
ATOM     10  C   UNL     1      -0.136   3.797   0.024  0.00  0.00    +0.127 A 
ATOM     11  C   UNL     1       1.111   3.176   0.009  0.00  0.00    +0.033 A 
ATOM     12  C   UNL     1       1.174   1.792   0.001  0.00  0.00    +0.004 A 
ATOM     13  C   UNL     1      -0.013   1.076   0.008  0.00  0.00    +0.020 A 
ATOM     14  C   UNL     1      -1.218   1.759   0.017  0.00  0.00    +0.111 A 
ATOM     15  N   UNL     1      -1.249   3.074   0.031  0.00  0.00    -0.250 NA
ENDBRANCH   7  10
ENDBRANCH   4   6
ENDBRANCH   1   2
BRANCH   1  16
ATOM     16  N   UNL     1      -4.201   9.800   0.097  0.00  0.00    -0.299 N 
ATOM     17  C   UNL     1      -4.558  11.006  -0.387  0.00  0.00    +0.251 C 
ATOM     18  O   UNL     1      -3.711  11.757  -0.836  0.00  0.00    -0.270 OA
ATOM     19  H   UNL     1      -4.966   9.122   0.502  0.00  0.00    +0.150 HD
BRANCH  17  20
ATOM     20  C   UNL     1      -5.965  11.415  -0.371  0.00  0.00    +0.074 A 
ATOM     21  C   UNL     1      -6.537  12.598  -0.814  0.00  0.00    +0.021 A 
ATOM     22  C   UNL     1      -7.897  12.723  -0.680  0.00  0.00    +0.008 A 
ATOM     23  C   UNL     1      -8.607  11.703  -0.132  0.00  0.00    +0.046 A 
ATOM     24  S   UNL     1      -7.391  10.517   0.215  0.00  0.00    -0.092 S 
ENDBRANCH  17  20
ENDBRANCH   1  16
BRANCH   1  25
ATOM     25  C   UNL     1      -2.092   9.934   1.327  0.00  0.00    +0.067 C 
BRANCH  25  29
ATOM     26  C   UNL     1      -2.030  14.203   1.180  0.00  0.00    +0.000 A 
ATOM     27  C   UNL     1      -3.089  13.547   1.780  0.00  0.00    +0.000 A 
ATOM     28  C   UNL     1      -3.109  12.166   1.827  0.00  0.00    +0.004 A 
ATOM     29  C   UNL     1      -2.070  11.440   1.275  0.00  0.00    -0.045 A 
ATOM     30  C   UNL     1      -1.009  12.096   0.680  0.00  0.00    +0.004 A 
ATOM     31  C   UNL     1      -0.991  13.478   0.628  0.00  0.00    +0.000 A 
ENDBRANCH  25  29
ENDBRANCH   1  25
TORSDOF 7
