REMARK  Name = ZINC43509678
REMARK  6 active torsions:
REMARK  status: ('A' for Active; 'I' for Inactive)
REMARK    1  A    between atoms: C_1  and  C_2
REMARK    2  A    between atoms: C_15  and  O_28
REMARK    3  A    between atoms: C_17  and  O_27
REMARK    4  A    between atoms: C_19  and  O_26
REMARK    5  A    between atoms: C_20  and  O_25
REMARK    6  A    between atoms: C_22  and  O_24
REMARK                            x       y       z     vdW  Elec       q    Type
REMARK                         _______ _______ _______ _____ _____    ______ ____
ROOT
ATOM      1  C   UNL     1      -0.019   1.526   0.010  0.00  0.00    +0.008 C 
ATOM      2  C   UNL     1       0.002  -0.004   0.002  0.00  0.00    -0.003 C 
ATOM      3  C   UNL     1      -1.425  -0.537   0.025  0.00  0.00    +0.037 C 
ATOM      4  C   UNL     1      -1.462  -2.044   0.147  0.00  0.00    -0.031 C 
ATOM      5  C   UNL     1      -0.451  -2.724   0.674  0.00  0.00    +0.010 C 
ATOM      6  C   UNL     1      -0.457  -4.223   0.810  0.00  0.00    +0.130 C 
ATOM      7  C   UNL     1       0.113  -4.631   2.152  0.00  0.00    +0.174 C 
ATOM      8  O   UNL     1       0.761  -3.860   2.827  0.00  0.00    -0.291 OA
ATOM      9  C   UNL     1      -0.158  -6.013   2.602  0.00  0.00    +0.027 A 
ATOM     10  C   UNL     1       0.528  -6.526   3.707  0.00  0.00    +0.012 A 
ATOM     11  C   UNL     1       0.280  -7.814   4.133  0.00  0.00    +0.004 A 
ATOM     12  C   UNL     1      -0.646  -8.597   3.468  0.00  0.00    +0.046 A 
ATOM     13  C   UNL     1      -1.331  -8.096   2.370  0.00  0.00    +0.123 A 
ATOM     14  C   UNL     1      -1.092  -6.801   1.929  0.00  0.00    +0.036 A 
ATOM     15  C   UNL     1      -1.853  -6.284   0.736  0.00  0.00    +0.184 C 
ATOM     16  C   UNL     1      -1.889  -4.761   0.739  0.00  0.00    +0.138 C 
ATOM     17  C   UNL     1      -2.522  -4.217  -0.544  0.00  0.00    +0.182 C 
ATOM     18  C   UNL     1      -2.723  -2.713  -0.354  0.00  0.00    +0.172 C 
ATOM     19  C   UNL     1       0.756  -2.025   1.150  0.00  0.00    +0.160 C 
ATOM     20  O   UNL     1       1.751  -2.649   1.454  0.00  0.00    -0.292 OA
ATOM     21  C   UNL     1       0.733  -0.518   1.252  0.00  0.00    +0.083 C 
ENDROOT
BRANCH  18  22
ATOM     22  O   UNL     1      -3.087  -2.139  -1.611  0.00  0.00    -0.385 OA
ATOM     23  H   UNL     1      -3.259  -1.188  -1.574  0.00  0.00    +0.210 HD
ENDBRANCH  18  22
BRANCH  17  24
ATOM     24  O   UNL     1      -3.785  -4.847  -0.764  0.00  0.00    -0.386 OA
ATOM     25  H   UNL     1      -4.240  -4.547  -1.563  0.00  0.00    +0.210 HD
ENDBRANCH  17  24
BRANCH  16  26
ATOM     26  O   UNL     1      -2.627  -4.309   1.876  0.00  0.00    -0.382 OA
ATOM     27  H   UNL     1      -3.545  -4.614   1.896  0.00  0.00    +0.210 HD
ENDBRANCH  16  26
BRANCH  15  28
ATOM     28  O   UNL     1      -1.212  -6.728  -0.462  0.00  0.00    -0.384 OA
ATOM     29  H   UNL     1      -1.162  -7.689  -0.548  0.00  0.00    +0.210 HD
ENDBRANCH  15  28
BRANCH  13  30
ATOM     30  O   UNL     1      -2.237  -8.875   1.724  0.00  0.00    -0.506 OA
ATOM     31  H   UNL     1      -3.137  -8.802   2.070  0.00  0.00    +0.292 HD
ENDBRANCH  13  30
TORSDOF 5
