REMARK  Name = ZINC38173485
REMARK  4 active torsions:
REMARK  status: ('A' for Active; 'I' for Inactive)
REMARK    1  A    between atoms: C_4  and  C_7
REMARK    2  A    between atoms: C_7  and  N_8
REMARK    3  A    between atoms: N_21  and  N_22
REMARK    4  A    between atoms: C_23  and  C_24
REMARK                            x       y       z     vdW  Elec       q    Type
REMARK                         _______ _______ _______ _____ _____    ______ ____
ROOT
ATOM      1  N   UNL     1       2.906  -0.380   1.971  0.00  0.00    -0.319 N 
ATOM      2  C   UNL     1       3.909   0.400   2.523  0.00  0.00    +0.053 A 
ATOM      3  C   UNL     1       4.287   1.723   2.317  0.00  0.00    +0.026 A 
ATOM      4  C   UNL     1       5.348   2.256   3.018  0.00  0.00    +0.002 A 
ATOM      5  C   UNL     1       6.047   1.484   3.934  0.00  0.00    +0.001 A 
ATOM      6  C   UNL     1       5.687   0.172   4.153  0.00  0.00    +0.012 A 
ATOM      7  C   UNL     1       4.617  -0.379   3.450  0.00  0.00    +0.029 A 
ATOM      8  C   UNL     1       3.986  -1.710   3.442  0.00  0.00    +0.138 A 
ATOM      9  C   UNL     1       2.930  -1.642   2.510  0.00  0.00    +0.166 A 
ATOM     10  N   UNL     1       2.188  -2.728   2.317  0.00  0.00    -0.192 NA
ATOM     11  C   UNL     1       2.460  -3.830   3.003  0.00  0.00    +0.256 A 
ATOM     12  N   UNL     1       3.459  -3.869   3.879  0.00  0.00    -0.111 NA
ATOM     13  N   UNL     1       4.209  -2.843   4.093  0.00  0.00    -0.142 NA
ATOM     14  N   UNL     1       1.688  -4.962   2.804  0.00  0.00    -0.204 N 
ATOM     15  H   UNL     1       0.957  -4.944   2.167  0.00  0.00    +0.177 HD
ENDROOT
BRANCH  14  16
ATOM     16  N   UNL     1       1.964  -6.133   3.522  0.00  0.00    -0.188 NA
ATOM     17  C   UNL     1       1.319  -7.227   3.251  0.00  0.00    +0.138 C 
BRANCH  17  18
ATOM     18  C   UNL     1       0.672  -7.396   1.937  0.00  0.00    -0.005 A 
ATOM     19  C   UNL     1      -0.252  -8.424   1.737  0.00  0.00    +0.012 A 
ATOM     20  C   UNL     1      -0.855  -8.576   0.506  0.00  0.00    +0.039 A 
ATOM     21  C   UNL     1      -0.545  -7.712  -0.532  0.00  0.00    +0.123 A 
ATOM     22  C   UNL     1       0.371  -6.689  -0.340  0.00  0.00    +0.039 A 
ATOM     23  C   UNL     1       0.976  -6.524   0.888  0.00  0.00    +0.012 A 
ATOM     24  F   UNL     1      -1.138  -7.866  -1.736  0.00  0.00    -0.205 F 
ENDBRANCH  17  18
ENDBRANCH  14  16
BRANCH   1  25
ATOM     25  C   UNL     1       1.951   0.080   0.960  0.00  0.00    +0.159 C 
BRANCH  25  29
ATOM     26  C   UNL     1      -1.489   1.721   2.888  0.00  0.00    +0.000 A 
ATOM     27  C   UNL     1      -0.415   2.535   2.580  0.00  0.00    +0.000 A 
ATOM     28  C   UNL     1       0.698   2.004   1.956  0.00  0.00    +0.005 A 
ATOM     29  C   UNL     1       0.738   0.659   1.641  0.00  0.00    -0.028 A 
ATOM     30  C   UNL     1      -0.336  -0.156   1.950  0.00  0.00    +0.005 A 
ATOM     31  C   UNL     1      -1.449   0.376   2.573  0.00  0.00    +0.000 A 
ENDBRANCH  25  29
ENDBRANCH   1  25
TORSDOF 4
