REMARK  Name = ZINC52593111
REMARK  7 active torsions:
REMARK  status: ('A' for Active; 'I' for Inactive)
REMARK    1  A    between atoms: C_1  and  C_2
REMARK    2  A    between atoms: C_2  and  N_3
REMARK    3  A    between atoms: C_7  and  N_10
REMARK    4  A    between atoms: N_13  and  N_14
REMARK    5  A    between atoms: N_14  and  C_15
REMARK    6  A    between atoms: C_15  and  N_17
REMARK    7  A    between atoms: N_17  and  C_18
REMARK                            x       y       z     vdW  Elec       q    Type
REMARK                         _______ _______ _______ _____ _____    ______ ____
ROOT
ATOM      1  N   UNL     1       1.724  -3.890  -2.321  0.00  0.00    -0.297 N 
ATOM      2  C   UNL     1       2.744  -4.503  -2.952  0.00  0.00    +0.316 C 
ATOM      3  O   UNL     1       3.563  -3.846  -3.565  0.00  0.00    -0.251 OA
ATOM      4  N   UNL     1       2.856  -5.846  -2.905  0.00  0.00    -0.219 N 
ATOM      5  H   UNL     1       1.070  -4.414  -1.832  0.00  0.00    +0.150 HD
ATOM      6  H   UNL     1       3.590  -6.287  -3.359  0.00  0.00    +0.174 HD
ENDROOT
BRANCH   1  11
ATOM      7  N   UNL     1       0.690  -0.478  -1.207  0.00  0.00    +0.381 N 
ATOM      8  C   UNL     1      -0.082  -0.085  -2.392  0.00  0.00    -0.079 C 
ATOM      9  C   UNL     1       0.671  -0.505  -3.657  0.00  0.00    -0.017 C 
ATOM     10  C   UNL     1       0.861  -2.025  -3.650  0.00  0.00    +0.018 C 
ATOM     11  C   UNL     1       1.601  -2.431  -2.373  0.00  0.00    +0.058 C 
ATOM     12  C   UNL     1       0.815  -1.939  -1.155  0.00  0.00    -0.056 C 
ATOM     13  H   UNL     1       1.609  -0.064  -1.253  0.00  0.00    -0.082 HD
BRANCH   7  15
ATOM     14  C   UNL     1      -0.019   1.526   0.010  0.00  0.00    -0.017 C 
ATOM     15  C   UNL     1       0.002  -0.004   0.002  0.00  0.00    -0.082 C 
ENDBRANCH   7  15
ENDBRANCH   1  11
BRANCH   4  16
ATOM     16  N   UNL     1       1.912  -6.603  -2.199  0.00  0.00    -0.245 N 
ATOM     17  H   UNL     1       1.178  -6.161  -1.744  0.00  0.00    +0.172 HD
BRANCH  16  18
ATOM     18  C   UNL     1       2.025  -7.945  -2.151  0.00  0.00    +0.147 C 
ATOM     19  S   UNL     1       0.871  -8.871  -1.288  0.00  0.00    -0.017 S 
BRANCH  18  20
ATOM     20  N   UNL     1       3.045  -8.559  -2.783  0.00  0.00    -0.323 N 
ATOM     21  H   UNL     1       3.698  -8.034  -3.272  0.00  0.00    +0.148 HD
BRANCH  20  22
ATOM     22  C   UNL     1       3.167 -10.018  -2.731  0.00  0.00    +0.072 C 
ATOM     23  C   UNL     1       3.973 -10.437  -1.484  0.00  0.00    +0.022 C 
ATOM     24  C   UNL     1       4.816 -11.644  -1.965  0.00  0.00    +0.002 C 
ATOM     25  C   UNL     1       5.209 -11.234  -3.406  0.00  0.00    +0.002 C 
ATOM     26  C   UNL     1       3.953 -10.525  -3.953  0.00  0.00    +0.022 C 
ENDBRANCH  20  22
ENDBRANCH  18  20
ENDBRANCH  16  18
ENDBRANCH   4  16
TORSDOF 6
