REMARK  Name = ZINC36801179
REMARK  4 active torsions:
REMARK  status: ('A' for Active; 'I' for Inactive)
REMARK    1  A    between atoms: C_4  and  O_25
REMARK    2  A    between atoms: C_5  and  C_7
REMARK    3  A    between atoms: C_13  and  C_15
REMARK    4  A    between atoms: O_25  and  C_26
REMARK                            x       y       z     vdW  Elec       q    Type
REMARK                         _______ _______ _______ _____ _____    ______ ____
ROOT
ATOM      1  C   UNL     1       1.250  -2.159  -0.022  0.00  0.00    +0.253 C 
ATOM      2  O   UNL     1       2.314  -2.747  -0.035  0.00  0.00    -0.270 OA
ATOM      3  N   UNL     1       0.096  -2.854  -0.015  0.00  0.00    -0.259 N 
ATOM      4  C   UNL     1       0.121  -4.244  -0.023  0.00  0.00    +0.188 A 
ATOM      5  N   UNL     1       1.152  -5.078  -0.032  0.00  0.00    -0.126 NA
ATOM      6  N   UNL     1       0.995  -6.329  -0.038  0.00  0.00    -0.144 NA
ATOM      7  C   UNL     1      -0.199  -6.887  -0.037  0.00  0.00    +0.110 A 
ATOM      8  S   UNL     1      -1.228  -5.421  -0.016  0.00  0.00    -0.035 S 
ATOM      9  H   UNL     1      -0.753  -2.385  -0.004  0.00  0.00    +0.157 HD
ENDROOT
BRANCH   7  10
ATOM     10  C   UNL     1      -0.589  -8.343  -0.044  0.00  0.00    +0.022 C 
ATOM     11  C   UNL     1      -0.028  -9.014  -1.299  0.00  0.00    +0.017 C 
ATOM     12  C   UNL     1      -0.423 -10.492  -1.307  0.00  0.00    -0.010 C 
ATOM     13  C   UNL     1       0.147 -11.179  -0.064  0.00  0.00    +0.007 C 
ATOM     14  C   UNL     1      -0.414 -10.507   1.192  0.00  0.00    -0.010 C 
ATOM     15  C   UNL     1      -0.019  -9.029   1.199  0.00  0.00    +0.017 C 
ATOM     16  C   UNL     1      -1.939 -10.628   1.197  0.00  0.00    +0.007 C 
ATOM     17  C   UNL     1      -2.509  -9.941  -0.046  0.00  0.00    -0.010 C 
ATOM     18  C   UNL     1      -1.948 -10.613  -1.302  0.00  0.00    +0.007 C 
ATOM     19  C   UNL     1      -2.114  -8.463  -0.039  0.00  0.00    +0.017 C 
ENDBRANCH   7  10
BRANCH   1  24
ATOM     20  C   UNL     1      -0.017   1.374   0.010  0.00  0.00    +0.001 A 
ATOM     21  C   UNL     1       1.170   2.089   0.002  0.00  0.00    +0.004 A 
ATOM     22  C   UNL     1       2.383   1.430  -0.013  0.00  0.00    +0.046 A 
ATOM     23  C   UNL     1       2.421   0.043  -0.021  0.00  0.00    +0.139 A 
ATOM     24  C   UNL     1       1.223  -0.684  -0.013  0.00  0.00    +0.079 A 
ATOM     25  C   UNL     1       0.002  -0.004   0.002  0.00  0.00    +0.017 A 
BRANCH  23  26
ATOM     26  O   UNL     1       3.612  -0.606  -0.036  0.00  0.00    -0.433 OA
BRANCH  26  27
ATOM     27  C   UNL     1       4.791   0.202  -0.043  0.00  0.00    +0.541 C 
ATOM     28  F   UNL     1       4.791   1.015  -1.181  0.00  0.00    -0.166 F 
ATOM     29  F   UNL     1       4.814   1.003   1.103  0.00  0.00    -0.166 F 
ENDBRANCH  26  27
ENDBRANCH  23  26
ENDBRANCH   1  24
TORSDOF 4
