REMARK  Name = ZINC43554489
REMARK  11 active torsions:
REMARK  status: ('A' for Active; 'I' for Inactive)
REMARK    1  A    between atoms: C_1  and  C_2
REMARK    2  A    between atoms: C_5  and  O_35
REMARK    3  A    between atoms: C_7  and  C_32
REMARK    4  A    between atoms: C_7  and  C_33
REMARK    5  A    between atoms: C_14  and  C_16
REMARK    6  A    between atoms: C_22  and  C_24
REMARK    7  A    between atoms: C_24  and  C_25
REMARK    8  A    between atoms: N_27  and  C_28
REMARK    9  A    between atoms: N_27  and  C_29
REMARK   10  A    between atoms: C_29  and  C_30
REMARK   11  A    between atoms: C_33  and  O_34
REMARK                            x       y       z     vdW  Elec       q    Type
REMARK                         _______ _______ _______ _____ _____    ______ ____
ROOT
ATOM      1  C   UNL     1      -0.151   2.083  -0.461  0.00  0.00    +0.012 C 
ATOM      2  C   UNL     1      -0.164   0.560  -0.661  0.00  0.00    -0.020 C 
ATOM      3  C   UNL     1      -1.611   0.102  -0.803  0.00  0.00    +0.010 C 
ATOM      4  C   UNL     1      -2.389   0.499   0.452  0.00  0.00    +0.032 C 
ATOM      5  C   UNL     1      -1.787  -0.104   1.706  0.00  0.00    +0.123 C 
ATOM      6  C   UNL     1      -0.281   0.056   1.835  0.00  0.00    +0.021 C 
ATOM      7  C   UNL     1       0.472  -0.159   0.523  0.00  0.00    +0.011 C 
ATOM      8  C   UNL     1       0.505  -1.680   0.270  0.00  0.00    +0.049 C 
ATOM      9  C   UNL     1       0.749  -2.002  -1.159  0.00  0.00    +0.014 A 
ATOM     10  C   UNL     1       0.786  -1.148  -2.219  0.00  0.00    +0.056 A 
ATOM     11  N   UNL     1       0.977  -1.671  -3.420  0.00  0.00    -0.243 NA
ATOM     12  C   UNL     1       1.159  -2.969  -3.604  0.00  0.00    +0.110 A 
ATOM     13  S   UNL     1       1.061  -3.574  -1.923  0.00  0.00    -0.072 S 
ATOM     14  C   UNL     1       0.637   0.339  -1.946  0.00  0.00    +0.053 C 
ATOM     15  C   UNL     1       0.056   1.407   2.478  0.00  0.00    +0.016 C 
ENDROOT
BRANCH  12  16
ATOM     16  C   UNL     1       1.385  -3.716  -4.860  0.00  0.00    +0.025 A 
ATOM     17  C   UNL     1       1.430  -5.115  -4.857  0.00  0.00    +0.013 A 
ATOM     18  C   UNL     1       1.644  -5.767  -6.059  0.00  0.00    +0.020 A 
ATOM     19  C   UNL     1       1.804  -5.022  -7.214  0.00  0.00    +0.111 A 
ATOM     20  N   UNL     1       1.756  -3.704  -7.186  0.00  0.00    -0.263 NA
ATOM     21  C   UNL     1       1.549  -3.039  -6.069  0.00  0.00    +0.121 A 
ENDBRANCH  12  16
BRANCH   5  22
ATOM     22  O   UNL     1      -2.145  -1.488   1.798  0.00  0.00    -0.391 OA
ATOM     23  H   UNL     1      -3.098  -1.646   1.838  0.00  0.00    +0.210 HD
ENDBRANCH   5  22
BRANCH  14  24
ATOM     24  C   UNL     1      -0.034   1.035  -3.126  0.00  0.00    +0.106 C 
BRANCH  24  25
ATOM     25  C   UNL     1       0.870   0.964  -4.330  0.00  0.00    +0.216 C 
ATOM     26  O   UNL     1       1.930   0.379  -4.259  0.00  0.00    -0.276 OA
ATOM     27  N   UNL     1       0.500   1.552  -5.486  0.00  0.00    -0.301 N 
ATOM     28  C   UNL     1      -0.727   2.350  -5.542  0.00  0.00    +0.132 C 
BRANCH  27  29
ATOM     29  C   UNL     1       1.325   1.391  -6.685  0.00  0.00    +0.134 C 
BRANCH  29  30
ATOM     30  C   UNL     1       0.776   0.268  -7.527  0.00  0.00    -0.016 C 
ATOM     31  C   UNL     1       0.479   0.477  -8.785  0.00  0.00    +0.005 C 
ENDBRANCH  29  30
ENDBRANCH  27  29
ENDBRANCH  24  25
ENDBRANCH  14  24
BRANCH   6  32
ATOM     32  C   UNL     1       0.202  -1.010   2.853  0.00  0.00    +0.165 C 
BRANCH  32  33
ATOM     33  O   UNL     1      -0.439  -0.792   4.112  0.00  0.00    -0.394 OA
ATOM     34  H   UNL     1      -0.183  -1.423   4.798  0.00  0.00    +0.209 HD
ENDBRANCH  32  33
ENDBRANCH   6  32
TORSDOF 8
