REMARK  Name = ZINC01820328
REMARK  13 active torsions:
REMARK  status: ('A' for Active; 'I' for Inactive)
REMARK    1  A    between atoms: C_4  and  C_7
REMARK    2  A    between atoms: C_7  and  N_67
REMARK    3  A    between atoms: C_8  and  C_9
REMARK    4  A    between atoms: C_8  and  N_67
REMARK    5  A    between atoms: C_15  and  C_16
REMARK    6  A    between atoms: C_15  and  N_67
REMARK    7  A    between atoms: C_16  and  C_18
REMARK    8  A    between atoms: C_16  and  O_38
REMARK    9  A    between atoms: C_18  and  N_19
REMARK   10  A    between atoms: N_19  and  C_20
REMARK   11  A    between atoms: N_19  and  S_26
REMARK   12  A    between atoms: S_26  and  C_29
REMARK   13  A    between atoms: C_32  and  N_35
REMARK                            x       y       z     vdW  Elec       q    Type
REMARK                         _______ _______ _______ _____ _____    ______ ____
ROOT
ATOM      1  C   UNL     1       6.157  -1.250  -3.501  0.00  0.00    +0.117 C 
ENDROOT
BRANCH   1   2
ATOM      2  O   UNL     1       6.901  -0.170  -4.069  0.00  0.00    -0.392 OA
ATOM      3  H   UNL     1       7.777  -0.049  -3.679  0.00  0.00    +0.210 HD
ENDBRANCH   1   2
BRANCH   1   4
ATOM      4  C   UNL     1       5.856  -0.946  -2.032  0.00  0.00    -0.045 C 
BRANCH   4   5
ATOM      5  N   UNL     1       5.050   0.290  -1.960  0.00  0.00    +0.387 N 
ATOM      6  H   UNL     1       5.426   0.974  -2.627  0.00  0.00    -0.081 HD
BRANCH   5   7
ATOM      7  C   UNL     1       3.644  -0.002  -2.313  0.00  0.00    -0.042 C 
BRANCH   7  11
ATOM      8  C   UNL     1       1.522   3.685  -2.692  0.00  0.00    +0.000 A 
ATOM      9  C   UNL     1       1.567   3.036  -1.472  0.00  0.00    +0.000 A 
ATOM     10  C   UNL     1       2.254   1.843  -1.350  0.00  0.00    +0.002 A 
ATOM     11  C   UNL     1       2.896   1.299  -2.447  0.00  0.00    -0.064 A 
ATOM     12  C   UNL     1       2.851   1.949  -3.666  0.00  0.00    +0.002 A 
ATOM     13  C   UNL     1       2.164   3.142  -3.788  0.00  0.00    +0.000 A 
ENDBRANCH   7  11
ENDBRANCH   5   7
BRANCH   5  14
ATOM     14  C   UNL     1       5.120   0.860  -0.598  0.00  0.00    -0.042 C 
BRANCH  14  15
ATOM     15  C   UNL     1       6.478   1.482  -0.403  0.00  0.00    -0.064 A 
ATOM     16  C   UNL     1       7.485   0.764   0.215  0.00  0.00    +0.002 A 
ATOM     17  C   UNL     1       8.733   1.333   0.389  0.00  0.00    +0.000 A 
ATOM     18  C   UNL     1       8.971   2.623  -0.044  0.00  0.00    +0.000 A 
ATOM     19  C   UNL     1       7.962   3.344  -0.657  0.00  0.00    +0.000 A 
ATOM     20  C   UNL     1       6.716   2.773  -0.836  0.00  0.00    +0.002 A 
ENDBRANCH  14  15
ENDBRANCH   5  14
ENDBRANCH   4   5
ENDBRANCH   1   4
BRANCH   1  21
ATOM     21  C   UNL     1       6.974  -2.540  -3.599  0.00  0.00    +0.161 C 
BRANCH  21  22
ATOM     22  N   UNL     1       7.143  -2.906  -5.007  0.00  0.00    -0.201 N 
BRANCH  22  23
ATOM     23  C   UNL     1       8.170  -2.332  -5.760  0.00  0.00    +0.051 A 
ATOM     24  C   UNL     1       7.869  -1.570  -6.882  0.00  0.00    +0.025 A 
ATOM     25  C   UNL     1       8.887  -1.000  -7.621  0.00  0.00    +0.002 A 
ATOM     26  C   UNL     1      10.205  -1.195  -7.251  0.00  0.00    +0.000 A 
ATOM     27  C   UNL     1      10.508  -1.957  -6.137  0.00  0.00    +0.002 A 
ATOM     28  C   UNL     1       9.495  -2.526  -5.391  0.00  0.00    +0.025 A 
ENDBRANCH  22  23
BRANCH  22  29
ATOM     29  S   UNL     1       6.116  -4.000  -5.707  0.00  0.00    +0.075 S 
ATOM     30  O   UNL     1       6.796  -4.532  -6.835  0.00  0.00    -0.150 OA
ATOM     31  O   UNL     1       5.622  -4.822  -4.658  0.00  0.00    -0.150 OA
BRANCH  29  32
ATOM     32  C   UNL     1       4.738  -3.096  -6.330  0.00  0.00    +0.109 A 
ATOM     33  C   UNL     1       3.630  -2.886  -5.531  0.00  0.00    +0.031 A 
ATOM     34  C   UNL     1       2.551  -2.173  -6.018  0.00  0.00    +0.034 A 
ATOM     35  C   UNL     1       2.575  -1.679  -7.309  0.00  0.00    +0.126 A 
ATOM     36  C   UNL     1       3.681  -1.893  -8.111  0.00  0.00    +0.034 A 
ATOM     37  C   UNL     1       4.762  -2.602  -7.622  0.00  0.00    +0.031 A 
BRANCH  35  38
ATOM     38  N   UNL     1       1.417  -0.919  -7.833  0.00  0.00    +0.056 N 
ATOM     39  O   UNL     1       1.439  -0.484  -8.970  0.00  0.00    -0.126 OA
ATOM     40  O   UNL     1       0.443  -0.730  -7.127  0.00  0.00    -0.126 OA
ENDBRANCH  35  38
ENDBRANCH  29  32
ENDBRANCH  22  29
ENDBRANCH  21  22
ENDBRANCH   1  21
TORSDOF 13
