REMARK  Name = ZINC34749444
REMARK  10 active torsions:
REMARK  status: ('A' for Active; 'I' for Inactive)
REMARK    1  A    between atoms: C_1  and  C_2
REMARK    2  A    between atoms: C_2  and  C_3
REMARK    3  A    between atoms: C_3  and  N_4
REMARK    4  A    between atoms: C_8  and  C_32
REMARK    5  A    between atoms: C_9  and  C_31
REMARK    6  A    between atoms: N_17  and  C_20
REMARK    7  A    between atoms: C_20  and  C_21
REMARK    8  A    between atoms: N_23  and  C_24
REMARK    9  A    between atoms: C_27  and  C_30
REMARK   10  A    between atoms: C_32  and  C_33
REMARK                            x       y       z     vdW  Elec       q    Type
REMARK                         _______ _______ _______ _____ _____    ______ ____
ROOT
ATOM      1  N   UNL     1      -2.512  -3.144   0.662  0.00  0.00    -0.280 N 
ATOM      2  C   UNL     1      -2.540  -3.917  -0.439  0.00  0.00    +0.264 A 
ATOM      3  O   UNL     1      -3.593  -4.380  -0.843  0.00  0.00    -0.267 OA
ATOM      4  C   UNL     1      -1.317  -4.189  -1.130  0.00  0.00    +0.076 A 
ATOM      5  C   UNL     1      -1.093  -4.984  -2.325  0.00  0.00    -0.023 A 
ATOM      6  C   UNL     1       0.153  -5.106  -2.807  0.00  0.00    -0.007 A 
ATOM      7  S   UNL     1       1.132  -4.144  -1.670  0.00  0.00    -0.073 S 
ATOM      8  C   UNL     1      -0.160  -3.606  -0.580  0.00  0.00    +0.117 A 
ATOM      9  N   UNL     1      -0.204  -2.851   0.512  0.00  0.00    -0.208 NA
ATOM     10  C   UNL     1      -1.345  -2.613   1.125  0.00  0.00    +0.202 A 
ATOM     11  N   UNL     1      -1.358  -1.824   2.248  0.00  0.00    -0.304 N 
ATOM     12  C   UNL     1      -1.565  -0.371   2.149  0.00  0.00    +0.089 C 
ATOM     13  C   UNL     1      -0.460   0.332   2.945  0.00  0.00    -0.059 C 
ATOM     14  N   UNL     1      -0.443  -0.186   4.319  0.00  0.00    +0.387 N 
ATOM     15  C   UNL     1      -0.081  -1.609   4.313  0.00  0.00    -0.059 C 
ATOM     16  C   UNL     1      -1.173  -2.409   3.585  0.00  0.00    +0.089 C 
ATOM     17  C   UNL     1       0.615  -5.872  -4.019  0.00  0.00    +0.052 C 
ATOM     18  H   UNL     1      -1.358  -0.074   4.730  0.00  0.00    -0.081 HD
ENDROOT
BRANCH   5  19
ATOM     19  C   UNL     1      -2.247  -5.665  -3.015  0.00  0.00    +0.033 C 
ATOM     20  C   UNL     1      -2.840  -4.724  -4.066  0.00  0.00    +0.009 C 
ENDBRANCH   5  19
BRANCH   1  21
ATOM     21  C   UNL     1      -3.761  -2.862   1.373  0.00  0.00    +0.128 C 
BRANCH  21  23
ATOM     22  C   UNL     1      -5.737  -1.338   1.502  0.00  0.00    +0.005 C 
ATOM     23  C   UNL     1      -4.432  -1.632   0.759  0.00  0.00    +0.018 C 
ENDBRANCH  21  23
ENDBRANCH   1  21
BRANCH  14  24
ATOM     24  C   UNL     1       0.541   0.564   5.111  0.00  0.00    +0.019 C 
BRANCH  24  25
ATOM     25  C   UNL     1       0.473   0.119   6.549  0.00  0.00    +0.201 C 
ATOM     26  O   UNL     1      -0.317  -0.739   6.881  0.00  0.00    -0.278 OA
ATOM     27  N   UNL     1       1.290   0.674   7.466  0.00  0.00    -0.287 N 
ATOM     28  H   UNL     1       1.870   1.410   7.216  0.00  0.00    +0.155 HD
BRANCH  27  29
ATOM     29  C   UNL     1       1.303   0.188   8.778  0.00  0.00    +0.033 A 
ATOM     30  C   UNL     1       2.490   0.158   9.498  0.00  0.00    +0.023 A 
ATOM     31  C   UNL     1       2.499  -0.323  10.793  0.00  0.00    +0.005 A 
ATOM     32  C   UNL     1       1.327  -0.774  11.372  0.00  0.00    -0.050 A 
ATOM     33  C   UNL     1       0.143  -0.746  10.658  0.00  0.00    +0.005 A 
ATOM     34  C   UNL     1       0.127  -0.261   9.365  0.00  0.00    +0.023 A 
ATOM     35  C   UNL     1       1.340  -1.297  12.785  0.00  0.00    +0.044 C 
ENDBRANCH  27  29
ENDBRANCH  24  25
ENDBRANCH  14  24
TORSDOF 6
