REMARK  Name = ZINC44876047
REMARK  11 active torsions:
REMARK  status: ('A' for Active; 'I' for Inactive)
REMARK    1  A    between atoms: C_1  and  C_2
REMARK    2  A    between atoms: C_4  and  N_9
REMARK    3  A    between atoms: N_9  and  C_10
REMARK    4  A    between atoms: N_9  and  S_29
REMARK    5  A    between atoms: C_10  and  C_11
REMARK    6  A    between atoms: N_13  and  C_14
REMARK    7  A    between atoms: C_14  and  C_15
REMARK    8  A    between atoms: C_18  and  C_21
REMARK    9  A    between atoms: C_21  and  N_22
REMARK   10  A    between atoms: C_25  and  C_28
REMARK   11  A    between atoms: S_29  and  C_32
REMARK                            x       y       z     vdW  Elec       q    Type
REMARK                         _______ _______ _______ _____ _____    ______ ____
ROOT
ATOM      1  C   UNL     1      -0.475  -5.121  -2.084  0.00  0.00    +0.232 C 
ATOM      2  O   UNL     1      -1.583  -4.737  -1.772  0.00  0.00    -0.274 OA
ATOM      3  N   UNL     1      -0.190  -6.438  -2.071  0.00  0.00    -0.310 N 
ATOM      4  H   UNL     1       0.696  -6.745  -2.320  0.00  0.00    +0.149 HD
ENDROOT
BRANCH   1   5
ATOM      5  C   UNL     1       0.582  -4.125  -2.485  0.00  0.00    +0.226 C 
BRANCH   5   6
ATOM      6  N   UNL     1       0.028  -2.770  -2.418  0.00  0.00    -0.199 N 
BRANCH   6  10
ATOM      7  C   UNL     1      -0.018   1.503   0.010  0.00  0.00    +0.045 C 
ATOM      8  C   UNL     1       0.002  -0.004   0.002  0.00  0.00    -0.035 A 
ATOM      9  C   UNL     1       0.006  -0.687  -1.198  0.00  0.00    +0.029 A 
ATOM     10  C   UNL     1       0.025  -2.076  -1.205  0.00  0.00    +0.052 A 
ATOM     11  C   UNL     1       0.040  -2.774  -0.004  0.00  0.00    +0.026 A 
ATOM     12  C   UNL     1       0.036  -2.085   1.193  0.00  0.00    +0.017 A 
ATOM     13  C   UNL     1       0.023  -0.701   1.197  0.00  0.00    +0.021 A 
ATOM     14 BR   UNL     1       0.026   0.238   2.838  0.00  0.00    -0.050 Br
ENDBRANCH   6  10
BRANCH   6  15
ATOM     15  S   UNL     1      -0.595  -2.062  -3.779  0.00  0.00    +0.043 S 
ATOM     16  O   UNL     1      -1.088  -3.143  -4.558  0.00  0.00    -0.155 OA
ATOM     17  O   UNL     1      -1.476  -1.057  -3.294  0.00  0.00    -0.155 OA
ATOM     18  C   UNL     1       0.831  -1.299  -4.601  0.00  0.00    +0.218 C 
ENDBRANCH   6  15
ENDBRANCH   5   6
ENDBRANCH   1   5
BRANCH   3  19
ATOM     19  C   UNL     1      -1.218  -7.406  -1.681  0.00  0.00    +0.139 C 
BRANCH  19  20
ATOM     20  C   UNL     1      -0.648  -8.799  -1.750  0.00  0.00    -0.030 A 
ATOM     21  C   UNL     1      -0.732  -9.523  -2.925  0.00  0.00    +0.005 A 
ATOM     22  C   UNL     1      -0.209 -10.801  -2.988  0.00  0.00    +0.002 A 
ATOM     23  C   UNL     1       0.399 -11.355  -1.877  0.00  0.00    -0.064 A 
ATOM     24  C   UNL     1       0.484 -10.631  -0.703  0.00  0.00    +0.002 A 
ATOM     25  C   UNL     1      -0.035  -9.351  -0.641  0.00  0.00    +0.005 A 
BRANCH  23  26
ATOM     26  C   UNL     1       0.968 -12.749  -1.946  0.00  0.00    -0.043 C 
BRANCH  26  27
ATOM     27  N   UNL     1       2.371 -12.684  -2.377  0.00  0.00    +0.382 N 
ATOM     28  C   UNL     1       3.162 -11.982  -1.359  0.00  0.00    -0.078 C 
ATOM     29  C   UNL     1       4.608 -11.840  -1.840  0.00  0.00    -0.016 C 
ATOM     30  C   UNL     1       5.200 -13.232  -2.078  0.00  0.00    -0.018 C 
ATOM     31  C   UNL     1       4.324 -13.983  -3.086  0.00  0.00    -0.016 C 
ATOM     32  C   UNL     1       2.889 -14.045  -2.560  0.00  0.00    -0.078 C 
ATOM     33  C   UNL     1       6.619 -13.097  -2.634  0.00  0.00    +0.007 C 
ATOM     34  H   UNL     1       2.430 -12.183  -3.251  0.00  0.00    -0.081 HD
ENDBRANCH  26  27
ENDBRANCH  23  26
ENDBRANCH  19  20
ENDBRANCH   3  19
TORSDOF 8
