REMARK  Name = ZINC39684235
REMARK  11 active torsions:
REMARK  status: ('A' for Active; 'I' for Inactive)
REMARK    1  A    between atoms: C_1  and  C_2
REMARK    2  A    between atoms: C_7  and  C_11
REMARK    3  A    between atoms: C_11  and  C_12
REMARK    4  A    between atoms: C_12  and  N_13
REMARK    5  A    between atoms: C_14  and  C_16
REMARK    6  A    between atoms: C_27  and  C_29
REMARK    7  A    between atoms: C_29  and  C_31
REMARK    8  A    between atoms: C_29  and  O_34
REMARK    9  A    between atoms: C_31  and  C_32
REMARK   10  A    between atoms: C_31  and  C_33
REMARK   11  A    between atoms: O_34  and  C_35
REMARK                            x       y       z     vdW  Elec       q    Type
REMARK                         _______ _______ _______ _____ _____    ______ ____
ROOT
ATOM      1  C   UNL     1      -8.714   1.658  -6.309  0.00  0.00    +0.100 C 
ATOM      2  C   UNL     1      -9.910   2.097  -5.434  0.00  0.00    +0.121 C 
ATOM      3  N   UNL     1     -11.107   1.634  -6.176  0.00  0.00    -0.297 N 
ATOM      4  C   UNL     1     -10.717   0.308  -6.714  0.00  0.00    +0.115 C 
ATOM      5  C   UNL     1      -9.248   0.483  -7.147  0.00  0.00    -0.004 C 
ATOM      6  C   UNL     1      -8.455  -0.784  -6.845  0.00  0.00    -0.010 C 
ATOM      7  C   UNL     1      -8.965  -1.924  -7.732  0.00  0.00    -0.082 C 
ATOM      8  N   UNL     1      -8.814  -1.553  -9.144  0.00  0.00    +0.379 N 
ATOM      9  C   UNL     1      -9.653  -0.387  -9.448  0.00  0.00    -0.082 C 
ATOM     10  C   UNL     1      -9.172   0.817  -8.633  0.00  0.00    -0.010 C 
ATOM     11  C   UNL     1     -12.283   2.274  -6.328  0.00  0.00    +0.257 C 
ATOM     12  O   UNL     1     -13.175   1.760  -6.969  0.00  0.00    -0.272 OA
ATOM     13  H   UNL     1      -7.848  -1.328  -9.329  0.00  0.00    -0.086 HD
ATOM     14  H   UNL     1      -9.094  -2.328  -9.726  0.00  0.00    -0.086 HD
ENDROOT
BRANCH   1  16
ATOM     15  N   UNL     1      -6.314   1.196  -5.935  0.00  0.00    -0.315 N 
ATOM     16  C   UNL     1      -7.568   1.205  -5.442  0.00  0.00    +0.218 C 
ATOM     17  O   UNL     1      -7.774   0.850  -4.301  0.00  0.00    -0.275 OA
ATOM     18  H   UNL     1      -6.149   1.480  -6.848  0.00  0.00    +0.149 HD
BRANCH  15  19
ATOM     19  C   UNL     1      -5.199   0.756  -5.092  0.00  0.00    +0.109 C 
BRANCH  19  20
ATOM     20  C   UNL     1      -3.894   0.841  -5.887  0.00  0.00    +0.056 C 
BRANCH  20  27
ATOM     21  C   UNL     1       0.607  -2.035  -2.602  0.00  0.00    +0.046 C 
ATOM     22  C   UNL     1      -0.568  -2.092  -3.544  0.00  0.00    -0.027 A 
ATOM     23  C   UNL     1      -1.011  -3.305  -4.025  0.00  0.00    +0.005 A 
ATOM     24  C   UNL     1      -2.091  -3.371  -4.893  0.00  0.00    +0.001 A 
ATOM     25  C   UNL     1      -2.736  -2.232  -5.287  0.00  0.00    +0.010 A 
ATOM     26  C   UNL     1      -2.304  -0.992  -4.812  0.00  0.00    +0.003 A 
ATOM     27  C   UNL     1      -2.748   0.388  -5.020  0.00  0.00    -0.021 A 
ATOM     28  C   UNL     1      -1.938   1.174  -4.292  0.00  0.00    +0.087 A 
ATOM     29  N   UNL     1      -1.013   0.410  -3.635  0.00  0.00    -0.360 N 
ATOM     30  C   UNL     1      -1.212  -0.921  -3.927  0.00  0.00    +0.050 A 
ATOM     31  H   UNL     1      -0.322   0.754  -3.048  0.00  0.00    +0.165 HD
ENDBRANCH  20  27
ENDBRANCH  19  20
ENDBRANCH  15  19
ENDBRANCH   1  16
BRANCH  11  32
ATOM     32  C   UNL     1     -12.490   3.629  -5.701  0.00  0.00    +0.261 C 
BRANCH  32  33
ATOM     33  C   UNL     1     -12.446   3.497  -4.177  0.00  0.00    +0.033 C 
ATOM     34  C   UNL     1     -12.656   4.872  -3.540  0.00  0.00    +0.011 C 
ATOM     35  C   UNL     1     -13.552   2.546  -3.715  0.00  0.00    +0.011 C 
ENDBRANCH  32  33
BRANCH  32  36
ATOM     36  O   UNL     1     -13.761   4.148  -6.097  0.00  0.00    -0.479 OA
BRANCH  36  37
ATOM     37  C   UNL     1     -13.858   5.495  -6.247  0.00  0.00    +0.122 A 
ATOM     38  C   UNL     1     -12.733   6.293  -6.100  0.00  0.00    +0.045 A 
ATOM     39  C   UNL     1     -12.834   7.662  -6.253  0.00  0.00    +0.004 A 
ATOM     40  C   UNL     1     -14.055   8.237  -6.553  0.00  0.00    +0.000 A 
ATOM     41  C   UNL     1     -15.178   7.444  -6.700  0.00  0.00    +0.004 A 
ATOM     42  C   UNL     1     -15.081   6.074  -6.554  0.00  0.00    +0.045 A 
ENDBRANCH  36  37
ENDBRANCH  32  36
ENDBRANCH  11  32
TORSDOF 8
