REMARK  Name = ZINC63588697
REMARK  8 active torsions:
REMARK  status: ('A' for Active; 'I' for Inactive)
REMARK    1  A    between atoms: C_1  and  O_2
REMARK    2  A    between atoms: O_2  and  C_3
REMARK    3  A    between atoms: C_6  and  N_9
REMARK    4  A    between atoms: N_11  and  C_12
REMARK    5  A    between atoms: C_12  and  C_13
REMARK    6  A    between atoms: C_13  and  C_14
REMARK    7  A    between atoms: N_23  and  C_24
REMARK    8  A    between atoms: C_24  and  C_26
REMARK                            x       y       z     vdW  Elec       q    Type
REMARK                         _______ _______ _______ _____ _____    ______ ____
ROOT
ATOM      1  N   UNL     1       2.719  -2.647  -3.893  0.00  0.00    -0.328 N 
ATOM      2  C   UNL     1       2.466  -3.904  -4.361  0.00  0.00    +0.194 C 
ATOM      3  N   UNL     1       2.898  -4.270  -5.602  0.00  0.00    -0.357 N 
ATOM      4  N   UNL     1       1.800  -4.768  -3.609  0.00  0.00    -0.143 NA
ATOM      5  H   UNL     1       3.465  -3.673  -6.114  0.00  0.00    +0.162 HD
ATOM      6  H   UNL     1       2.768  -2.485  -2.938  0.00  0.00    +0.169 HD
ENDROOT
BRANCH   1  10
ATOM      7  C   UNL     1       3.283   0.498  -6.572  0.00  0.00    +0.120 A 
ATOM      8  C   UNL     1       4.079   0.400  -5.441  0.00  0.00    +0.047 A 
ATOM      9  C   UNL     1       3.893  -0.641  -4.553  0.00  0.00    +0.029 A 
ATOM     10  C   UNL     1       2.908  -1.590  -4.793  0.00  0.00    +0.042 A 
ATOM     11  C   UNL     1       2.111  -1.491  -5.926  0.00  0.00    +0.029 A 
ATOM     12  C   UNL     1       2.294  -0.446  -6.810  0.00  0.00    +0.047 A 
BRANCH   7  14
ATOM     13  C   UNL     1       4.502   2.459  -7.139  0.00  0.00    +0.277 C 
ATOM     14  O   UNL     1       3.467   1.524  -7.446  0.00  0.00    -0.495 OA
ENDBRANCH   7  14
ENDBRANCH   1  10
BRANCH   4  15
ATOM     15  C   UNL     1       1.223  -4.361  -2.471  0.00  0.00    +0.270 C 
ATOM     16  O   UNL     1       1.149  -3.171  -2.217  0.00  0.00    -0.268 OA
BRANCH  15  17
ATOM     17  C   UNL     1       0.675  -5.356  -1.522  0.00  0.00    +0.039 A 
ATOM     18  C   UNL     1       0.862  -6.719  -1.750  0.00  0.00    +0.014 A 
ATOM     19  C   UNL     1       0.350  -7.642  -0.862  0.00  0.00    +0.016 A 
ATOM     20  C   UNL     1      -0.350  -7.217   0.255  0.00  0.00    +0.018 A 
ATOM     21  C   UNL     1      -0.539  -5.865   0.487  0.00  0.00    +0.016 A 
ATOM     22  C   UNL     1      -0.026  -4.933  -0.392  0.00  0.00    +0.014 A 
ATOM     23 BR   UNL     1      -1.050  -8.488   1.467  0.00  0.00    -0.050 Br
ENDBRANCH  15  17
ENDBRANCH   4  15
BRANCH   3  24
ATOM     24  C   UNL     1       2.505  -5.566  -6.161  0.00  0.00    +0.120 C 
BRANCH  24  25
ATOM     25  C   UNL     1       3.119  -5.728  -7.553  0.00  0.00    +0.054 C 
BRANCH  25  26
ATOM     26  C   UNL     1       2.716  -7.061  -8.129  0.00  0.00    -0.040 C 
ATOM     27  C   UNL     1       1.677  -7.307  -8.959  0.00  0.00    -0.001 A 
ATOM     28  C   UNL     1       0.651  -6.440  -9.553  0.00  0.00    +0.010 A 
ATOM     29  C   UNL     1      -0.281  -6.989 -10.364  0.00  0.00    +0.001 A 
ATOM     30  C   UNL     1      -0.292  -8.360 -10.653  0.00  0.00    +0.002 A 
ATOM     31  C   UNL     1       0.617  -9.220 -10.146  0.00  0.00    +0.026 A 
ATOM     32  C   UNL     1       1.643  -8.752  -9.280  0.00  0.00    +0.043 A 
ATOM     33  N   UNL     1       2.623  -9.374  -8.671  0.00  0.00    -0.380 N 
ATOM     34  C   UNL     1       3.393  -8.393  -7.899  0.00  0.00    +0.144 C 
ATOM     35  H   UNL     1       2.810 -10.325  -8.725  0.00  0.00    +0.160 HD
ENDBRANCH  25  26
ENDBRANCH  24  25
ENDBRANCH   3  24
TORSDOF 7
