REMARK  Name = ZINC48846872
REMARK  7 active torsions:
REMARK  status: ('A' for Active; 'I' for Inactive)
REMARK    1  A    between atoms: C_1  and  C_2
REMARK    2  A    between atoms: C_2  and  C_3
REMARK    3  A    between atoms: C_3  and  C_4
REMARK    4  A    between atoms: C_3  and  C_11
REMARK    5  A    between atoms: C_3  and  N_14
REMARK    6  A    between atoms: N_14  and  C_15
REMARK    7  A    between atoms: C_21  and  N_23
REMARK                            x       y       z     vdW  Elec       q    Type
REMARK                         _______ _______ _______ _____ _____    ______ ____
ROOT
ATOM      1  C   UNL     1       0.769  -0.315  -1.186  0.00  0.00    +0.147 C 
ENDROOT
BRANCH   1   2
ATOM      2  C   UNL     1       1.589   0.229  -2.327  0.00  0.00    -0.016 A 
ATOM      3  C   UNL     1       0.960   0.773  -3.432  0.00  0.00    +0.009 A 
ATOM      4  C   UNL     1       1.711   1.273  -4.479  0.00  0.00    +0.038 A 
ATOM      5  C   UNL     1       3.094   1.228  -4.421  0.00  0.00    +0.123 A 
ATOM      6  C   UNL     1       3.722   0.684  -3.314  0.00  0.00    +0.038 A 
ATOM      7  C   UNL     1       2.969   0.189  -2.266  0.00  0.00    +0.009 A 
ATOM      8  F   UNL     1       3.829   1.716  -5.444  0.00  0.00    -0.205 F 
ENDBRANCH   1   2
BRANCH   1   9
ATOM      9  C   UNL     1       1.083  -1.776  -0.994  0.00  0.00    +0.380 C 
ATOM     10  O   UNL     1       0.673  -2.599  -1.795  0.00  0.00    -0.244 OA
ATOM     11  O   UNL     1       1.747  -2.136  -0.036  0.00  0.00    -0.244 OA
ENDBRANCH   1   9
BRANCH   1  13
ATOM     12  C   UNL     1       0.670   1.911  -0.056  0.00  0.00    +0.006 C 
ATOM     13  C   UNL     1       1.105   0.452   0.095  0.00  0.00    +0.035 C 
ENDBRANCH   1  13
BRANCH   1  14
ATOM     14  N   UNL     1      -0.660  -0.158  -1.491  0.00  0.00    -0.297 NA
ATOM     15  H   UNL     1      -0.875   0.799  -1.730  0.00  0.00    +0.123 HD
BRANCH  14  16
ATOM     16  C   UNL     1      -1.491  -0.621  -0.372  0.00  0.00    +0.040 C 
ATOM     17  C   UNL     1      -1.771  -2.116  -0.529  0.00  0.00    +0.017 C 
ATOM     18  C   UNL     1      -2.509  -2.361  -1.847  0.00  0.00    +0.001 C 
ATOM     19  C   UNL     1      -3.831  -1.592  -1.842  0.00  0.00    -0.001 C 
ATOM     20  C   UNL     1      -3.551  -0.096  -1.685  0.00  0.00    -0.015 C 
ATOM     21  C   UNL     1      -2.814   0.148  -0.366  0.00  0.00    -0.058 C 
BRANCH  21  22
ATOM     22  N   UNL     1      -2.545   1.585  -0.215  0.00  0.00    +0.381 N 
ATOM     23  H   UNL     1      -1.974   1.903  -0.984  0.00  0.00    -0.090 HD
ATOM     24  H   UNL     1      -3.417   2.092  -0.212  0.00  0.00    -0.090 HD
ATOM     25  H   UNL     1      -2.058   1.746   0.654  0.00  0.00    -0.090 HD
ENDBRANCH  21  22
ENDBRANCH  14  16
ENDBRANCH   1  14
TORSDOF 6
