REMARK  Name = ZINC63783176
REMARK  8 active torsions:
REMARK  status: ('A' for Active; 'I' for Inactive)
REMARK    1  A    between atoms: C_4  and  C_7
REMARK    2  A    between atoms: C_7  and  N_8
REMARK    3  A    between atoms: C_9  and  C_11
REMARK    4  A    between atoms: C_11  and  C_12
REMARK    5  A    between atoms: C_15  and  C_19
REMARK    6  A    between atoms: N_21  and  C_22
REMARK    7  A    between atoms: C_22  and  C_23
REMARK    8  A    between atoms: C_23  and  C_24
REMARK                            x       y       z     vdW  Elec       q    Type
REMARK                         _______ _______ _______ _____ _____    ______ ____
ROOT
ATOM      1  C   UNL     1       7.099  -2.600   2.966  0.00  0.00    +0.158 C 
ATOM      2  N   UNL     1       7.513  -2.939   4.348  0.00  0.00    -0.265 NA
ATOM      3  C   UNL     1       8.986  -2.741   4.340  0.00  0.00    +0.297 C 
ATOM      4  O   UNL     1       9.161  -1.575   3.505  0.00  0.00    -0.270 OA
ATOM      5  N   UNL     1       8.165  -1.727   2.427  0.00  0.00    -0.181 NA
ATOM      6  H   UNL     1       7.070  -2.330   5.019  0.00  0.00    +0.126 HD
ATOM      7  H   UNL     1       7.792  -0.832   2.149  0.00  0.00    +0.156 HD
ENDROOT
BRANCH   3   8
ATOM      8  C   UNL     1       9.495  -2.481   5.735  0.00  0.00    +0.259 C 
ATOM      9  O   UNL     1      10.165  -3.318   6.302  0.00  0.00    -0.271 OA
ATOM     10  N   UNL     1       9.204  -1.319   6.353  0.00  0.00    -0.312 N 
ATOM     11  H   UNL     1       8.668  -0.650   5.899  0.00  0.00    +0.149 HD
BRANCH  10  12
ATOM     12  C   UNL     1       9.698  -1.067   7.708  0.00  0.00    +0.108 C 
BRANCH  12  13
ATOM     13  C   UNL     1       9.230   0.314   8.173  0.00  0.00    +0.052 C 
BRANCH  13  14
ATOM     14  C   UNL     1       9.739   0.574   9.568  0.00  0.00    -0.040 C 
ATOM     15  C   UNL     1      10.862   1.243   9.912  0.00  0.00    +0.002 A 
ATOM     16  C   UNL     1      11.907   1.904   9.121  0.00  0.00    +0.048 A 
ATOM     17  C   UNL     1      12.936   2.505   9.764  0.00  0.00    +0.124 A 
ATOM     18  C   UNL     1      13.027   2.512  11.165  0.00  0.00    +0.040 A 
ATOM     19  C   UNL     1      12.105   1.925  11.957  0.00  0.00    +0.029 A 
ATOM     20  C   UNL     1      10.982   1.265  11.387  0.00  0.00    +0.043 A 
ATOM     21  N   UNL     1       9.971   0.633  11.934  0.00  0.00    -0.380 N 
ATOM     22  C   UNL     1       9.092   0.145  10.866  0.00  0.00    +0.144 C 
ATOM     23  F   UNL     1      13.900   3.114   9.039  0.00  0.00    -0.205 F 
ATOM     24  H   UNL     1       9.827   0.512  12.885  0.00  0.00    +0.160 HD
ENDBRANCH  13  14
ENDBRANCH  12  13
ENDBRANCH  10  12
ENDBRANCH   3   8
BRANCH   1  25
ATOM     25  C   UNL     1       5.764  -1.853   2.984  0.00  0.00    +0.132 C 
BRANCH  25  27
ATOM     26  N   UNL     1       4.152  -0.952   1.338  0.00  0.00    -0.311 N 
ATOM     27  C   UNL     1       5.311  -1.601   1.569  0.00  0.00    +0.216 C 
ATOM     28  O   UNL     1       5.989  -1.981   0.638  0.00  0.00    -0.276 OA
ATOM     29  H   UNL     1       3.610  -0.648   2.082  0.00  0.00    +0.149 HD
BRANCH  26  30
ATOM     30  C   UNL     1       3.711  -0.707  -0.038  0.00  0.00    +0.139 C 
BRANCH  30  34
ATOM     31  C   UNL     1      -0.017   1.378   0.010  0.00  0.00    +0.000 A 
ATOM     32  C   UNL     1       1.171   2.086   0.002  0.00  0.00    +0.000 A 
ATOM     33  C   UNL     1       2.377   1.411  -0.013  0.00  0.00    +0.005 A 
ATOM     34  C   UNL     1       2.396   0.029  -0.020  0.00  0.00    -0.030 A 
ATOM     35  C   UNL     1       1.208  -0.679  -0.012  0.00  0.00    +0.005 A 
ATOM     36  C   UNL     1       0.002  -0.004   0.002  0.00  0.00    +0.000 A 
ENDBRANCH  30  34
ENDBRANCH  26  30
ENDBRANCH  25  27
ENDBRANCH   1  25
TORSDOF 8
