REMARK  Name = ZINC16436053
REMARK  16 active torsions:
REMARK  status: ('A' for Active; 'I' for Inactive)
REMARK    1  A    between atoms: C_1  and  C_2
REMARK    2  A    between atoms: C_5  and  N_8
REMARK    3  A    between atoms: C_9  and  N_17
REMARK    4  A    between atoms: C_11  and  C_13
REMARK    5  A    between atoms: C_13  and  C_14
REMARK    6  A    between atoms: C_13  and  C_15
REMARK    7  A    between atoms: C_13  and  C_16
REMARK    8  A    between atoms: C_18  and  C_20
REMARK    9  A    between atoms: C_20  and  N_21
REMARK   10  A    between atoms: N_21  and  C_22
REMARK   11  A    between atoms: C_22  and  C_23
REMARK   12  A    between atoms: C_23  and  C_24
REMARK   13  A    between atoms: C_24  and  O_25
REMARK   14  A    between atoms: O_25  and  C_26
REMARK   15  A    between atoms: C_27  and  C_29
REMARK   16  A    between atoms: C_32  and  C_34
REMARK                            x       y       z     vdW  Elec       q    Type
REMARK                         _______ _______ _______ _____ _____    ______ ____
ROOT
ATOM      1  N   UNL     1       1.775  -4.647   4.760  0.00  0.00    -0.269 N 
ATOM      2  C   UNL     1       1.079  -3.642   4.193  0.00  0.00    +0.236 C 
ATOM      3  O   UNL     1       1.281  -2.496   4.535  0.00  0.00    -0.274 OA
ATOM      4  H   UNL     1       1.613  -5.564   4.487  0.00  0.00    +0.156 HD
ENDROOT
BRANCH   1   6
ATOM      5  N   UNL     1       3.495  -5.281   6.398  0.00  0.00    -0.218 N 
ATOM      6  C   UNL     1       2.727  -4.370   5.740  0.00  0.00    +0.129 A 
ATOM      7  C   UNL     1       3.055  -3.139   6.219  0.00  0.00    +0.069 A 
ATOM      8  C   UNL     1       4.050  -3.305   7.186  0.00  0.00    +0.071 A 
ATOM      9  N   UNL     1       4.316  -4.582   7.292  0.00  0.00    -0.169 NA
BRANCH   5  14
ATOM     10  C   UNL     1       3.396 -10.905   5.644  0.00  0.00    +0.044 C 
ATOM     11  C   UNL     1       3.422  -9.412   5.844  0.00  0.00    -0.050 A 
ATOM     12  C   UNL     1       4.615  -8.775   6.133  0.00  0.00    +0.005 A 
ATOM     13  C   UNL     1       4.643  -7.407   6.316  0.00  0.00    +0.028 A 
ATOM     14  C   UNL     1       3.470  -6.670   6.212  0.00  0.00    +0.067 A 
ATOM     15  C   UNL     1       2.273  -7.313   5.927  0.00  0.00    +0.028 A 
ATOM     16  C   UNL     1       2.253  -8.681   5.739  0.00  0.00    +0.005 A 
ENDBRANCH   5  14
BRANCH   8  17
ATOM     17  C   UNL     1       4.706  -2.201   7.975  0.00  0.00    +0.006 C 
ATOM     18  C   UNL     1       3.740  -1.697   9.048  0.00  0.00    +0.017 C 
ATOM     19  C   UNL     1       5.976  -2.735   8.641  0.00  0.00    +0.017 C 
ATOM     20  C   UNL     1       5.069  -1.050   7.035  0.00  0.00    +0.017 C 
ENDBRANCH   8  17
ENDBRANCH   1   6
BRANCH   2  21
ATOM     21  C   UNL     1       0.050  -3.942   3.134  0.00  0.00    +0.203 C 
BRANCH  21  22
ATOM     22  N   UNL     1      -0.563  -2.691   2.680  0.00  0.00    -0.292 N 
ATOM     23  C   UNL     1      -0.025  -2.013   1.647  0.00  0.00    +0.220 C 
ATOM     24  O   UNL     1       0.966  -2.439   1.092  0.00  0.00    -0.275 OA
BRANCH  23  25
ATOM     25  C   UNL     1      -0.655  -0.726   1.180  0.00  0.00    +0.083 C 
ATOM     26  C   UNL     1      -1.332  -0.728  -0.192  0.00  0.00    +0.022 C 
ATOM     27  C   UNL     1       0.002  -0.004   0.002  0.00  0.00    +0.032 C 
BRANCH  27  28
ATOM     28  C   UNL     1      -0.018   1.503   0.010  0.00  0.00    -0.044 A 
ATOM     29  C   UNL     1      -1.225   2.178   0.020  0.00  0.00    +0.004 A 
ATOM     30  C   UNL     1      -1.244   3.560   0.032  0.00  0.00    +0.000 A 
ATOM     31  C   UNL     1      -0.056   4.267   0.025  0.00  0.00    +0.000 A 
ATOM     32  C   UNL     1       1.151   3.592   0.010  0.00  0.00    +0.000 A 
ATOM     33  C   UNL     1       1.169   2.210   0.003  0.00  0.00    +0.004 A 
ENDBRANCH  27  28
ENDBRANCH  23  25
BRANCH  22  34
ATOM     34  C   UNL     1      -1.760  -2.176   3.350  0.00  0.00    +0.110 C 
BRANCH  34  35
ATOM     35  C   UNL     1      -3.008  -2.736   2.666  0.00  0.00    +0.047 C 
BRANCH  35  36
ATOM     36  C   UNL     1      -4.258  -2.199   3.365  0.00  0.00    +0.161 C 
BRANCH  36  37
ATOM     37  O   UNL     1      -5.424  -2.723   2.726  0.00  0.00    -0.383 OA
ATOM     38  C   UNL     1      -6.653  -2.280   3.306  0.00  0.00    +0.193 C 
ENDBRANCH  36  37
ENDBRANCH  35  36
ENDBRANCH  34  35
ENDBRANCH  22  34
ENDBRANCH  21  22
ENDBRANCH   2  21
TORSDOF 11
