REMARK  Name = ZINC20681924
REMARK  8 active torsions:
REMARK  status: ('A' for Active; 'I' for Inactive)
REMARK    1  A    between atoms: C_1  and  C_2
REMARK    2  A    between atoms: C_6  and  C_36
REMARK    3  A    between atoms: C_7  and  N_8
REMARK    4  A    between atoms: N_8  and  S_9
REMARK    5  A    between atoms: S_9  and  C_12
REMARK    6  A    between atoms: C_25  and  C_28
REMARK    7  A    between atoms: C_31  and  O_35
REMARK    8  A    between atoms: C_33  and  O_34
REMARK                            x       y       z     vdW  Elec       q    Type
REMARK                         _______ _______ _______ _____ _____    ______ ____
ROOT
ATOM      1  C   UNL     1      -1.945   2.173   1.975  0.00  0.00    +0.109 A 
ATOM      2  C   UNL     1      -1.043   2.160   3.023  0.00  0.00    +0.030 A 
ATOM      3  C   UNL     1       0.306   2.017   2.774  0.00  0.00    +0.025 A 
ATOM      4  C   UNL     1       0.770   1.884   1.471  0.00  0.00    +0.031 A 
ATOM      5  C   UNL     1      -0.159   1.904   0.410  0.00  0.00    -0.018 A 
ATOM      6  C   UNL     1      -1.495   2.036   0.674  0.00  0.00    +0.034 A 
ATOM      7  C   UNL     1       0.382   1.721  -0.954  0.00  0.00    +0.049 C 
ATOM      8  C   UNL     1      -0.329   2.260  -2.142  0.00  0.00    -0.023 C 
ATOM      9  C   UNL     1       0.571   2.589  -3.061  0.00  0.00    -0.030 C 
ATOM     10  C   UNL     1       1.981   2.320  -2.532  0.00  0.00    +0.033 C 
ATOM     11  C   UNL     1       1.768   2.429  -1.017  0.00  0.00    +0.029 C 
ATOM     12  C   UNL     1       2.683   1.607  -0.127  0.00  0.00    +0.108 C 
ATOM     13  N   UNL     1       2.145   1.756   1.242  0.00  0.00    -0.336 N 
ATOM     14  H   UNL     1       2.829   1.767   2.104  0.00  0.00    +0.147 HD
ENDROOT
BRANCH  12  15
ATOM     15  C   UNL     1       4.091   2.139  -0.195  0.00  0.00    +0.015 A 
ATOM     16  C   UNL     1       4.569   2.957   0.811  0.00  0.00    +0.012 A 
ATOM     17  C   UNL     1       5.860   3.446   0.753  0.00  0.00    +0.046 A 
ATOM     18  C   UNL     1       6.680   3.116  -0.317  0.00  0.00    +0.120 A 
ATOM     19  C   UNL     1       6.204   2.295  -1.327  0.00  0.00    +0.091 A 
ATOM     20  C   UNL     1       4.909   1.802  -1.264  0.00  0.00    +0.125 A 
BRANCH  20  21
ATOM     21  O   UNL     1       4.441   0.993  -2.250  0.00  0.00    -0.506 OA
ATOM     22  H   UNL     1       5.090   0.726  -3.097  0.00  0.00    +0.292 HD
ENDBRANCH  20  21
BRANCH  18  23
ATOM     23  O   UNL     1       7.950   3.598  -0.374  0.00  0.00    -0.507 OA
ATOM     24  H   UNL     1       8.600   3.336  -1.223  0.00  0.00    +0.292 HD
ENDBRANCH  18  23
ENDBRANCH  12  15
BRANCH   1  25
ATOM     25  S   UNL     1      -3.667   2.365   2.296  0.00  0.00    +0.072 S 
ATOM     26  O   UNL     1      -4.350   1.905   1.138  0.00  0.00    -0.150 OA
ATOM     27  O   UNL     1      -3.902   1.819   3.587  0.00  0.00    -0.150 OA
BRANCH  25  28
ATOM     28  N   UNL     1      -3.966   3.990   2.407  0.00  0.00    -0.216 N 
ATOM     29  H   UNL     1      -4.286   4.426   3.365  0.00  0.00    +0.174 HD
BRANCH  28  36
ATOM     30  C   UNL     1      -1.661   5.650   2.260  0.00  0.00    +0.046 C 
ATOM     31  C   UNL     1      -2.703   5.633   1.171  0.00  0.00    -0.028 A 
ATOM     32  C   UNL     1      -2.552   6.436   0.058  0.00  0.00    +0.005 A 
ATOM     33  C   UNL     1      -3.511   6.426  -0.939  0.00  0.00    +0.001 A 
ATOM     34  C   UNL     1      -4.620   5.608  -0.827  0.00  0.00    +0.005 A 
ATOM     35  C   UNL     1      -4.774   4.798   0.282  0.00  0.00    -0.028 A 
ATOM     36  C   UNL     1      -3.813   4.807   1.285  0.00  0.00    +0.054 A 
ATOM     37  C   UNL     1      -5.984   3.908   0.403  0.00  0.00    +0.046 C 
ENDBRANCH  28  36
ENDBRANCH  25  28
ENDBRANCH   1  25
TORSDOF 6
