REMARK  Name = ZINC39992163
REMARK  10 active torsions:
REMARK  status: ('A' for Active; 'I' for Inactive)
REMARK    1  A    between atoms: C_1  and  C_2
REMARK    2  A    between atoms: C_2  and  N_3
REMARK    3  A    between atoms: C_4  and  C_6
REMARK    4  A    between atoms: C_10  and  N_11
REMARK    5  A    between atoms: C_12  and  C_14
REMARK    6  A    between atoms: C_14  and  C_25
REMARK    7  A    between atoms: C_15  and  C_16
REMARK    8  A    between atoms: C_18  and  C_24
REMARK    9  A    between atoms: C_19  and  O_23
REMARK   10  A    between atoms: C_20  and  C_22
REMARK                            x       y       z     vdW  Elec       q    Type
REMARK                         _______ _______ _______ _____ _____    ______ ____
ROOT
ATOM      1  N   UNL     1       3.870  -2.030   1.573  0.00  0.00    -0.275 N 
ATOM      2  C   UNL     1       5.177  -2.319   1.731  0.00  0.00    +0.259 C 
ATOM      3  O   UNL     1       5.627  -2.514   2.845  0.00  0.00    -0.269 OA
ATOM      4  H   UNL     1       3.511  -1.875   0.685  0.00  0.00    +0.156 HD
ENDROOT
BRANCH   1   9
ATOM      5  C   UNL     1       1.681  -1.673   2.708  0.00  0.00    +0.069 A 
ATOM      6  C   UNL     1       1.033  -1.661   4.007  0.00  0.00    -0.023 A 
ATOM      7  C   UNL     1       1.861  -1.926   5.040  0.00  0.00    -0.004 A 
ATOM      8  S   UNL     1       3.444  -2.183   4.293  0.00  0.00    -0.077 S 
ATOM      9  C   UNL     1       3.039  -1.955   2.679  0.00  0.00    +0.085 A 
ATOM     10  C   UNL     1       1.499  -1.984   6.492  0.00  0.00    +0.043 C 
ATOM     11  C   UNL     1       0.123  -1.327   6.672  0.00  0.00    +0.005 C 
ATOM     12  C   UNL     1      -0.837  -1.889   5.620  0.00  0.00    +0.005 C 
ATOM     13  C   UNL     1      -0.445  -1.379   4.231  0.00  0.00    +0.037 C 
BRANCH   5  15
ATOM     14  N   UNL     1       0.824  -0.144   1.014  0.00  0.00    -0.312 N 
ATOM     15  C   UNL     1       0.931  -1.405   1.477  0.00  0.00    +0.247 C 
ATOM     16  O   UNL     1       0.404  -2.321   0.874  0.00  0.00    -0.270 OA
ATOM     17  H   UNL     1       1.244   0.587   1.495  0.00  0.00    +0.149 HD
BRANCH  14  19
ATOM     18  C   UNL     1       0.108   1.624  -0.517  0.00  0.00    +0.024 C 
ATOM     19  C   UNL     1       0.074   0.124  -0.215  0.00  0.00    +0.101 C 
ENDBRANCH  14  19
ENDBRANCH   5  15
ENDBRANCH   1   9
BRANCH   2  20
ATOM     20  C   UNL     1       6.059  -2.398   0.557  0.00  0.00    +0.114 C 
ATOM     21  C   UNL     1       7.396  -2.693   0.719  0.00  0.00    +0.032 C 
BRANCH  21  22
ATOM     22  C   UNL     1       8.308  -2.608  -0.424  0.00  0.00    -0.023 A 
ATOM     23  C   UNL     1       8.110  -1.632  -1.411  0.00  0.00    +0.015 A 
ATOM     24  C   UNL     1       8.964  -1.558  -2.474  0.00  0.00    -0.008 A 
ATOM     25  C   UNL     1      10.028  -2.448  -2.579  0.00  0.00    +0.123 A 
ATOM     26  C   UNL     1      10.229  -3.418  -1.603  0.00  0.00    -0.008 A 
ATOM     27  C   UNL     1       9.385  -3.499  -0.532  0.00  0.00    +0.015 A 
ATOM     28  C   UNL     1      11.384  -4.379  -1.725  0.00  0.00    +0.047 C 
ATOM     29  C   UNL     1       8.753  -0.510  -3.537  0.00  0.00    +0.047 C 
BRANCH  25  30
ATOM     30  O   UNL     1      10.873  -2.369  -3.638  0.00  0.00    -0.506 OA
ATOM     31  H   UNL     1      11.631  -1.786  -3.493  0.00  0.00    +0.292 HD
ENDBRANCH  25  30
ENDBRANCH  21  22
BRANCH  20  32
ATOM     32  C   UNL     1       5.530  -2.169  -0.753  0.00  0.00    +0.104 C 
ATOM     33  N   UNL     1       5.110  -1.988  -1.793  0.00  0.00    -0.191 NA
ENDBRANCH  20  32
ENDBRANCH   2  20
TORSDOF 7
