REMARK  Name = ZINC54044348
REMARK  6 active torsions:
REMARK  status: ('A' for Active; 'I' for Inactive)
REMARK    1  A    between atoms: C_4  and  C_7
REMARK    2  A    between atoms: C_7  and  C_9
REMARK    3  A    between atoms: C_7  and  N_25
REMARK    4  A    between atoms: C_9  and  N_10
REMARK    5  A    between atoms: N_13  and  N_14
REMARK    6  A    between atoms: C_15  and  C_17
REMARK                            x       y       z     vdW  Elec       q    Type
REMARK                         _______ _______ _______ _____ _____    ______ ____
ROOT
ATOM      1  N   UNL     1       5.320  -1.941   1.316  0.00  0.00    -0.299 N 
ATOM      2  C   UNL     1       5.837  -2.443   2.455  0.00  0.00    +0.316 C 
ATOM      3  O   UNL     1       5.352  -2.139   3.528  0.00  0.00    -0.251 OA
ATOM      4  N   UNL     1       6.891  -3.281   2.405  0.00  0.00    -0.218 N 
ATOM      5  H   UNL     1       5.707  -2.183   0.460  0.00  0.00    +0.150 HD
ATOM      6  H   UNL     1       7.263  -3.642   3.224  0.00  0.00    +0.174 HD
ENDROOT
BRANCH   4   7
ATOM      7  N   UNL     1       7.450  -3.631   1.168  0.00  0.00    -0.233 N 
ATOM      8  C   UNL     1       8.504  -4.469   1.118  0.00  0.00    +0.234 C 
ATOM      9  O   UNL     1       8.969  -4.920   2.143  0.00  0.00    -0.274 OA
ATOM     10  H   UNL     1       7.078  -3.269   0.348  0.00  0.00    +0.173 HD
BRANCH   8  11
ATOM     11  C   UNL     1       9.105  -4.845  -0.212  0.00  0.00    +0.099 C 
ATOM     12  C   UNL     1       9.614  -3.578  -0.919  0.00  0.00    +0.037 C 
ATOM     13  C   UNL     1      10.498  -4.016  -2.121  0.00  0.00    +0.166 C 
ATOM     14  S   UNL     1      11.420  -5.422  -1.368  0.00  0.00    -0.030 S 
ATOM     15  O   UNL     1      11.441  -6.506  -2.286  0.00  0.00    -0.174 OA
ATOM     16  O   UNL     1      12.642  -4.937  -0.829  0.00  0.00    -0.174 OA
ATOM     17  C   UNL     1      10.278  -5.829   0.014  0.00  0.00    +0.178 C 
ENDBRANCH   8  11
ENDBRANCH   4   7
BRANCH   1  18
ATOM     18  C   UNL     1       4.174  -1.030   1.370  0.00  0.00    +0.095 C 
BRANCH  18  19
ATOM     19  C   UNL     1       3.870  -0.508  -0.035  0.00  0.00    -0.020 C 
BRANCH  19  23
ATOM     20  C   UNL     1       7.127   1.897  -1.399  0.00  0.00    +0.000 A 
ATOM     21  C   UNL     1       7.011   0.586  -1.822  0.00  0.00    +0.000 A 
ATOM     22  C   UNL     1       5.957  -0.192  -1.381  0.00  0.00    +0.002 A 
ATOM     23  C   UNL     1       5.019   0.340  -0.516  0.00  0.00    -0.059 A 
ATOM     24  C   UNL     1       5.136   1.651  -0.092  0.00  0.00    +0.002 A 
ATOM     25  C   UNL     1       6.189   2.430  -0.535  0.00  0.00    +0.000 A 
ENDBRANCH  19  23
BRANCH  19  26
ATOM     26  N   UNL     1       2.644   0.301  -0.003  0.00  0.00    +0.385 N 
ATOM     27  C   UNL     1       2.327   0.805  -1.364  0.00  0.00    -0.078 C 
ATOM     28  C   UNL     1       0.811   1.116  -1.282  0.00  0.00    -0.020 C 
ATOM     29  C   UNL     1       0.271  -0.029  -0.394  0.00  0.00    -0.020 C 
ATOM     30  C   UNL     1       1.492  -0.535   0.397  0.00  0.00    -0.078 C 
ATOM     31  H   UNL     1       2.753   1.073   0.638  0.00  0.00    -0.081 HD
ENDBRANCH  19  26
ENDBRANCH  18  19
ENDBRANCH   1  18
TORSDOF 6
