REMARK  Name = ZINC63732064
REMARK  13 active torsions:
REMARK  status: ('A' for Active; 'I' for Inactive)
REMARK    1  A    between atoms: C_1  and  C_2
REMARK    2  A    between atoms: C_2  and  C_3
REMARK    3  A    between atoms: C_6  and  C_9
REMARK    4  A    between atoms: C_9  and  C_11
REMARK    5  A    between atoms: C_11  and  O_12
REMARK    6  A    between atoms: O_12  and  C_13
REMARK    7  A    between atoms: C_13  and  C_15
REMARK    8  A    between atoms: C_15  and  C_17
REMARK    9  A    between atoms: C_15  and  N_27
REMARK   10  A    between atoms: C_17  and  C_18
REMARK   11  A    between atoms: C_28  and  C_30
REMARK   12  A    between atoms: C_33  and  C_36
REMARK   13  A    between atoms: C_36  and  C_37
REMARK                            x       y       z     vdW  Elec       q    Type
REMARK                         _______ _______ _______ _____ _____    ______ ____
ROOT
ATOM      1  C   UNL     1       6.570  -3.323  -7.536  0.00  0.00    +0.186 C 
ENDROOT
BRANCH   1   2
ATOM      2  N   UNL     1       8.033  -3.244  -7.504  0.00  0.00    -0.298 N 
ATOM      3  C   UNL     1       8.761  -3.852  -8.461  0.00  0.00    +0.245 C 
ATOM      4  O   UNL     1       8.205  -4.465  -9.351  0.00  0.00    -0.270 OA
ATOM      5  H   UNL     1       8.477  -2.755  -6.794  0.00  0.00    +0.150 HD
BRANCH   3   6
ATOM      6  C   UNL     1      10.237  -3.773  -8.429  0.00  0.00    +0.037 A 
ATOM      7  C   UNL     1      10.880  -3.074  -7.405  0.00  0.00    +0.013 A 
ATOM      8  C   UNL     1      12.257  -3.005  -7.381  0.00  0.00    +0.004 A 
ATOM      9  C   UNL     1      13.002  -3.625  -8.368  0.00  0.00    -0.048 A 
ATOM     10  C   UNL     1      12.371  -4.318  -9.386  0.00  0.00    +0.004 A 
ATOM     11  C   UNL     1      10.995  -4.401  -9.419  0.00  0.00    +0.013 A 
BRANCH   9  12
ATOM     12  C   UNL     1      14.506  -3.544  -8.335  0.00  0.00    +0.032 C 
ATOM     13  C   UNL     1      15.063  -4.721  -7.532  0.00  0.00    +0.009 C 
ENDBRANCH   9  12
ENDBRANCH   3   6
ENDBRANCH   1   2
BRANCH   1  14
ATOM     14  C   UNL     1       6.029  -3.193  -6.135  0.00  0.00    +0.328 C 
ATOM     15  O   UNL     1       6.788  -3.049  -5.206  0.00  0.00    -0.249 OA
BRANCH  14  16
ATOM     16  O   UNL     1       4.705  -3.236  -5.920  0.00  0.00    -0.455 OA
BRANCH  16  17
ATOM     17  C   UNL     1       4.263  -3.107  -4.568  0.00  0.00    +0.311 C 
BRANCH  17  18
ATOM     18  C   UNL     1       2.758  -3.178  -4.522  0.00  0.00    +0.200 C 
ATOM     19  O   UNL     1       2.127  -3.326  -5.547  0.00  0.00    -0.288 OA
BRANCH  18  23
ATOM     20  C   UNL     1       0.731  -2.865  -0.810  0.00  0.00    -0.048 A 
ATOM     21  C   UNL     1       0.007  -3.033  -1.977  0.00  0.00    +0.004 A 
ATOM     22  C   UNL     1       0.659  -3.135  -3.188  0.00  0.00    +0.012 A 
ATOM     23  C   UNL     1       2.055  -3.069  -3.234  0.00  0.00    +0.021 A 
ATOM     24  C   UNL     1       2.779  -2.899  -2.050  0.00  0.00    +0.012 A 
ATOM     25  C   UNL     1       2.113  -2.793  -0.848  0.00  0.00    +0.004 A 
BRANCH  20  27
ATOM     26  C   UNL     1      -0.312  -1.286   0.793  0.00  0.00    +0.009 C 
ATOM     27  C   UNL     1       0.011  -2.754   0.510  0.00  0.00    +0.032 C 
ENDBRANCH  20  27
ENDBRANCH  18  23
ENDBRANCH  17  18
ENDBRANCH  16  17
ENDBRANCH  14  16
ENDBRANCH   1  14
BRANCH   1  28
ATOM     28  C   UNL     1       6.018  -2.190  -8.403  0.00  0.00    +0.067 C 
BRANCH  28  29
ATOM     29  C   UNL     1       6.479  -0.865  -7.853  0.00  0.00    -0.039 C 
ATOM     30  C   UNL     1       7.566  -0.158  -8.241  0.00  0.00    -0.001 A 
ATOM     31  C   UNL     1       8.603  -0.402  -9.250  0.00  0.00    +0.010 A 
ATOM     32  C   UNL     1       9.588   0.510  -9.412  0.00  0.00    +0.001 A 
ATOM     33  C   UNL     1       9.644   1.680  -8.641  0.00  0.00    +0.002 A 
ATOM     34  C   UNL     1       8.727   1.973  -7.694  0.00  0.00    +0.026 A 
ATOM     35  C   UNL     1       7.646   1.085  -7.440  0.00  0.00    +0.043 A 
ATOM     36  N   UNL     1       6.649   1.143  -6.591  0.00  0.00    -0.380 N 
ATOM     37  C   UNL     1       5.819  -0.054  -6.761  0.00  0.00    +0.144 C 
ATOM     38  H   UNL     1       6.486   1.861  -5.959  0.00  0.00    +0.160 HD
ENDBRANCH  28  29
ENDBRANCH   1  28
TORSDOF 11
