REMARK  Name = ZINC04423335
REMARK  5 active torsions:
REMARK  status: ('A' for Active; 'I' for Inactive)
REMARK    1  A    between atoms: C_1  and  C_2
REMARK    2  A    between atoms: C_4  and  C_23
REMARK    3  A    between atoms: C_5  and  O_22
REMARK    4  A    between atoms: C_6  and  C_8
REMARK    5  A    between atoms: C_11  and  C_14
REMARK                            x       y       z     vdW  Elec       q    Type
REMARK                         _______ _______ _______ _____ _____    ______ ____
ROOT
ATOM      1  C   UNL     1       0.051  -2.841   2.458  0.00  0.00    +0.072 C 
ATOM      2  N   UNL     1       0.073  -4.124   2.565  0.00  0.00    -0.190 NA
ATOM      3  N   UNL     1       0.084  -4.586   3.880  0.00  0.00    -0.261 N 
ATOM      4  C   UNL     1       0.065  -3.430   4.790  0.00  0.00    +0.128 C 
ATOM      5  C   UNL     1       0.049  -2.219   3.836  0.00  0.00    +0.086 C 
ATOM      6  H   UNL     1       0.100  -5.517   4.151  0.00  0.00    +0.169 HD
ENDROOT
BRANCH   1  12
ATOM      7  C   UNL     1      -0.018   1.503   0.010  0.00  0.00    +0.044 C 
ATOM      8  C   UNL     1       0.002  -0.004   0.002  0.00  0.00    -0.049 A 
ATOM      9  C   UNL     1       0.006  -0.687  -1.202  0.00  0.00    +0.010 A 
ATOM     10  C   UNL     1       0.024  -2.069  -1.222  0.00  0.00    -0.008 A 
ATOM     11  C   UNL     1       0.039  -2.780  -0.034  0.00  0.00    +0.129 A 
ATOM     12  C   UNL     1       0.036  -2.094   1.187  0.00  0.00    +0.040 A 
ATOM     13  C   UNL     1       0.023  -0.697   1.194  0.00  0.00    +0.016 A 
ATOM     14  C   UNL     1       0.028  -2.803  -2.538  0.00  0.00    +0.047 C 
BRANCH  11  15
ATOM     15  O   UNL     1       0.057  -4.139  -0.052  0.00  0.00    -0.506 OA
ATOM     16  H   UNL     1       0.945  -4.520  -0.062  0.00  0.00    +0.292 HD
ENDBRANCH  11  15
ENDBRANCH   1  12
BRANCH   4  17
ATOM     17  C   UNL     1      -1.171  -3.453   5.652  0.00  0.00    +0.011 A 
ATOM     18  C   UNL     1      -2.398  -3.763   5.094  0.00  0.00    +0.047 A 
ATOM     19  C   UNL     1      -3.533  -3.784   5.886  0.00  0.00    +0.020 A 
ATOM     20  C   UNL     1      -3.440  -3.496   7.234  0.00  0.00    +0.003 A 
ATOM     21  C   UNL     1      -2.214  -3.187   7.793  0.00  0.00    +0.020 A 
ATOM     22  C   UNL     1      -1.078  -3.171   7.003  0.00  0.00    +0.047 A 
ATOM     23 CL   UNL     1       0.463  -2.790   7.706  0.00  0.00    -0.083 Cl
ATOM     24 CL   UNL     1      -2.515  -4.123   3.400  0.00  0.00    -0.083 Cl
ENDBRANCH   4  17
TORSDOF 3
