REMARK  Name = ZINC35179484
REMARK  4 active torsions:
REMARK  status: ('A' for Active; 'I' for Inactive)
REMARK    1  A    between atoms: C_3  and  S_17
REMARK    2  A    between atoms: C_6  and  N_7
REMARK    3  A    between atoms: C_8  and  C_10
REMARK    4  A    between atoms: S_17  and  N_20
REMARK                            x       y       z     vdW  Elec       q    Type
REMARK                         _______ _______ _______ _____ _____    ______ ____
ROOT
ATOM      1  C   UNL     1      -0.013   1.374   0.194  0.00  0.00    +0.025 A 
ATOM      2  C   UNL     1       1.174   2.082   0.191  0.00  0.00    +0.030 A 
ATOM      3  C   UNL     1       2.374   1.421   0.002  0.00  0.00    +0.105 A 
ATOM      4  C   UNL     1       2.391   0.051  -0.183  0.00  0.00    +0.030 A 
ATOM      5  C   UNL     1       1.208  -0.662  -0.182  0.00  0.00    +0.025 A 
ATOM      6  C   UNL     1       0.001  -0.002   0.007  0.00  0.00    +0.034 A 
ENDROOT
BRANCH   6   7
ATOM      7  N   UNL     1      -1.198  -0.721   0.010  0.00  0.00    -0.280 N 
ATOM      8  C   UNL     1      -2.324  -0.156  -0.469  0.00  0.00    +0.265 C 
ATOM      9  O   UNL     1      -2.279   0.942  -0.992  0.00  0.00    -0.268 OA
ATOM     10  H   UNL     1      -1.220  -1.627   0.357  0.00  0.00    +0.155 HD
BRANCH   8  11
ATOM     11  C   UNL     1      -3.604  -0.864  -0.361  0.00  0.00    +0.103 A 
ATOM     12  C   UNL     1      -4.826  -0.412  -0.810  0.00  0.00    +0.047 A 
ATOM     13  C   UNL     1      -5.768  -1.399  -0.503  0.00  0.00    +0.036 A 
ATOM     14  C   UNL     1      -5.119  -2.415   0.115  0.00  0.00    +0.098 A 
ATOM     15  N   UNL     1      -3.802  -2.105   0.202  0.00  0.00    -0.356 N 
ATOM     16  H   UNL     1      -3.114  -2.663   0.598  0.00  0.00    +0.165 HD
ATOM     17 BR   UNL     1      -7.620  -1.328  -0.882  0.00  0.00    -0.049 Br
ENDBRANCH   8  11
ENDBRANCH   6   7
BRANCH   3  18
ATOM     18  S   UNL     1       3.885   2.327  -0.002  0.00  0.00    +0.056 S 
ATOM     19  O   UNL     1       4.820   1.554  -0.741  0.00  0.00    -0.153 OA
ATOM     20  O   UNL     1       3.556   3.664  -0.352  0.00  0.00    -0.153 OA
BRANCH  18  21
ATOM     21  N   UNL     1       4.435   2.369   1.560  0.00  0.00    -0.204 NA
ATOM     22  H   UNL     1       5.387   2.412   1.737  0.00  0.00    +0.144 HD
ATOM     23  H   UNL     1       3.804   2.352   2.297  0.00  0.00    +0.144 HD
ENDBRANCH  18  21
ENDBRANCH   3  18
TORSDOF 4
