REMARK  Name = ZINC14670240
REMARK  11 active torsions:
REMARK  status: ('A' for Active; 'I' for Inactive)
REMARK    1  A    between atoms: C_1  and  C_2
REMARK    2  A    between atoms: C_2  and  C_3
REMARK    3  A    between atoms: C_3  and  C_4
REMARK    4  A    between atoms: C_4  and  N_5
REMARK    5  A    between atoms: C_6  and  N_31
REMARK    6  A    between atoms: C_7  and  N_14
REMARK    7  A    between atoms: N_14  and  C_15
REMARK    8  A    between atoms: C_15  and  C_16
REMARK    9  A    between atoms: C_16  and  C_17
REMARK   10  A    between atoms: C_16  and  C_18
REMARK   11  A    between atoms: C_19  and  C_21
REMARK                            x       y       z     vdW  Elec       q    Type
REMARK                         _______ _______ _______ _____ _____    ______ ____
ROOT
ATOM      1  N   UNL     1       5.032  -3.369   3.579  0.00  0.00    -0.260 N 
ATOM      2  C   UNL     1       5.776  -3.034   2.506  0.00  0.00    +0.258 C 
ATOM      3  O   UNL     1       6.990  -3.100   2.563  0.00  0.00    -0.269 OA
ENDROOT
BRANCH   2   4
ATOM      4  C   UNL     1       5.123  -2.588   1.272  0.00  0.00    +0.075 A 
ATOM      5  C   UNL     1       5.693  -2.204   0.074  0.00  0.00    +0.024 A 
ATOM      6  C   UNL     1       4.825  -1.823  -0.946  0.00  0.00    -0.036 A 
ATOM      7  C   UNL     1       3.498  -1.865  -0.659  0.00  0.00    -0.006 A 
ATOM      8  S   UNL     1       3.385  -2.409   0.920  0.00  0.00    -0.088 S 
ATOM      9  C   UNL     1       2.351  -1.506  -1.557  0.00  0.00    +0.043 C 
ATOM     10  C   UNL     1       2.750  -1.750  -3.017  0.00  0.00    +0.005 C 
ATOM     11  C   UNL     1       3.390  -0.479  -3.566  0.00  0.00    +0.001 C 
ATOM     12  C   UNL     1       4.643  -0.122  -2.771  0.00  0.00    +0.005 C 
ATOM     13  C   UNL     1       5.358  -1.386  -2.306  0.00  0.00    +0.036 C 
ENDBRANCH   2   4
BRANCH   1  16
ATOM     14  N   UNL     1       1.696  -1.905   4.060  0.00  0.00    -0.280 N 
ATOM     15  C   UNL     1       3.063  -2.055   4.102  0.00  0.00    +0.127 A 
ATOM     16  C   UNL     1       3.633  -3.185   3.552  0.00  0.00    +0.140 A 
ATOM     17  C   UNL     1       2.796  -4.152   2.965  0.00  0.00    +0.277 A 
ATOM     18  O   UNL     1       3.273  -5.160   2.472  0.00  0.00    -0.266 OA
ATOM     19  N   UNL     1       1.463  -3.956   2.950  0.00  0.00    -0.273 N 
ATOM     20  H   UNL     1       0.885  -4.622   2.545  0.00  0.00    +0.173 HD
ATOM     21  C   UNL     1       0.924  -2.851   3.495  0.00  0.00    +0.331 A 
ATOM     22  O   UNL     1      -0.282  -2.702   3.473  0.00  0.00    -0.246 OA
BRANCH  15  23
ATOM     23  N   UNL     1       3.851  -1.091   4.683  0.00  0.00    -0.343 N 
ATOM     24  H   UNL     1       3.451  -0.269   5.008  0.00  0.00    +0.144 HD
ATOM     25  H   UNL     1       4.807  -1.233   4.770  0.00  0.00    +0.144 HD
ENDBRANCH  15  23
BRANCH  14  26
ATOM     26  C   UNL     1       1.077  -0.710   4.639  0.00  0.00    +0.128 C 
BRANCH  26  27
ATOM     27  C   UNL     1       0.755  -0.967   6.113  0.00  0.00    +0.021 C 
BRANCH  27  29
ATOM     28  C   UNL     1      -0.214   0.025   8.192  0.00  0.00    +0.004 C 
ATOM     29  C   UNL     1       0.108   0.281   6.718  0.00  0.00    -0.002 C 
ENDBRANCH  27  29
ENDBRANCH  26  27
ENDBRANCH  14  26
ENDBRANCH   1  16
BRANCH   1  30
ATOM     30  C   UNL     1       5.675  -3.923   4.773  0.00  0.00    +0.117 C 
BRANCH  30  31
ATOM     31  C   UNL     1       5.635  -5.451   4.711  0.00  0.00    +0.001 C 
ATOM     32  C   UNL     1       6.516  -5.938   3.559  0.00  0.00    +0.009 C 
ATOM     33  C   UNL     1       6.154  -6.029   6.029  0.00  0.00    +0.009 C 
ENDBRANCH  30  31
ENDBRANCH   1  30
TORSDOF 8
