REMARK  Name = ZINC44243875
REMARK  5 active torsions:
REMARK  status: ('A' for Active; 'I' for Inactive)
REMARK    1  A    between atoms: C_2  and  S_8
REMARK    2  A    between atoms: S_8  and  N_11
REMARK    3  A    between atoms: N_11  and  C_12
REMARK    4  A    between atoms: C_12  and  C_18
REMARK    5  A    between atoms: N_19  and  O_20
REMARK                            x       y       z     vdW  Elec       q    Type
REMARK                         _______ _______ _______ _____ _____    ______ ____
ROOT
ATOM      1  C   UNL     1       2.232   4.076   2.445  0.00  0.00    +0.098 C 
ATOM      2  C   UNL     1       3.439   4.889   1.972  0.00  0.00    +0.031 C 
ATOM      3  C   UNL     1       3.064   6.371   1.911  0.00  0.00    +0.002 C 
ATOM      4  C   UNL     1       2.642   6.848   3.302  0.00  0.00    +0.000 C 
ATOM      5  C   UNL     1       1.435   6.035   3.775  0.00  0.00    +0.002 C 
ATOM      6  C   UNL     1       1.810   4.553   3.836  0.00  0.00    +0.031 C 
ENDROOT
BRANCH   1   7
ATOM      7  C   UNL     1       2.602   2.616   2.505  0.00  0.00    +0.153 C 
ATOM      8  N   UNL     1       1.683   1.724   2.671  0.00  0.00    -0.075 NA
ATOM      9  N   UNL     1       3.919   2.234   2.382  0.00  0.00    -0.342 N 
ATOM     10  H   UNL     1       4.617   2.906   2.334  0.00  0.00    +0.144 HD
ATOM     11  H   UNL     1       4.149   1.292   2.345  0.00  0.00    +0.144 HD
BRANCH   8  12
ATOM     12  O   UNL     1       0.323   2.113   2.744  0.00  0.00    -0.408 OA
ATOM     13  H   UNL     1      -0.291   1.376   2.870  0.00  0.00    +0.328 HD
ENDBRANCH   8  12
ENDBRANCH   1   7
BRANCH   1  14
ATOM     14  N   UNL     1       1.121   4.261   1.508  0.00  0.00    -0.177 NA
ATOM     15  H   UNL     1       0.255   4.551   1.833  0.00  0.00    +0.149 HD
BRANCH  14  16
ATOM     16  S   UNL     1       1.345   3.974  -0.108  0.00  0.00    +0.061 S 
ATOM     17  O   UNL     1       2.503   4.702  -0.493  0.00  0.00    -0.153 OA
ATOM     18  O   UNL     1       0.083   4.165  -0.733  0.00  0.00    -0.153 OA
BRANCH  16  20
ATOM     19  C   UNL     1       0.735   1.315  -0.341  0.00  0.00    +0.046 A 
ATOM     20  C   UNL     1       1.742   2.266  -0.284  0.00  0.00    +0.124 A 
ATOM     21  C   UNL     1       3.059   1.859  -0.369  0.00  0.00    +0.139 A 
ATOM     22  N   UNL     1       3.364   0.583  -0.501  0.00  0.00    -0.260 NA
ATOM     23  C   UNL     1       2.434  -0.350  -0.558  0.00  0.00    +0.126 A 
ATOM     24  C   UNL     1       1.094  -0.018  -0.481  0.00  0.00    +0.038 A 
ATOM     25 BR   UNL     1      -0.232  -1.364  -0.563  0.00  0.00    -0.049 Br
ENDBRANCH  16  20
ENDBRANCH  14  16
ENDBRANCH   1  14
TORSDOF 5
