REMARK  Name = ZINC40986366
REMARK  9 active torsions:
REMARK  status: ('A' for Active; 'I' for Inactive)
REMARK    1  A    between atoms: C_1  and  C_2
REMARK    2  A    between atoms: C_5  and  C_8
REMARK    3  A    between atoms: C_8  and  S_9
REMARK    4  A    between atoms: S_9  and  C_12
REMARK    5  A    between atoms: C_15  and  C_19
REMARK    6  A    between atoms: N_21  and  C_22
REMARK    7  A    between atoms: C_22  and  C_23
REMARK    8  A    between atoms: C_23  and  C_25
REMARK    9  A    between atoms: C_23  and  N_30
REMARK                            x       y       z     vdW  Elec       q    Type
REMARK                         _______ _______ _______ _____ _____    ______ ____
ROOT
ATOM      1  C   UNL     1       1.491  -6.618  -0.065  0.00  0.00    +0.272 A 
ATOM      2  N   UNL     1       1.308  -7.260   1.072  0.00  0.00    -0.219 NA
ATOM      3  C   UNL     1       1.330  -8.581   1.120  0.00  0.00    +0.130 A 
ATOM      4  C   UNL     1       1.550  -9.297  -0.061  0.00  0.00    +0.092 A 
ATOM      5  C   UNL     1       1.740  -8.574  -1.247  0.00  0.00    +0.146 A 
ATOM      6  N   UNL     1       1.697  -7.252  -1.202  0.00  0.00    -0.199 NA
ATOM      7 CL   UNL     1       2.018  -9.399  -2.749  0.00  0.00    -0.061 Cl
ENDROOT
BRANCH   4   8
ATOM      8  C   UNL     1       1.584 -10.775  -0.059  0.00  0.00    +0.248 C 
ATOM      9  O   UNL     1       1.777 -11.380  -1.095  0.00  0.00    -0.270 OA
ATOM     10  N   UNL     1       1.400 -11.451   1.092  0.00  0.00    -0.312 N 
ATOM     11  H   UNL     1       1.246 -10.968   1.919  0.00  0.00    +0.149 HD
BRANCH  10  12
ATOM     12  C   UNL     1       1.433 -12.916   1.095  0.00  0.00    +0.094 C 
BRANCH  12  13
ATOM     13  C   UNL     1       1.331 -13.426   2.534  0.00  0.00    -0.013 C 
BRANCH  13  14
ATOM     14  N   UNL     1       1.233 -14.891   2.528  0.00  0.00    +0.386 N 
ATOM     15  C   UNL     1       1.113 -15.402   3.917  0.00  0.00    -0.078 C 
ATOM     16  C   UNL     1       0.470 -16.799   3.727  0.00  0.00    -0.020 C 
ATOM     17  C   UNL     1      -0.524 -16.567   2.565  0.00  0.00    -0.020 C 
ATOM     18  C   UNL     1      -0.002 -15.317   1.833  0.00  0.00    -0.078 C 
ATOM     19  H   UNL     1       2.041 -15.293   2.077  0.00  0.00    -0.081 HD
ENDBRANCH  13  14
BRANCH  13  20
ATOM     20  C   UNL     1       2.558 -13.008   3.303  0.00  0.00    -0.022 A 
ATOM     21  C   UNL     1       2.712 -11.977   4.170  0.00  0.00    +0.009 A 
ATOM     22  C   UNL     1       3.943 -11.782   4.766  0.00  0.00    +0.008 A 
ATOM     23  C   UNL     1       4.961 -12.626   4.466  0.00  0.00    +0.045 A 
ATOM     24  S   UNL     1       4.184 -13.745   3.313  0.00  0.00    -0.103 S 
ENDBRANCH  13  20
ENDBRANCH  12  13
ENDBRANCH  10  12
ENDBRANCH   4   8
BRANCH   1  25
ATOM     25  S   UNL     1       1.451  -4.857  -0.066  0.00  0.00    +0.036 S 
ATOM     26  O   UNL     1       2.242  -4.477  -1.184  0.00  0.00    -0.166 OA
ATOM     27  O   UNL     1       1.832  -4.485   1.251  0.00  0.00    -0.166 OA
BRANCH  25  28
ATOM     28  C   UNL     1      -0.288  -4.430  -0.358  0.00  0.00    +0.210 C 
BRANCH  28  33
ATOM     29  C   UNL     1      -0.877   1.318  -0.439  0.00  0.00    +0.044 C 
ATOM     30  C   UNL     1      -0.723  -0.181  -0.418  0.00  0.00    -0.050 A 
ATOM     31  C   UNL     1      -0.453  -0.865  -1.588  0.00  0.00    +0.003 A 
ATOM     32  C   UNL     1      -0.312  -2.240  -1.569  0.00  0.00    +0.005 A 
ATOM     33  C   UNL     1      -0.441  -2.931  -0.379  0.00  0.00    -0.026 A 
ATOM     34  C   UNL     1      -0.710  -2.247   0.792  0.00  0.00    +0.005 A 
ATOM     35  C   UNL     1      -0.847  -0.872   0.773  0.00  0.00    +0.003 A 
ENDBRANCH  28  33
ENDBRANCH  25  28
ENDBRANCH   1  25
TORSDOF 8
