REMARK  Name = ZINC11847704
REMARK  4 active torsions:
REMARK  status: ('A' for Active; 'I' for Inactive)
REMARK    1  A    between atoms: C_1  and  C_2
REMARK    2  A    between atoms: C_5  and  S_7
REMARK    3  A    between atoms: S_7  and  N_10
REMARK    4  A    between atoms: C_18  and  N_20
REMARK                            x       y       z     vdW  Elec       q    Type
REMARK                         _______ _______ _______ _____ _____    ______ ____
ROOT
ATOM      1  N   UNL     1       0.626  -0.438  -1.256  0.00  0.00    -0.202 N 
ATOM      2  C   UNL     1      -0.027   0.032  -0.026  0.00  0.00    +0.132 C 
ATOM      3  C   UNL     1      -0.012   1.566  -0.044  0.00  0.00    +0.025 C 
ATOM      4  C   UNL     1       1.438   2.047  -0.018  0.00  0.00    +0.039 C 
ATOM      5  C   UNL     1       2.240   1.365  -1.095  0.00  0.00    -0.023 A 
ATOM      6  C   UNL     1       1.823   0.171  -1.662  0.00  0.00    +0.055 A 
ATOM      7  C   UNL     1       2.590  -0.440  -2.647  0.00  0.00    +0.027 A 
ATOM      8  C   UNL     1       3.769   0.142  -3.067  0.00  0.00    +0.024 A 
ATOM      9  C   UNL     1       4.187   1.340  -2.504  0.00  0.00    +0.025 A 
ATOM     10  C   UNL     1       3.422   1.948  -1.520  0.00  0.00    +0.028 A 
ENDROOT
BRANCH   1  11
ATOM     11  S   UNL     1      -0.040  -1.664  -2.147  0.00  0.00    +0.081 S 
ATOM     12  O   UNL     1      -1.387  -1.795  -1.715  0.00  0.00    -0.149 OA
ATOM     13  O   UNL     1       0.305  -1.415  -3.502  0.00  0.00    -0.149 OA
BRANCH  11  18
ATOM     14  C   UNL     1       3.354  -6.439  -1.319  0.00  0.00    +0.051 C 
ATOM     15  C   UNL     1       2.342  -5.322  -1.321  0.00  0.00    -0.011 A 
ATOM     16  C   UNL     1       1.266  -5.145  -0.516  0.00  0.00    +0.013 A 
ATOM     17  C   UNL     1       0.467  -4.032  -0.702  0.00  0.00    +0.037 A 
ATOM     18  C   UNL     1       0.783  -3.152  -1.682  0.00  0.00    +0.146 A 
ATOM     19  S   UNL     1       2.247  -3.893  -2.386  0.00  0.00    -0.073 S 
ENDBRANCH  11  18
ENDBRANCH   1  11
BRANCH   9  20
ATOM     20  N   UNL     1       5.382   1.934  -2.928  0.00  0.00    -0.358 N 
ATOM     21  H   UNL     1       5.917   1.509  -3.616  0.00  0.00    +0.142 HD
ATOM     22  H   UNL     1       5.674   2.772  -2.534  0.00  0.00    +0.142 HD
ENDBRANCH   9  20
TORSDOF 3
