REMARK  Name = ZINC44713607
REMARK  8 active torsions:
REMARK  status: ('A' for Active; 'I' for Inactive)
REMARK    1  A    between atoms: C_1  and  C_2
REMARK    2  A    between atoms: C_5  and  C_8
REMARK    3  A    between atoms: C_12  and  C_21
REMARK    4  A    between atoms: N_23  and  C_24
REMARK    5  A    between atoms: C_24  and  C_26
REMARK    6  A    between atoms: C_24  and  C_27
REMARK    7  A    between atoms: C_28  and  C_34
REMARK    8  A    between atoms: C_32  and  C_33
REMARK                            x       y       z     vdW  Elec       q    Type
REMARK                         _______ _______ _______ _____ _____    ______ ____
ROOT
ATOM      1  C   UNL     1       0.049  -4.252  -0.028  0.00  0.00    +0.247 C 
ATOM      2  O   UNL     1      -0.067  -4.855  -1.077  0.00  0.00    -0.270 OA
ATOM      3  N   UNL     1       0.164  -4.930   1.130  0.00  0.00    -0.296 N 
ATOM      4  C   UNL     1       0.182  -4.382   2.507  0.00  0.00    +0.121 C 
ATOM      5  C   UNL     1      -0.641  -5.389   3.340  0.00  0.00    +0.100 C 
ATOM      6  C   UNL     1      -0.558  -6.709   2.554  0.00  0.00    -0.004 C 
ATOM      7  C   UNL     1       0.295  -6.396   1.316  0.00  0.00    +0.115 C 
ATOM      8  C   UNL     1      -1.952  -7.159   2.127  0.00  0.00    -0.010 C 
ATOM      9  C   UNL     1      -1.849  -8.501   1.397  0.00  0.00    -0.082 C 
ATOM     10  N   UNL     1      -1.242  -9.498   2.287  0.00  0.00    +0.379 N 
ATOM     11  C   UNL     1       0.133  -9.104   2.618  0.00  0.00    -0.082 C 
ATOM     12  C   UNL     1       0.113  -7.787   3.400  0.00  0.00    -0.010 C 
ATOM     13  H   UNL     1      -1.785  -9.565   3.135  0.00  0.00    -0.086 HD
ATOM     14  H   UNL     1      -1.231 -10.396   1.826  0.00  0.00    -0.086 HD
ENDROOT
BRANCH   1  19
ATOM     15  C   UNL     1       0.104   1.503  -0.008  0.00  0.00    +0.044 C 
ATOM     16  C   UNL     1       0.089  -0.004  -0.013  0.00  0.00    -0.050 A 
ATOM     17  C   UNL     1      -0.526  -0.683  -1.050  0.00  0.00    +0.004 A 
ATOM     18  C   UNL     1      -0.542  -2.063  -1.061  0.00  0.00    +0.013 A 
ATOM     19  C   UNL     1       0.063  -2.773  -0.023  0.00  0.00    +0.037 A 
ATOM     20  C   UNL     1       0.682  -2.082   1.019  0.00  0.00    +0.013 A 
ATOM     21  C   UNL     1       0.696  -0.702   1.015  0.00  0.00    +0.004 A 
ENDBRANCH   1  19
BRANCH   5  22
ATOM     22  C   UNL     1      -0.038  -5.554   4.711  0.00  0.00    +0.219 C 
ATOM     23  O   UNL     1       1.141  -5.329   4.885  0.00  0.00    -0.275 OA
ATOM     24  N   UNL     1      -0.809  -5.950   5.743  0.00  0.00    -0.308 N 
ATOM     25  H   UNL     1      -1.752  -6.129   5.603  0.00  0.00    +0.149 HD
BRANCH  24  26
ATOM     26  C   UNL     1      -0.222  -6.110   7.076  0.00  0.00    +0.104 C 
ATOM     27  C   UNL     1       0.301  -7.538   7.235  0.00  0.00    +0.033 C 
BRANCH  26  28
ATOM     28  C   UNL     1      -1.272  -5.840   8.122  0.00  0.00    +0.015 A 
ATOM     29  C   UNL     1      -1.146  -5.006   9.181  0.00  0.00    +0.038 A 
ATOM     30  N   UNL     1      -2.303  -5.044   9.875  0.00  0.00    -0.281 N 
ATOM     31  H   UNL     1      -2.500  -4.545  10.683  0.00  0.00    +0.189 HD
ATOM     32  N   UNL     1      -3.168  -5.930   9.222  0.00  0.00    -0.179 NA
ATOM     33  C   UNL     1      -2.552  -6.402   8.168  0.00  0.00    +0.065 A 
ATOM     34  C   UNL     1      -3.121  -7.385   7.178  0.00  0.00    +0.068 C 
ATOM     35  C   UNL     1       0.069  -4.182   9.523  0.00  0.00    +0.065 C 
ENDBRANCH  26  28
ENDBRANCH  24  26
ENDBRANCH   5  22
TORSDOF 4
