REMARK  Name = ZINC38595940
REMARK  9 active torsions:
REMARK  status: ('A' for Active; 'I' for Inactive)
REMARK    1  A    between atoms: C_1  and  C_2
REMARK    2  A    between atoms: C_2  and  C_4
REMARK    3  A    between atoms: C_2  and  N_24
REMARK    4  A    between atoms: C_4  and  C_6
REMARK    5  A    between atoms: C_4  and  N_11
REMARK    6  A    between atoms: N_14  and  C_17
REMARK    7  A    between atoms: C_17  and  C_18
REMARK    8  A    between atoms: C_25  and  C_27
REMARK    9  A    between atoms: C_32  and  N_33
REMARK                            x       y       z     vdW  Elec       q    Type
REMARK                         _______ _______ _______ _____ _____    ______ ____
ROOT
ATOM      1  C   UNL     1      -0.084  -0.715   0.752  0.00  0.00    +0.113 C 
ENDROOT
BRANCH   1   2
ATOM      2  N   UNL     1      -1.215  -0.424  -0.138  0.00  0.00    -0.297 NA
ATOM      3  C   UNL     1      -1.346   1.021  -0.371  0.00  0.00    +0.066 C 
ATOM      4  C   UNL     1      -2.495   1.276  -1.348  0.00  0.00    -0.063 C 
ATOM      5  N   UNL     1      -3.742   0.738  -0.788  0.00  0.00    +0.384 N 
ATOM      6  C   UNL     1      -3.605  -0.710  -0.585  0.00  0.00    -0.063 C 
ATOM      7  C   UNL     1      -2.465  -0.982   0.399  0.00  0.00    +0.066 C 
ATOM      8  H   UNL     1      -3.934   1.185   0.096  0.00  0.00    -0.081 HD
BRANCH   5   9
ATOM      9  C   UNL     1      -4.849   0.999  -1.719  0.00  0.00    -0.043 C 
BRANCH   9  10
ATOM     10  C   UNL     1      -6.146   0.558  -1.092  0.00  0.00    -0.064 A 
ATOM     11  C   UNL     1      -6.597  -0.737  -1.274  0.00  0.00    +0.002 A 
ATOM     12  C   UNL     1      -7.787  -1.141  -0.700  0.00  0.00    +0.000 A 
ATOM     13  C   UNL     1      -8.527  -0.252   0.058  0.00  0.00    +0.000 A 
ATOM     14  C   UNL     1      -8.076   1.042   0.240  0.00  0.00    +0.000 A 
ATOM     15  C   UNL     1      -6.883   1.445  -0.331  0.00  0.00    +0.002 A 
ENDBRANCH   9  10
ENDBRANCH   5   9
ENDBRANCH   1   2
BRANCH   1  16
ATOM     16  C   UNL     1      -0.014  -2.198   1.009  0.00  0.00    +0.009 A 
ATOM     17  C   UNL     1       0.262  -2.852   2.164  0.00  0.00    +0.013 A 
ATOM     18  C   UNL     1       0.270  -4.234   2.166  0.00  0.00    +0.008 A 
ATOM     19  C   UNL     1       0.002  -4.895   1.013  0.00  0.00    +0.045 A 
ATOM     20  S   UNL     1      -0.281  -3.549  -0.126  0.00  0.00    -0.100 S 
ENDBRANCH   1  16
BRANCH   1  22
ATOM     21  C   UNL     1       2.397  -0.566   1.014  0.00  0.00    +0.030 C 
ATOM     22  C   UNL     1       1.216  -0.249   0.093  0.00  0.00    +0.092 C 
BRANCH  22  23
ATOM     23  N   UNL     1       1.393  -0.945  -1.184  0.00  0.00    -0.307 N 
ATOM     24  C   UNL     1       2.137  -0.386  -2.159  0.00  0.00    +0.247 C 
ATOM     25  O   UNL     1       2.661   0.695  -1.978  0.00  0.00    -0.270 OA
ATOM     26  H   UNL     1       0.974  -1.808  -1.327  0.00  0.00    +0.149 HD
BRANCH  24  27
ATOM     27  C   UNL     1       2.315  -1.088  -3.447  0.00  0.00    +0.068 A 
ATOM     28  C   UNL     1       2.747  -2.415  -3.469  0.00  0.00    +0.035 A 
ATOM     29  C   UNL     1       2.911  -3.065  -4.676  0.00  0.00    +0.042 A 
ATOM     30  C   UNL     1       2.647  -2.403  -5.863  0.00  0.00    +0.022 A 
ATOM     31  C   UNL     1       2.219  -1.088  -5.848  0.00  0.00    +0.035 A 
ATOM     32  C   UNL     1       2.045  -0.429  -4.648  0.00  0.00    +0.138 A 
ATOM     33 CL   UNL     1       3.449  -4.715  -4.705  0.00  0.00    -0.084 Cl
BRANCH  32  34
ATOM     34  N   UNL     1       1.581   0.976  -4.634  0.00  0.00    +0.057 N 
ATOM     35  O   UNL     1       1.457   1.582  -5.672  0.00  0.00    -0.126 OA
ATOM     36  O   UNL     1       1.325   1.518  -3.583  0.00  0.00    -0.126 OA
ENDBRANCH  32  34
ENDBRANCH  24  27
ENDBRANCH  22  23
ENDBRANCH   1  22
TORSDOF 8
