REMARK  Name = ZINC40334057
REMARK  6 active torsions:
REMARK  status: ('A' for Active; 'I' for Inactive)
REMARK    1  A    between atoms: C_1  and  C_2
REMARK    2  A    between atoms: C_7  and  C_9
REMARK    3  A    between atoms: C_7  and  C_10
REMARK    4  A    between atoms: N_11  and  S_13
REMARK    5  A    between atoms: S_13  and  C_16
REMARK    6  A    between atoms: C_21  and  N_22
REMARK                            x       y       z     vdW  Elec       q    Type
REMARK                         _______ _______ _______ _____ _____    ______ ____
ROOT
ATOM      1  S   UNL     1       0.332  -2.933  -2.701  0.00  0.00    +0.063 S 
ATOM      2  O   UNL     1       1.652  -2.686  -3.165  0.00  0.00    -0.153 OA
ATOM      3  O   UNL     1      -0.059  -4.181  -2.146  0.00  0.00    -0.153 OA
ENDROOT
BRANCH   1  13
ATOM      4  C   UNL     1       0.231   1.678  -0.166  0.00  0.00    +0.012 C 
ATOM      5  C   UNL     1       0.148   0.145  -0.109  0.00  0.00    -0.016 C 
ATOM      6  C   UNL     1      -1.317  -0.370  -0.134  0.00  0.00    +0.028 C 
ATOM      7  C   UNL     1      -1.067  -1.843  -0.546  0.00  0.00    +0.081 C 
ATOM      8  C   UNL     1      -0.543  -2.571   0.691  0.00  0.00    +0.027 C 
ATOM      9  C   UNL     1       0.713  -1.944   1.270  0.00  0.00    -0.033 C 
ATOM     10  C   UNL     1       0.818  -0.436   1.135  0.00  0.00    +0.014 C 
ATOM     11  C   UNL     1       1.954  -2.618   0.669  0.00  0.00    +0.011 C 
ATOM     12  C   UNL     1       0.728  -2.269   2.785  0.00  0.00    +0.011 C 
ATOM     13  N   UNL     1       0.010  -1.783  -1.555  0.00  0.00    -0.173 NA
ATOM     14  C   UNL     1       0.746  -0.523  -1.369  0.00  0.00    +0.116 C 
ENDBRANCH   1  13
BRANCH   1  15
ATOM     15  C   UNL     1      -0.745  -2.629  -4.063  0.00  0.00    +0.126 A 
ATOM     16  C   UNL     1      -1.732  -3.541  -4.381  0.00  0.00    +0.030 A 
ATOM     17  C   UNL     1      -2.577  -3.303  -5.449  0.00  0.00    +0.002 A 
ATOM     18  C   UNL     1      -2.437  -2.151  -6.202  0.00  0.00    +0.002 A 
ATOM     19  C   UNL     1      -1.453  -1.235  -5.889  0.00  0.00    +0.025 A 
ATOM     20  C   UNL     1      -0.605  -1.469  -4.813  0.00  0.00    +0.051 A 
BRANCH  20  21
ATOM     21  N   UNL     1       0.388  -0.541  -4.491  0.00  0.00    -0.356 N 
ATOM     22  H   UNL     1       1.034  -0.745  -3.796  0.00  0.00    +0.142 HD
ATOM     23  H   UNL     1       0.432   0.305  -4.962  0.00  0.00    +0.142 HD
ENDBRANCH  20  21
ENDBRANCH   1  15
TORSDOF 3
