REMARK  Name = ZINC31766436
REMARK  11 active torsions:
REMARK  status: ('A' for Active; 'I' for Inactive)
REMARK    1  A    between atoms: C_1  and  C_2
REMARK    2  A    between atoms: C_2  and  N_3
REMARK    3  A    between atoms: C_12  and  S_14
REMARK    4  A    between atoms: S_14  and  C_15
REMARK    5  A    between atoms: C_15  and  C_16
REMARK    6  A    between atoms: C_21  and  S_26
REMARK    7  A    between atoms: S_26  and  N_29
REMARK    8  A    between atoms: N_29  and  C_30
REMARK    9  A    between atoms: N_29  and  C_32
REMARK   10  A    between atoms: C_30  and  C_31
REMARK   11  A    between atoms: C_32  and  C_33
REMARK                            x       y       z     vdW  Elec       q    Type
REMARK                         _______ _______ _______ _____ _____    ______ ____
ROOT
ATOM      1  C   UNL     1      -4.363   7.228   0.062  0.00  0.00    +0.118 A 
ATOM      2  N   UNL     1      -4.481   8.005  -1.048  0.00  0.00    -0.341 N 
ATOM      3  H   UNL     1      -4.418   7.550  -2.048  0.00  0.00    +0.167 HD
ATOM      4  C   UNL     1      -4.669   9.305  -0.622  0.00  0.00    +0.068 A 
ATOM      5  C   UNL     1      -4.849  10.519  -1.271  0.00  0.00    +0.056 A 
ATOM      6  C   UNL     1      -5.015  11.670  -0.531  0.00  0.00    +0.108 A 
ATOM      7  C   UNL     1      -5.002  11.623   0.856  0.00  0.00    +0.031 A 
ATOM      8  C   UNL     1      -4.826  10.438   1.511  0.00  0.00    +0.032 A 
ATOM      9  C   UNL     1      -4.657   9.258   0.782  0.00  0.00    +0.089 A 
ATOM     10  N   UNL     1      -4.471   7.959   1.133  0.00  0.00    -0.232 NA
ENDROOT
BRANCH   6  11
ATOM     11  S   UNL     1      -5.244  13.212  -1.352  0.00  0.00    +0.061 S 
ATOM     12  O   UNL     1      -5.762  12.913  -2.641  0.00  0.00    -0.153 OA
ATOM     13  O   UNL     1      -5.921  14.063  -0.438  0.00  0.00    -0.153 OA
BRANCH  11  14
ATOM     14  N   UNL     1      -3.742  13.870  -1.587  0.00  0.00    -0.177 NA
BRANCH  14  15
ATOM     15  C   UNL     1      -2.997  13.575  -2.813  0.00  0.00    +0.106 C 
ATOM     16  C   UNL     1      -3.241  14.684  -3.838  0.00  0.00    +0.022 C 
ENDBRANCH  14  15
BRANCH  14  17
ATOM     17  C   UNL     1      -3.159  14.746  -0.568  0.00  0.00    +0.106 C 
ATOM     18  C   UNL     1      -2.254  13.926   0.353  0.00  0.00    +0.022 C 
ENDBRANCH  14  17
ENDBRANCH  11  14
ENDBRANCH   6  11
BRANCH   1  19
ATOM     19  C   UNL     1      -4.146   5.737   0.053  0.00  0.00    +0.151 C 
BRANCH  19  20
ATOM     20  S   UNL     1      -2.370   5.386   0.043  0.00  0.00    -0.078 S 
BRANCH  20  30
ATOM     21  N   UNL     1      -0.011   0.966   0.007  0.00  0.00    -0.329 N 
ATOM     22  C   UNL     1      -1.214   1.639   0.017  0.00  0.00    +0.131 A 
ATOM     23  C   UNL     1      -2.443   0.931   0.013  0.00  0.00    +0.040 A 
ATOM     24  C   UNL     1      -2.494  -0.467   0.011  0.00  0.00    +0.013 A 
ATOM     25  C   UNL     1      -3.704  -1.096   0.013  0.00  0.00    +0.001 A 
ATOM     26  C   UNL     1      -4.889  -0.365   0.023  0.00  0.00    +0.002 A 
ATOM     27  C   UNL     1      -4.873   0.998   0.030  0.00  0.00    +0.028 A 
ATOM     28  C   UNL     1      -3.647   1.676   0.028  0.00  0.00    +0.077 A 
ATOM     29  N   UNL     1      -3.578   3.016   0.035  0.00  0.00    -0.222 NA
ATOM     30  C   UNL     1      -2.406   3.624   0.033  0.00  0.00    +0.191 A 
ATOM     31  N   UNL     1      -1.252   2.963   0.024  0.00  0.00    -0.206 NA
ATOM     32  H   UNL     1       0.004  -0.134   0.006  0.00  0.00    +0.147 HD
BRANCH  21  34
ATOM     33  C   UNL     1       2.424   0.737  -0.017  0.00  0.00    +0.024 C 
ATOM     34  C   UNL     1       1.248   1.716  -0.001  0.00  0.00    +0.099 C 
ENDBRANCH  21  34
ENDBRANCH  20  30
ENDBRANCH  19  20
ENDBRANCH   1  19
TORSDOF 8
