REMARK  Name = ZINC13613147
REMARK  9 active torsions:
REMARK  status: ('A' for Active; 'I' for Inactive)
REMARK    1  A    between atoms: C_4  and  S_7
REMARK    2  A    between atoms: S_7  and  N_10
REMARK    3  A    between atoms: N_10  and  C_11
REMARK    4  A    between atoms: N_10  and  C_27
REMARK    5  A    between atoms: C_11  and  C_12
REMARK    6  A    between atoms: N_14  and  C_15
REMARK    7  A    between atoms: C_15  and  C_16
REMARK    8  A    between atoms: C_19  and  N_22
REMARK    9  A    between atoms: C_30  and  N_33
REMARK                            x       y       z     vdW  Elec       q    Type
REMARK                         _______ _______ _______ _____ _____    ______ ____
ROOT
ATOM      1  N   UNL     1      -0.950   1.948  -1.458  0.00  0.00    -0.194 N 
ENDROOT
BRANCH   1   2
ATOM      2  C   UNL     1      -2.061   1.218  -1.888  0.00  0.00    +0.052 A 
ATOM      3  C   UNL     1      -2.534   1.369  -3.185  0.00  0.00    +0.027 A 
ATOM      4  C   UNL     1      -3.629   0.642  -3.608  0.00  0.00    +0.034 A 
ATOM      5  C   UNL     1      -4.263  -0.226  -2.738  0.00  0.00    +0.126 A 
ATOM      6  C   UNL     1      -3.798  -0.374  -1.444  0.00  0.00    +0.034 A 
ATOM      7  C   UNL     1      -2.700   0.345  -1.016  0.00  0.00    +0.027 A 
BRANCH   5   8
ATOM      8  N   UNL     1      -5.440  -0.999  -3.193  0.00  0.00    +0.056 N 
ATOM      9  O   UNL     1      -5.998  -1.765  -2.429  0.00  0.00    -0.126 OA
ATOM     10  O   UNL     1      -5.850  -0.870  -4.333  0.00  0.00    -0.126 OA
ENDBRANCH   5   8
ENDBRANCH   1   2
BRANCH   1  11
ATOM     11  S   UNL     1      -0.967   3.602  -1.530  0.00  0.00    +0.075 S 
ATOM     12  O   UNL     1      -2.329   3.989  -1.655  0.00  0.00    -0.150 OA
ATOM     13  O   UNL     1      -0.138   4.063  -0.472  0.00  0.00    -0.150 OA
BRANCH  11  17
ATOM     14  C   UNL     1       1.077   4.796  -5.388  0.00  0.00    +0.000 A 
ATOM     15  C   UNL     1      -0.300   4.683  -5.342  0.00  0.00    +0.002 A 
ATOM     16  C   UNL     1      -0.924   4.318  -4.164  0.00  0.00    +0.029 A 
ATOM     17  C   UNL     1      -0.171   4.067  -3.032  0.00  0.00    +0.109 A 
ATOM     18  C   UNL     1       1.205   4.185  -3.077  0.00  0.00    +0.029 A 
ATOM     19  C   UNL     1       1.830   4.544  -4.256  0.00  0.00    +0.002 A 
ENDBRANCH  11  17
ENDBRANCH   1  11
BRANCH   1  20
ATOM     20  C   UNL     1       0.231   1.249  -0.945  0.00  0.00    +0.227 C 
BRANCH  20  21
ATOM     21  C   UNL     1       0.040   0.952   0.521  0.00  0.00    +0.232 C 
ATOM     22  O   UNL     1      -0.981   1.290   1.080  0.00  0.00    -0.274 OA
ATOM     23  N   UNL     1       1.005   0.310   1.209  0.00  0.00    -0.310 N 
ATOM     24  H   UNL     1       1.822   0.039   0.761  0.00  0.00    +0.149 HD
BRANCH  23  25
ATOM     25  C   UNL     1       0.820   0.021   2.633  0.00  0.00    +0.139 C 
BRANCH  25  26
ATOM     26  C   UNL     1       2.035  -0.698   3.162  0.00  0.00    -0.030 A 
ATOM     27  C   UNL     1       2.087  -2.079   3.130  0.00  0.00    +0.007 A 
ATOM     28  C   UNL     1       3.201  -2.741   3.609  0.00  0.00    +0.023 A 
ATOM     29  C   UNL     1       4.265  -2.018   4.132  0.00  0.00    +0.030 A 
ATOM     30  C   UNL     1       4.207  -0.630   4.168  0.00  0.00    +0.023 A 
ATOM     31  C   UNL     1       3.092   0.025   3.682  0.00  0.00    +0.007 A 
BRANCH  29  32
ATOM     32  N   UNL     1       5.390  -2.684   4.622  0.00  0.00    -0.330 N 
ATOM     33  C   UNL     1       6.594  -2.358   3.815  0.00  0.00    +0.105 C 
ATOM     34  C   UNL     1       7.765  -2.718   4.764  0.00  0.00    +0.020 C 
ATOM     35  C   UNL     1       7.235  -2.280   6.149  0.00  0.00    +0.020 C 
ATOM     36  C   UNL     1       5.702  -2.254   6.002  0.00  0.00    +0.105 C 
ENDBRANCH  29  32
ENDBRANCH  25  26
ENDBRANCH  23  25
ENDBRANCH  20  21
ENDBRANCH   1  20
TORSDOF 9
