REMARK  Name = ZINC15938662
REMARK  5 active torsions:
REMARK  status: ('A' for Active; 'I' for Inactive)
REMARK    1  A    between atoms: C_4  and  C_7
REMARK    2  A    between atoms: C_13  and  C_15
REMARK    3  A    between atoms: N_17  and  N_18
REMARK    4  A    between atoms: C_19  and  C_20
REMARK    5  A    between atoms: C_25  and  O_26
REMARK                            x       y       z     vdW  Elec       q    Type
REMARK                         _______ _______ _______ _____ _____    ______ ____
ROOT
ATOM      1  C   UNL     1      -2.270   1.468   0.483  0.00  0.00    +0.245 C 
ATOM      2  O   UNL     1      -1.903   2.342   1.241  0.00  0.00    -0.273 OA
ATOM      3  N   UNL     1      -2.884   0.370   0.968  0.00  0.00    -0.206 N 
ATOM      4  H   UNL     1      -3.177  -0.328   0.362  0.00  0.00    +0.177 HD
ENDROOT
BRANCH   1  10
ATOM      5  C   UNL     1      -0.601   2.107  -1.277  0.00  0.00    +0.057 C 
ATOM      6  C   UNL     1      -0.810   3.635  -1.377  0.00  0.00    +0.113 C 
ATOM      7  N   UNL     1      -2.210   3.813  -1.781  0.00  0.00    -0.314 N 
ATOM      8  C   UNL     1      -2.924   2.693  -1.575  0.00  0.00    +0.226 C 
ATOM      9  O   UNL     1      -4.106   2.569  -1.815  0.00  0.00    -0.275 OA
ATOM     10  C   UNL     1      -2.038   1.610  -0.999  0.00  0.00    +0.171 C 
ATOM     11  H   UNL     1      -2.573   4.633  -2.150  0.00  0.00    +0.149 HD
BRANCH   5  15
ATOM     12  C   UNL     1       2.009   1.129   1.959  0.00  0.00    +0.000 A 
ATOM     13  C   UNL     1       1.694   0.173   1.012  0.00  0.00    +0.000 A 
ATOM     14  C   UNL     1       0.849   0.489  -0.035  0.00  0.00    +0.004 A 
ATOM     15  C   UNL     1       0.320   1.762  -0.136  0.00  0.00    -0.042 A 
ATOM     16  C   UNL     1       0.639   2.720   0.809  0.00  0.00    +0.004 A 
ATOM     17  C   UNL     1       1.481   2.403   1.858  0.00  0.00    +0.000 A 
ENDBRANCH   5  15
ENDBRANCH   1  10
BRANCH   3  18
ATOM     18  N   UNL     1      -3.099   0.239   2.346  0.00  0.00    -0.188 NA
ATOM     19  C   UNL     1      -3.566  -0.873   2.826  0.00  0.00    +0.142 C 
BRANCH  19  20
ATOM     20  C   UNL     1      -3.648  -2.069   1.970  0.00  0.00    +0.038 A 
ATOM     21  C   UNL     1      -2.776  -2.220   0.889  0.00  0.00    +0.028 A 
ATOM     22  C   UNL     1      -2.853  -3.346   0.095  0.00  0.00    +0.020 A 
ATOM     23  C   UNL     1      -3.801  -4.321   0.356  0.00  0.00    +0.039 A 
ATOM     24  C   UNL     1      -4.674  -4.180   1.419  0.00  0.00    +0.084 A 
ATOM     25  C   UNL     1      -4.605  -3.058   2.231  0.00  0.00    +0.144 A 
ATOM     26 CL   UNL     1      -5.858  -5.409   1.738  0.00  0.00    -0.080 Cl
ATOM     27 BR   UNL     1      -1.666  -3.553  -1.362  0.00  0.00    -0.050 Br
BRANCH  25  28
ATOM     28  O   UNL     1      -5.463  -2.919   3.276  0.00  0.00    -0.505 OA
ATOM     29  H   UNL     1      -6.315  -2.530   3.036  0.00  0.00    +0.292 HD
ENDBRANCH  25  28
ENDBRANCH  19  20
ENDBRANCH   3  18
TORSDOF 5
