REMARK  Name = ZINC08791143
REMARK  6 active torsions:
REMARK  status: ('A' for Active; 'I' for Inactive)
REMARK    1  A    between atoms: C_1  and  C_2
REMARK    2  A    between atoms: C_16  and  C_18
REMARK    3  A    between atoms: C_18  and  C_19
REMARK    4  A    between atoms: N_27  and  C_30
REMARK    5  A    between atoms: C_30  and  C_31
REMARK    6  A    between atoms: C_31  and  C_32
REMARK                            x       y       z     vdW  Elec       q    Type
REMARK                         _______ _______ _______ _____ _____    ______ ____
ROOT
ATOM      1  C   UNL     1      -4.505   8.992  -3.787  0.00  0.00    +0.045 C 
ATOM      2  C   UNL     1      -3.919   7.740  -3.187  0.00  0.00    -0.029 A 
ATOM      3  C   UNL     1      -2.663   7.316  -3.570  0.00  0.00    +0.005 A 
ATOM      4  C   UNL     1      -2.116   6.169  -3.024  0.00  0.00    +0.001 A 
ATOM      5  C   UNL     1      -2.833   5.442  -2.089  0.00  0.00    +0.004 A 
ATOM      6  C   UNL     1      -4.086   5.861  -1.704  0.00  0.00    -0.027 A 
ATOM      7  C   UNL     1      -4.646   7.014  -2.246  0.00  0.00    +0.039 A 
ATOM      8  N   UNL     1      -5.915   7.235  -1.706  0.00  0.00    -0.286 N 
ATOM      9  C   UNL     1      -6.260   6.286  -0.814  0.00  0.00    +0.211 C 
ATOM     10  O   UNL     1      -7.298   6.220  -0.192  0.00  0.00    -0.277 OA
ATOM     11  C   UNL     1      -5.106   5.323  -0.741  0.00  0.00    +0.050 C 
ATOM     12  C   UNL     1      -4.542   5.237   0.699  0.00  0.00    +0.088 C 
ATOM     13  C   UNL     1      -5.201   3.954   1.280  0.00  0.00    +0.073 C 
ATOM     14  C   UNL     1      -6.105   3.410   0.154  0.00  0.00    -0.053 C 
ATOM     15  C   UNL     1      -4.030   3.019   1.477  0.00  0.00    +0.224 C 
ATOM     16  O   UNL     1      -4.102   1.889   1.910  0.00  0.00    -0.275 OA
ATOM     17  N   UNL     1      -2.902   3.632   1.101  0.00  0.00    -0.241 N 
ATOM     18  C   UNL     1      -3.072   4.883   0.656  0.00  0.00    +0.225 C 
ATOM     19  O   UNL     1      -2.186   5.617   0.274  0.00  0.00    -0.275 OA
ATOM     20  H   UNL     1      -6.482   7.985  -1.945  0.00  0.00    +0.155 HD
ATOM     21  N   UNL     1      -5.526   3.972  -1.069  0.00  0.00    +0.394 N 
ATOM     22  H   UNL     1      -4.719   3.413  -1.369  0.00  0.00    -0.083 HD
ATOM     23  H   UNL     1      -6.228   3.990  -1.818  0.00  0.00    -0.083 HD
ENDROOT
BRANCH  14  24
ATOM     24  C   UNL     1      -7.540   3.906   0.337  0.00  0.00    +0.020 C 
BRANCH  24  25
ATOM     25  C   UNL     1      -8.321   2.900   1.143  0.00  0.00    -0.049 A 
ATOM     26  C   UNL     1      -9.005   1.883   0.504  0.00  0.00    +0.003 A 
ATOM     27  C   UNL     1      -9.716   0.958   1.244  0.00  0.00    +0.000 A 
ATOM     28  C   UNL     1      -9.752   1.055   2.623  0.00  0.00    +0.000 A 
ATOM     29  C   UNL     1      -9.072   2.075   3.261  0.00  0.00    +0.000 A 
ATOM     30  C   UNL     1      -8.357   2.998   2.522  0.00  0.00    +0.003 A 
ENDBRANCH  24  25
ENDBRANCH  14  24
BRANCH  17  31
ATOM     31  C   UNL     1      -1.588   2.990   1.175  0.00  0.00    +0.121 C 
BRANCH  31  32
ATOM     32  C   UNL     1      -1.302   2.260  -0.139  0.00  0.00    +0.054 C 
BRANCH  32  33
ATOM     33  C   UNL     1       0.051   1.599  -0.062  0.00  0.00    -0.046 A 
ATOM     34  C   UNL     1       1.179   2.284  -0.471  0.00  0.00    +0.004 A 
ATOM     35  C   UNL     1       2.418   1.675  -0.408  0.00  0.00    +0.000 A 
ATOM     36  C   UNL     1       2.530   0.382   0.068  0.00  0.00    +0.000 A 
ATOM     37  C   UNL     1       1.401  -0.303   0.478  0.00  0.00    +0.000 A 
ATOM     38  C   UNL     1       0.161   0.305   0.413  0.00  0.00    +0.004 A 
ENDBRANCH  32  33
ENDBRANCH  31  32
ENDBRANCH  17  31
TORSDOF 5
