REMARK  Name = ZINC00196573
REMARK  3 active torsions:
REMARK  status: ('A' for Active; 'I' for Inactive)
REMARK    1  A    between atoms: C_5  and  C_7
REMARK    2  A    between atoms: C_10  and  C_19
REMARK    3  A    between atoms: C_10  and  O_23
REMARK                            x       y       z     vdW  Elec       q    Type
REMARK                         _______ _______ _______ _____ _____    ______ ____
ROOT
ATOM      1  C   UNL     1      -1.304   2.117   0.020  0.00  0.00    +0.270 C 
ATOM      2  O   UNL     1      -1.319   3.328   0.132  0.00  0.00    -0.268 OA
ATOM      3  N   UNL     1      -2.462   1.435  -0.080  0.00  0.00    -0.148 N 
ATOM      4  C   UNL     1      -3.806   2.033  -0.188  0.00  0.00    +0.259 C 
ATOM      5  C   UNL     1      -4.714   0.816  -0.406  0.00  0.00    +0.096 C 
ATOM      6  C   UNL     1      -5.777   0.703   0.689  0.00  0.00    +0.014 C 
ATOM      7  C   UNL     1      -6.426  -0.682   0.596  0.00  0.00    +0.001 C 
ATOM      8  C   UNL     1      -5.415  -1.784   0.906  0.00  0.00    +0.006 C 
ATOM      9  C   UNL     1      -4.296  -1.788  -0.148  0.00  0.00    +0.053 C 
ATOM     10  C   UNL     1      -3.774  -0.368  -0.232  0.00  0.00    +0.045 C 
ATOM     11  N   UNL     1      -2.589   0.045  -0.105  0.00  0.00    -0.183 NA
ENDROOT
BRANCH   1  16
ATOM     12  C   UNL     1       1.210  -0.671  -0.050  0.00  0.00    +0.001 A 
ATOM     13  C   UNL     1       2.398   0.037  -0.069  0.00  0.00    +0.001 A 
ATOM     14  C   UNL     1       2.387   1.420  -0.057  0.00  0.00    +0.021 A 
ATOM     15  C   UNL     1       1.187   2.103  -0.026  0.00  0.00    +0.053 A 
ATOM     16  C   UNL     1      -0.016   1.394  -0.007  0.00  0.00    +0.057 A 
ATOM     17  C   UNL     1       0.004  -0.003  -0.019  0.00  0.00    +0.014 A 
ATOM     18 CL   UNL     1       1.174   3.839  -0.011  0.00  0.00    -0.083 Cl
ENDBRANCH   1  16
BRANCH   4  19
ATOM     19  C   UNL     1      -3.880   2.984  -1.384  0.00  0.00    +0.438 C 
ATOM     20  F   UNL     1      -3.571   2.285  -2.555  0.00  0.00    -0.166 F 
ATOM     21  F   UNL     1      -5.172   3.511  -1.481  0.00  0.00    -0.166 F 
ATOM     22  F   UNL     1      -2.963   4.027  -1.208  0.00  0.00    -0.166 F 
ENDBRANCH   4  19
BRANCH   4  23
ATOM     23  O   UNL     1      -4.154   2.712   1.021  0.00  0.00    -0.363 OA
ATOM     24  H   UNL     1      -3.564   3.445   1.244  0.00  0.00    +0.212 HD
ENDBRANCH   4  23
TORSDOF 3
