REMARK  Name = ZINC64031638
REMARK  9 active torsions:
REMARK  status: ('A' for Active; 'I' for Inactive)
REMARK    1  A    between atoms: C_1  and  C_2
REMARK    2  A    between atoms: C_8  and  C_12
REMARK    3  A    between atoms: N_14  and  C_15
REMARK    4  A    between atoms: C_15  and  C_16
REMARK    5  A    between atoms: C_17  and  C_37
REMARK    6  A    between atoms: C_19  and  C_21
REMARK    7  A    between atoms: C_24  and  N_27
REMARK    8  A    between atoms: C_28  and  C_30
REMARK    9  A    between atoms: C_30  and  C_31
REMARK                            x       y       z     vdW  Elec       q    Type
REMARK                         _______ _______ _______ _____ _____    ______ ____
ROOT
ATOM      1  C   UNL     1       2.345  -0.912   5.924  0.00  0.00    +0.100 A 
ATOM      2  C   UNL     1       2.642   0.392   5.772  0.00  0.00    +0.127 A 
ATOM      3  O   UNL     1       2.321   1.012   6.926  0.00  0.00    -0.440 OA
ATOM      4  C   UNL     1       1.835   0.084   7.768  0.00  0.00    +0.228 A 
ATOM      5  N   UNL     1       1.844  -1.079   7.158  0.00  0.00    -0.212 NA
ATOM      6  C   UNL     1       3.223   1.038   4.542  0.00  0.00    +0.088 C 
ENDROOT
BRANCH   4   7
ATOM      7  C   UNL     1       1.362   0.332   9.145  0.00  0.00    +0.037 A 
ATOM      8  C   UNL     1       0.882  -0.726   9.921  0.00  0.00    +0.015 A 
ATOM      9  C   UNL     1       0.442  -0.491  11.206  0.00  0.00    +0.024 A 
ATOM     10  C   UNL     1       0.475   0.797  11.729  0.00  0.00    +0.033 A 
ATOM     11  C   UNL     1       0.951   1.852  10.959  0.00  0.00    +0.024 A 
ATOM     12  C   UNL     1       1.398   1.623   9.676  0.00  0.00    +0.015 A 
BRANCH  10  13
ATOM     13  N   UNL     1       0.028   1.031  13.032  0.00  0.00    -0.285 N 
ATOM     14  C   UNL     1       0.634   1.962  13.795  0.00  0.00    +0.222 C 
ATOM     15  O   UNL     1       1.512   2.654  13.325  0.00  0.00    -0.275 OA
ATOM     16  H   UNL     1      -0.719   0.524  13.387  0.00  0.00    +0.155 HD
BRANCH  14  17
ATOM     17  C   UNL     1       0.220   2.143  15.233  0.00  0.00    +0.131 C 
BRANCH  17  18
ATOM     18  C   UNL     1       1.045   3.238  15.859  0.00  0.00    -0.039 A 
ATOM     19  C   UNL     1       2.243   2.933  16.477  0.00  0.00    +0.004 A 
ATOM     20  C   UNL     1       3.000   3.937  17.051  0.00  0.00    +0.000 A 
ATOM     21  C   UNL     1       2.559   5.247  17.006  0.00  0.00    +0.000 A 
ATOM     22  C   UNL     1       1.362   5.552  16.387  0.00  0.00    +0.000 A 
ATOM     23  C   UNL     1       0.607   4.548  15.809  0.00  0.00    +0.004 A 
ENDBRANCH  17  18
ENDBRANCH  14  17
ENDBRANCH  10  13
ENDBRANCH   4   7
BRANCH   1  24
ATOM     24  C   UNL     1       2.536  -1.991   4.890  0.00  0.00    +0.163 C 
BRANCH  24  27
ATOM     25  C   UNL     1       1.268  -3.010   3.076  0.00  0.00    +0.242 C 
ATOM     26  O   UNL     1       2.216  -3.734   2.859  0.00  0.00    -0.273 OA
ATOM     27  N   UNL     1       1.327  -2.103   4.072  0.00  0.00    -0.308 N 
ATOM     28  H   UNL     1       0.568  -1.524   4.246  0.00  0.00    +0.149 HD
BRANCH  25  36
ATOM     29  C   UNL     1      -0.089   1.534   0.012  0.00  0.00    +0.044 C 
ATOM     30  C   UNL     1      -0.060   0.027  -0.000  0.00  0.00    -0.050 A 
ATOM     31  C   UNL     1      -0.058  -0.655  -1.204  0.00  0.00    +0.005 A 
ATOM     32  C   UNL     1      -0.032  -2.034  -1.229  0.00  0.00    +0.030 A 
ATOM     33  C   UNL     1      -0.006  -2.752  -0.030  0.00  0.00    +0.089 A 
ATOM     34  C   UNL     1      -0.007  -2.044   1.178  0.00  0.00    +0.012 A 
ATOM     35  C   UNL     1      -0.029  -0.675   1.195  0.00  0.00    +0.011 A 
ATOM     36  C   UNL     1       0.023  -3.125   2.234  0.00  0.00    +0.216 C 
ATOM     37  N   UNL     1       0.039  -4.367   1.444  0.00  0.00    -0.292 N 
ATOM     38  N   UNL     1       0.022  -4.087   0.245  0.00  0.00    -0.177 NA
ATOM     39  H   UNL     1       0.060  -5.265   1.810  0.00  0.00    +0.184 HD
ENDBRANCH  25  36
ENDBRANCH  24  27
ENDBRANCH   1  24
TORSDOF 7
