REMARK  Name = ZINC46255067
REMARK  11 active torsions:
REMARK  status: ('A' for Active; 'I' for Inactive)
REMARK    1  A    between atoms: C_1  and  C_2
REMARK    2  A    between atoms: N_5  and  C_8
REMARK    3  A    between atoms: C_8  and  C_10
REMARK    4  A    between atoms: C_8  and  C_24
REMARK    5  A    between atoms: C_10  and  N_11
REMARK    6  A    between atoms: N_14  and  N_15
REMARK    7  A    between atoms: N_15  and  C_16
REMARK    8  A    between atoms: C_16  and  N_18
REMARK    9  A    between atoms: N_18  and  C_19
REMARK   10  A    between atoms: C_24  and  C_25
REMARK   11  A    between atoms: C_24  and  C_26
REMARK                            x       y       z     vdW  Elec       q    Type
REMARK                         _______ _______ _______ _____ _____    ______ ____
ROOT
ATOM      1  N   UNL     1       1.688  -3.626  -2.382  0.00  0.00    -0.300 N 
ATOM      2  C   UNL     1       2.215  -3.723  -3.619  0.00  0.00    +0.316 C 
ATOM      3  O   UNL     1       3.265  -4.311  -3.788  0.00  0.00    -0.251 OA
ATOM      4  N   UNL     1       1.577  -3.167  -4.668  0.00  0.00    -0.219 N 
ATOM      5  H   UNL     1       0.850  -3.156  -2.247  0.00  0.00    +0.150 HD
ATOM      6  H   UNL     1       1.956  -3.237  -5.558  0.00  0.00    +0.174 HD
ENDROOT
BRANCH   4   7
ATOM      7  N   UNL     1       0.367  -2.489  -4.474  0.00  0.00    -0.245 N 
ATOM      8  H   UNL     1      -0.012  -2.419  -3.583  0.00  0.00    +0.172 HD
BRANCH   7   9
ATOM      9  C   UNL     1      -0.271  -1.933  -5.523  0.00  0.00    +0.147 C 
ATOM     10  S   UNL     1      -1.750  -1.105  -5.285  0.00  0.00    -0.017 S 
BRANCH   9  11
ATOM     11  N   UNL     1       0.256  -2.030  -6.760  0.00  0.00    -0.323 N 
ATOM     12  H   UNL     1       1.094  -2.500  -6.895  0.00  0.00    +0.148 HD
BRANCH  11  13
ATOM     13  C   UNL     1      -0.437  -1.427  -7.901  0.00  0.00    +0.072 C 
ATOM     14  C   UNL     1      -0.001   0.044  -8.066  0.00  0.00    +0.022 C 
ATOM     15  C   UNL     1       1.127  -0.012  -9.127  0.00  0.00    +0.002 C 
ATOM     16  C   UNL     1       0.618  -1.095 -10.110  0.00  0.00    +0.002 C 
ATOM     17  C   UNL     1      -0.044  -2.151  -9.200  0.00  0.00    +0.022 C 
ENDBRANCH  11  13
ENDBRANCH   9  11
ENDBRANCH   7   9
ENDBRANCH   4   7
BRANCH   1  18
ATOM     18  C   UNL     1       2.381  -4.230  -1.241  0.00  0.00    +0.091 C 
BRANCH  18  19
ATOM     19  C   UNL     1       1.689  -3.809   0.057  0.00  0.00    -0.048 C 
BRANCH  19  24
ATOM     20  C   UNL     1       3.334   1.651   0.065  0.00  0.00    +0.007 C 
ATOM     21  C   UNL     1       3.119   0.186  -0.323  0.00  0.00    -0.018 C 
ATOM     22  C   UNL     1       3.701  -0.722   0.764  0.00  0.00    -0.016 C 
ATOM     23  C   UNL     1       3.413  -2.182   0.410  0.00  0.00    -0.078 C 
ATOM     24  N   UNL     1       1.963  -2.390   0.320  0.00  0.00    +0.383 N 
ATOM     25  C   UNL     1       1.409  -1.576  -0.768  0.00  0.00    -0.078 C 
ATOM     26  C   UNL     1       1.620  -0.093  -0.459  0.00  0.00    -0.016 C 
ATOM     27  H   UNL     1       1.531  -2.123   1.192  0.00  0.00    -0.081 HD
ENDBRANCH  19  24
BRANCH  19  28
ATOM     28  C   UNL     1       2.220  -4.655   1.215  0.00  0.00    -0.029 C 
ATOM     29  C   UNL     1       1.522  -4.241   2.512  0.00  0.00    +0.005 C 
ATOM     30  C   UNL     1       1.943  -6.134   0.936  0.00  0.00    +0.005 C 
ENDBRANCH  19  28
ENDBRANCH  18  19
ENDBRANCH   1  18
TORSDOF 8
