REMARK  Name = ZINC09763345
REMARK  4 active torsions:
REMARK  status: ('A' for Active; 'I' for Inactive)
REMARK    1  A    between atoms: C_4  and  C_8
REMARK    2  A    between atoms: N_9  and  N_10
REMARK    3  A    between atoms: C_11  and  C_13
REMARK    4  A    between atoms: C_15  and  N_20
REMARK                            x       y       z     vdW  Elec       q    Type
REMARK                         _______ _______ _______ _____ _____    ______ ____
ROOT
ATOM      1  N   UNL     1       2.325   1.056  -0.015  0.00  0.00    -0.202 N 
ATOM      2  C   UNL     1       3.483   1.746  -0.022  0.00  0.00    +0.281 C 
ATOM      3  O   UNL     1       3.467   2.962  -0.015  0.00  0.00    -0.267 OA
ATOM      4  H   UNL     1       2.338   0.086  -0.020  0.00  0.00    +0.178 HD
ENDROOT
BRANCH   2   5
ATOM      5  C   UNL     1       4.774   1.024  -0.038  0.00  0.00    +0.125 A 
ATOM      6  C   UNL     1       5.966   1.743  -0.051  0.00  0.00    +0.091 A 
ATOM      7  C   UNL     1       7.176   1.046  -0.062  0.00  0.00    +0.067 A 
ATOM      8  C   UNL     1       7.137  -0.347  -0.069  0.00  0.00    +0.098 A 
ATOM      9  C   UNL     1       5.910  -0.991  -0.060  0.00  0.00    +0.128 A 
ATOM     10 CL   UNL     1       5.854  -2.726  -0.068  0.00  0.00    -0.062 Cl
ATOM     11 CL   UNL     1       8.610  -1.266  -0.089  0.00  0.00    -0.079 Cl
ATOM     12 CL   UNL     1       5.949   3.478  -0.049  0.00  0.00    -0.079 Cl
ATOM     13  N   UNL     1       4.715  -0.345  -0.045  0.00  0.00    -0.339 N 
ATOM     14  H   UNL     1       3.822  -0.852  -0.039  0.00  0.00    +0.167 HD
BRANCH   7  15
ATOM     15  N   UNL     1       8.392   1.727  -0.070  0.00  0.00    -0.356 N 
ATOM     16  H   UNL     1       9.225   1.231  -0.081  0.00  0.00    +0.142 HD
ATOM     17  H   UNL     1       8.404   2.697  -0.065  0.00  0.00    +0.142 HD
ENDBRANCH   7  15
ENDBRANCH   2   5
BRANCH   1  19
ATOM     18  C   UNL     1      -0.013   1.076   0.008  0.00  0.00    +0.141 C 
ATOM     19  N   UNL     1       1.103   1.740   0.001  0.00  0.00    -0.187 NA
BRANCH  18  23
ATOM     20  C   UNL     1      -3.718   3.148   0.038  0.00  0.00    +0.003 A 
ATOM     21  C   UNL     1      -3.703   1.765   0.030  0.00  0.00    +0.021 A 
ATOM     22  C   UNL     1      -2.502   1.084   0.020  0.00  0.00    +0.051 A 
ATOM     23  C   UNL     1      -1.299   1.796   0.018  0.00  0.00    +0.031 A 
ATOM     24  C   UNL     1      -1.322   3.193   0.032  0.00  0.00    +0.051 A 
ATOM     25  C   UNL     1      -2.531   3.860   0.036  0.00  0.00    +0.021 A 
ATOM     26 CL   UNL     1       0.165   4.088   0.036  0.00  0.00    -0.083 Cl
ATOM     27 CL   UNL     1      -2.487  -0.652   0.010  0.00  0.00    -0.083 Cl
ENDBRANCH  18  23
ENDBRANCH   1  19
TORSDOF 4
