REMARK  Name = ZINC09694454
REMARK  6 active torsions:
REMARK  status: ('A' for Active; 'I' for Inactive)
REMARK    1  A    between atoms: C_1  and  C_2
REMARK    2  A    between atoms: C_2  and  C_3
REMARK    3  A    between atoms: C_3  and  C_4
REMARK    4  A    between atoms: C_5  and  C_11
REMARK    5  A    between atoms: C_6  and  O_10
REMARK    6  A    between atoms: C_11  and  O_20
REMARK                            x       y       z     vdW  Elec       q    Type
REMARK                         _______ _______ _______ _____ _____    ______ ____
ROOT
ATOM      1  C   UNL     1      -1.344  -2.563  -2.380  0.00  0.00    +0.252 C 
ATOM      2  C   UNL     1      -1.091  -2.527  -3.876  0.00  0.00    +0.266 C 
ATOM      3  N   UNL     1      -1.818  -3.370  -4.643  0.00  0.00    -0.235 N 
ATOM      4  C   UNL     1      -2.721  -4.199  -4.105  0.00  0.00    +0.332 C 
ATOM      5  N   UNL     1      -2.996  -4.284  -2.799  0.00  0.00    -0.125 NA
ATOM      6  C   UNL     1      -2.394  -3.547  -1.902  0.00  0.00    +0.286 C 
ATOM      7  O   UNL     1      -2.695  -3.660  -0.598  0.00  0.00    -0.269 OA
ATOM      8  O   UNL     1      -3.337  -4.928  -4.860  0.00  0.00    -0.250 OA
ATOM      9  O   UNL     1      -0.273  -1.775  -4.361  0.00  0.00    -0.271 OA
ATOM     10  H   UNL     1      -1.683  -3.373  -5.604  0.00  0.00    +0.159 HD
ENDROOT
BRANCH   1  12
ATOM     11  C   UNL     1       0.888  -2.001  -1.284  0.00  0.00    +0.047 A 
ATOM     12  C   UNL     1      -0.045  -2.892  -1.692  0.00  0.00    +0.085 A 
ATOM     13  C   UNL     1       0.412  -4.176  -1.360  0.00  0.00    +0.238 A 
ATOM     14  N   UNL     1       1.579  -4.054  -0.774  0.00  0.00    -0.136 NA
ATOM     15  H   UNL     1       2.709  -2.312  -0.343  0.00  0.00    +0.189 HD
ATOM     16  N   UNL     1       1.901  -2.692  -0.720  0.00  0.00    -0.278 N 
BRANCH  13  17
ATOM     17  O   UNL     1      -0.241  -5.343  -1.603  0.00  0.00    -0.491 OA
ATOM     18  H   UNL     1      -0.030  -5.742  -2.458  0.00  0.00    +0.294 HD
ENDBRANCH  13  17
BRANCH  11  19
ATOM     19  C   UNL     1       0.813  -0.503  -1.438  0.00  0.00    +0.055 C 
BRANCH  19  21
ATOM     20  C   UNL     1       0.119   1.625  -0.328  0.00  0.00    +0.004 C 
ATOM     21  C   UNL     1       0.090   0.098  -0.232  0.00  0.00    +0.003 C 
ENDBRANCH  19  21
ENDBRANCH  11  19
ENDBRANCH   1  12
BRANCH   1  22
ATOM     22  O   UNL     1      -1.743  -1.254  -1.969  0.00  0.00    -0.368 OA
ATOM     23  H   UNL     1      -2.574  -0.954  -2.362  0.00  0.00    +0.212 HD
ENDBRANCH   1  22
TORSDOF 5
