REMARK  Name = ZINC09004032
REMARK  12 active torsions:
REMARK  status: ('A' for Active; 'I' for Inactive)
REMARK    1  A    between atoms: C_1  and  C_2
REMARK    2  A    between atoms: N_6  and  C_19
REMARK    3  A    between atoms: C_9  and  C_18
REMARK    4  A    between atoms: N_11  and  C_12
REMARK    5  A    between atoms: C_19  and  C_20
REMARK    6  A    between atoms: C_25  and  C_35
REMARK    7  A    between atoms: C_26  and  C_28
REMARK    8  A    between atoms: C_28  and  O_30
REMARK    9  A    between atoms: O_30  and  C_31
REMARK   10  A    between atoms: C_31  and  C_32
REMARK   11  A    between atoms: C_32  and  C_33
REMARK   12  A    between atoms: C_32  and  C_34
REMARK                            x       y       z     vdW  Elec       q    Type
REMARK                         _______ _______ _______ _____ _____    ______ ____
ROOT
ATOM      1  C   UNL     1       3.016  -2.608   0.526  0.00  0.00    +0.045 C 
ATOM      2  C   UNL     1       1.620  -2.056   0.656  0.00  0.00    -0.033 A 
ATOM      3  C   UNL     1       0.592  -2.864   1.028  0.00  0.00    +0.074 A 
ATOM      4  C   UNL     1      -0.708  -2.339   1.147  0.00  0.00    +0.254 A 
ATOM      5  O   UNL     1      -1.625  -3.071   1.482  0.00  0.00    -0.268 OA
ATOM      6  N   UNL     1      -0.953  -1.039   0.894  0.00  0.00    -0.284 N 
ATOM      7  C   UNL     1       0.060  -0.200   0.517  0.00  0.00    +0.148 A 
ATOM      8  C   UNL     1       1.361  -0.691   0.391  0.00  0.00    +0.043 A 
ATOM      9  C   UNL     1       2.179   0.393  -0.006  0.00  0.00    +0.070 A 
ATOM     10  N   UNL     1       1.429   1.454  -0.111  0.00  0.00    -0.169 NA
ATOM     11  N   UNL     1       0.106   1.122   0.206  0.00  0.00    -0.215 N 
ATOM     12  C   UNL     1       3.662   0.332  -0.264  0.00  0.00    +0.068 C 
ENDROOT
BRANCH  11  13
ATOM     13  C   UNL     1      -0.985   2.002   0.200  0.00  0.00    +0.068 A 
ATOM     14  C   UNL     1      -2.094   1.728  -0.590  0.00  0.00    +0.028 A 
ATOM     15  C   UNL     1      -3.169   2.595  -0.591  0.00  0.00    +0.002 A 
ATOM     16  C   UNL     1      -3.138   3.739   0.185  0.00  0.00    +0.000 A 
ATOM     17  C   UNL     1      -2.033   4.017   0.969  0.00  0.00    +0.002 A 
ATOM     18  C   UNL     1      -0.956   3.151   0.978  0.00  0.00    +0.028 A 
ENDBRANCH  11  13
BRANCH   6  19
ATOM     19  C   UNL     1      -2.316  -0.519   1.025  0.00  0.00    +0.222 C 
BRANCH  19  20
ATOM     20  C   UNL     1      -3.088  -0.812  -0.236  0.00  0.00    +0.239 C 
ATOM     21  O   UNL     1      -2.553  -1.399  -1.152  0.00  0.00    -0.273 OA
ATOM     22  N   UNL     1      -4.374  -0.422  -0.345  0.00  0.00    -0.263 N 
ATOM     23  C   UNL     1      -5.083  -0.691  -1.502  0.00  0.00    +0.165 A 
ATOM     24  N   UNL     1      -6.341  -0.396  -1.791  0.00  0.00    -0.229 NA
ATOM     25  C   UNL     1      -6.873  -0.715  -2.941  0.00  0.00    +0.062 A 
ATOM     26  C   UNL     1      -6.077  -1.391  -3.857  0.00  0.00    +0.120 A 
ATOM     27  S   UNL     1      -4.548  -1.508  -2.938  0.00  0.00    -0.045 S 
ATOM     28  C   UNL     1      -8.304  -0.368  -3.261  0.00  0.00    +0.067 C 
ATOM     29  H   UNL     1      -4.802   0.048   0.388  0.00  0.00    +0.157 HD
BRANCH  26  30
ATOM     30  C   UNL     1      -6.400  -1.874  -5.198  0.00  0.00    +0.348 C 
ATOM     31  O   UNL     1      -7.513  -1.697  -5.656  0.00  0.00    -0.244 OA
BRANCH  30  32
ATOM     32  O   UNL     1      -5.464  -2.515  -5.928  0.00  0.00    -0.460 OA
BRANCH  32  33
ATOM     33  C   UNL     1      -5.849  -2.959  -7.230  0.00  0.00    +0.235 C 
BRANCH  33  34
ATOM     34  C   UNL     1      -4.665  -3.659  -7.901  0.00  0.00    +0.020 C 
ATOM     35  C   UNL     1      -5.112  -4.244  -9.242  0.00  0.00    +0.010 C 
ATOM     36  C   UNL     1      -3.540  -2.649  -8.134  0.00  0.00    +0.010 C 
ENDBRANCH  33  34
ENDBRANCH  32  33
ENDBRANCH  30  32
ENDBRANCH  26  30
ENDBRANCH  19  20
ENDBRANCH   6  19
TORSDOF 7
