REMARK  Name = ZINC09211156
REMARK  8 active torsions:
REMARK  status: ('A' for Active; 'I' for Inactive)
REMARK    1  A    between atoms: C_1  and  C_2
REMARK    2  A    between atoms: C_2  and  N_3
REMARK    3  A    between atoms: N_3  and  C_4
REMARK    4  A    between atoms: N_3  and  C_30
REMARK    5  A    between atoms: C_4  and  C_5
REMARK    6  A    between atoms: C_5  and  N_6
REMARK    7  A    between atoms: C_7  and  C_9
REMARK    8  A    between atoms: C_30  and  C_31
REMARK                            x       y       z     vdW  Elec       q    Type
REMARK                         _______ _______ _______ _____ _____    ______ ____
ROOT
ATOM      1  C   UNL     1      -3.761  -4.780  -2.850  0.00  0.00    +0.092 C 
ATOM      2  C   UNL     1      -3.054  -5.201  -4.140  0.00  0.00    +0.016 C 
ATOM      3  C   UNL     1      -3.455  -6.634  -4.500  0.00  0.00    +0.020 C 
ATOM      4  C   UNL     1      -4.967  -6.693  -4.736  0.00  0.00    +0.106 C 
ATOM      5  N   UNL     1      -5.652  -6.154  -3.553  0.00  0.00    -0.313 N 
ATOM      6  C   UNL     1      -5.277  -4.819  -3.066  0.00  0.00    +0.119 C 
ATOM      7  C   UNL     1      -6.631  -6.889  -2.909  0.00  0.00    +0.152 A 
ATOM      8  C   UNL     1      -7.083  -8.108  -3.443  0.00  0.00    +0.148 A 
ATOM      9  C   UNL     1      -8.080  -8.810  -2.744  0.00  0.00    +0.166 A 
ATOM     10  N   UNL     1      -8.554  -8.301  -1.611  0.00  0.00    -0.216 NA
ATOM     11  C   UNL     1      -8.101  -7.155  -1.149  0.00  0.00    +0.225 A 
ATOM     12  N   UNL     1      -7.162  -6.462  -1.768  0.00  0.00    -0.218 NA
ATOM     13  N   UNL     1      -8.331  -9.941  -3.478  0.00  0.00    -0.312 N 
ATOM     14  C   UNL     1      -7.508  -9.917  -4.566  0.00  0.00    +0.112 A 
ATOM     15  N   UNL     1      -6.781  -8.836  -4.544  0.00  0.00    -0.227 NA
ATOM     16  C   UNL     1      -7.446 -10.988  -5.629  0.00  0.00    +0.074 C 
ATOM     17  C   UNL     1      -8.867 -11.355  -6.062  0.00  0.00    +0.008 C 
ATOM     18  C   UNL     1      -9.404 -12.466  -5.165  0.00  0.00    +0.002 C 
ATOM     19  C   UNL     1      -8.855 -12.317  -3.747  0.00  0.00    +0.022 C 
ATOM     20  C   UNL     1      -9.311 -10.982  -3.156  0.00  0.00    +0.125 C 
ENDROOT
BRANCH   1  22
ATOM     21  N   UNL     1      -2.043  -3.108  -2.241  0.00  0.00    -0.317 N 
ATOM     22  C   UNL     1      -3.341  -3.381  -2.479  0.00  0.00    +0.218 C 
ATOM     23  O   UNL     1      -4.171  -2.501  -2.395  0.00  0.00    -0.275 OA
ATOM     24  H   UNL     1      -1.379  -3.812  -2.308  0.00  0.00    +0.149 HD
BRANCH  21  25
ATOM     25  C   UNL     1      -1.635  -1.748  -1.881  0.00  0.00    +0.085 C 
BRANCH  25  26
ATOM     26  C   UNL     1      -0.120  -1.710  -1.666  0.00  0.00    -0.059 C 
BRANCH  26  27
ATOM     27  N   UNL     1       0.289  -0.347  -1.305  0.00  0.00    +0.383 N 
ATOM     28  H   UNL     1      -0.034   0.299  -2.010  0.00  0.00    -0.081 HD
BRANCH  27  30
ATOM     29  C   UNL     1       0.012   1.478   0.304  0.00  0.00    -0.017 C 
ATOM     30  C   UNL     1      -0.296   0.013  -0.006  0.00  0.00    -0.082 C 
ENDBRANCH  27  30
BRANCH  27  31
ATOM     31  C   UNL     1       1.754  -0.282  -1.216  0.00  0.00    -0.043 C 
BRANCH  31  32
ATOM     32  C   UNL     1       2.350  -0.513  -2.581  0.00  0.00    -0.064 A 
ATOM     33  C   UNL     1       2.771  -1.778  -2.946  0.00  0.00    +0.002 A 
ATOM     34  C   UNL     1       3.319  -1.989  -4.198  0.00  0.00    +0.000 A 
ATOM     35  C   UNL     1       3.445  -0.935  -5.084  0.00  0.00    +0.000 A 
ATOM     36  C   UNL     1       3.023   0.330  -4.719  0.00  0.00    +0.000 A 
ATOM     37  C   UNL     1       2.472   0.540  -3.468  0.00  0.00    +0.002 A 
ENDBRANCH  31  32
ENDBRANCH  27  31
ENDBRANCH  26  27
ENDBRANCH  25  26
ENDBRANCH  21  25
ENDBRANCH   1  22
TORSDOF 7
