REMARK  Name = ZINC17308055
REMARK  16 active torsions:
REMARK  status: ('A' for Active; 'I' for Inactive)
REMARK    1  A    between atoms: C_1  and  C_2
REMARK    2  A    between atoms: C_2  and  C_3
REMARK    3  A    between atoms: C_3  and  C_4
REMARK    4  A    between atoms: C_4  and  N_5
REMARK    5  A    between atoms: N_5  and  C_6
REMARK    6  A    between atoms: C_7  and  N_19
REMARK    7  A    between atoms: N_8  and  C_15
REMARK    8  A    between atoms: C_15  and  C_16
REMARK    9  A    between atoms: C_16  and  C_17
REMARK   10  A    between atoms: C_16  and  C_18
REMARK   11  A    between atoms: C_20  and  C_22
REMARK   12  A    between atoms: C_22  and  N_71
REMARK   13  A    between atoms: C_23  and  C_24
REMARK   14  A    between atoms: C_23  and  N_71
REMARK   15  A    between atoms: C_29  and  C_30
REMARK   16  A    between atoms: C_29  and  N_71
REMARK                            x       y       z     vdW  Elec       q    Type
REMARK                         _______ _______ _______ _____ _____    ______ ____
ROOT
ATOM      1  N   UNL     1      -2.095  -1.199  -0.491  0.00  0.00    -0.266 N 
ATOM      2  C   UNL     1      -0.874  -1.607  -0.086  0.00  0.00    +0.203 C 
ATOM      3  O   UNL     1       0.031  -0.804   0.016  0.00  0.00    -0.277 OA
ENDROOT
BRANCH   1   4
ATOM      4  C   UNL     1      -2.349   0.174  -0.694  0.00  0.00    +0.140 A 
ATOM      5  C   UNL     1      -3.231   0.853   0.122  0.00  0.00    +0.127 A 
ATOM      6  N   UNL     1      -3.461   2.190  -0.104  0.00  0.00    -0.280 N 
ATOM      7  C   UNL     1      -2.826   2.831  -1.102  0.00  0.00    +0.331 A 
ATOM      8  O   UNL     1      -3.040   4.014  -1.282  0.00  0.00    -0.246 OA
ATOM      9  N   UNL     1      -1.964   2.186  -1.908  0.00  0.00    -0.273 N 
ATOM     10  H   UNL     1      -1.508   2.684  -2.645  0.00  0.00    +0.173 HD
ATOM     11  C   UNL     1      -1.707   0.875  -1.732  0.00  0.00    +0.277 A 
ATOM     12  O   UNL     1      -0.923   0.299  -2.468  0.00  0.00    -0.266 OA
BRANCH   5  13
ATOM     13  N   UNL     1      -3.875   0.199   1.144  0.00  0.00    -0.343 N 
ATOM     14  H   UNL     1      -3.745  -0.754   1.269  0.00  0.00    +0.144 HD
ATOM     15  H   UNL     1      -4.458   0.691   1.744  0.00  0.00    +0.144 HD
ENDBRANCH   5  13
BRANCH   6  16
ATOM     16  C   UNL     1      -4.400   2.921   0.750  0.00  0.00    +0.131 C 
BRANCH  16  17
ATOM     17  C   UNL     1      -3.647   3.513   1.944  0.00  0.00    +0.003 C 
ATOM     18  C   UNL     1      -4.601   4.380   2.768  0.00  0.00    +0.009 C 
ATOM     19  C   UNL     1      -3.103   2.381   2.817  0.00  0.00    +0.009 C 
ENDBRANCH  16  17
ENDBRANCH   6  16
ENDBRANCH   1   4
BRANCH   1  20
ATOM     20  C   UNL     1      -3.156  -2.182  -0.720  0.00  0.00    +0.114 C 
BRANCH  20  21
ATOM     21  C   UNL     1      -3.042  -2.735  -2.142  0.00  0.00    +0.019 C 
BRANCH  21  23
ATOM     22  C   UNL     1      -4.035  -4.315  -3.803  0.00  0.00    +0.004 C 
ATOM     23  C   UNL     1      -4.150  -3.762  -2.381  0.00  0.00    -0.002 C 
ENDBRANCH  21  23
ENDBRANCH  20  21
ENDBRANCH   1  20
BRANCH   2  24
ATOM     24  C   UNL     1      -0.633  -3.058   0.240  0.00  0.00    +0.020 C 
BRANCH  24  25
ATOM     25  N   UNL     1       0.781  -3.230   0.633  0.00  0.00    +0.390 N 
ATOM     26  H   UNL     1       1.380  -2.782  -0.070  0.00  0.00    -0.081 HD
BRANCH  25  27
ATOM     27  C   UNL     1       1.115  -4.668   0.703  0.00  0.00    -0.035 C 
BRANCH  27  28
ATOM     28  C   UNL     1       2.591  -4.814   0.967  0.00  0.00    -0.027 A 
ATOM     29  C   UNL     1       3.232  -5.016   2.144  0.00  0.00    +0.009 A 
ATOM     30  C   UNL     1       4.610  -5.123   2.148  0.00  0.00    +0.008 A 
ATOM     31  C   UNL     1       5.281  -5.013   0.975  0.00  0.00    +0.045 A 
ATOM     32  S   UNL     1       3.951  -4.756  -0.188  0.00  0.00    -0.103 S 
ENDBRANCH  27  28
ENDBRANCH  25  27
BRANCH  25  33
ATOM     33  C   UNL     1       1.021  -2.592   1.945  0.00  0.00    -0.046 C 
BRANCH  33  34
ATOM     34  C   UNL     1       0.228  -3.304   3.042  0.00  0.00    +0.102 C 
ATOM     35  C   UNL     1       0.631  -2.752   4.423  0.00  0.00    +0.032 C 
ATOM     36  C   UNL     1      -0.693  -2.217   5.019  0.00  0.00    +0.030 C 
ATOM     37  C   UNL     1      -1.756  -2.988   4.194  0.00  0.00    +0.160 C 
ATOM     38  O   UNL     1      -1.177  -3.049   2.873  0.00  0.00    -0.378 OA
ENDBRANCH  33  34
ENDBRANCH  25  33
ENDBRANCH  24  25
ENDBRANCH   2  24
TORSDOF 13
