REMARK  Name = ZINC13495879
REMARK  13 active torsions:
REMARK  status: ('A' for Active; 'I' for Inactive)
REMARK    1  A    between atoms: C_1  and  C_2
REMARK    2  A    between atoms: C_2  and  C_3
REMARK    3  A    between atoms: C_3  and  C_5
REMARK    4  A    between atoms: C_3  and  N_72
REMARK    5  A    between atoms: N_9  and  C_10
REMARK    6  A    between atoms: C_10  and  C_11
REMARK    7  A    between atoms: C_18  and  C_19
REMARK    8  A    between atoms: C_18  and  N_72
REMARK    9  A    between atoms: C_19  and  C_20
REMARK   10  A    between atoms: C_25  and  C_26
REMARK   11  A    between atoms: C_27  and  C_28
REMARK   12  A    between atoms: C_27  and  N_72
REMARK   13  A    between atoms: C_34  and  C_40
REMARK                            x       y       z     vdW  Elec       q    Type
REMARK                         _______ _______ _______ _____ _____    ______ ____
ROOT
ATOM      1  N   UNL     1       1.375  -3.050   5.282  0.00  0.00    +0.389 N 
ATOM      2  H   UNL     1       1.648  -2.063   5.209  0.00  0.00    -0.080 HD
ENDROOT
BRANCH   1   3
ATOM      3  C   UNL     1       1.762  -3.558   6.615  0.00  0.00    +0.003 C 
BRANCH   3   4
ATOM      4  C   UNL     1       1.201  -4.939   6.838  0.00  0.00    +0.138 A 
ATOM      5  N   UNL     1      -0.044  -5.314   6.674  0.00  0.00    -0.115 NA
ATOM      6  N   UNL     1      -0.124  -6.567   6.962  0.00  0.00    -0.023 NA
ATOM      7  N   UNL     1       1.037  -7.000   7.313  0.00  0.00    -0.044 NA
ATOM      8  N   UNL     1       1.881  -6.026   7.250  0.00  0.00    -0.226 N 
BRANCH   8   9
ATOM      9  C   UNL     1       3.309  -6.090   7.567  0.00  0.00    +0.182 C 
BRANCH   9  10
ATOM     10  C   UNL     1       3.514  -5.778   9.027  0.00  0.00    -0.026 A 
ATOM     11  C   UNL     1       3.725  -4.473   9.432  0.00  0.00    +0.008 A 
ATOM     12  C   UNL     1       3.908  -4.185  10.771  0.00  0.00    +0.038 A 
ATOM     13  C   UNL     1       3.891  -5.206  11.706  0.00  0.00    +0.123 A 
ATOM     14  C   UNL     1       3.685  -6.513  11.300  0.00  0.00    +0.038 A 
ATOM     15  C   UNL     1       3.497  -6.798   9.960  0.00  0.00    +0.008 A 
ATOM     16  F   UNL     1       4.075  -4.926  13.015  0.00  0.00    -0.205 F 
ENDBRANCH   9  10
ENDBRANCH   8   9
ENDBRANCH   3   4
BRANCH   3  18
ATOM     17  C   UNL     1       1.894  -1.243   7.545  0.00  0.00    +0.002 C 
ATOM     18  C   UNL     1       1.216  -2.608   7.683  0.00  0.00    -0.011 C 
ENDBRANCH   3  18
ENDBRANCH   1   3
BRANCH   1  19
ATOM     19  C   UNL     1       2.068  -3.820   4.228  0.00  0.00    -0.073 C 
BRANCH  19  20
ATOM     20  C   UNL     1       3.568  -3.531   4.311  0.00  0.00    +0.017 C 
BRANCH  20  21
ATOM     21  C   UNL     1       4.274  -4.202   3.160  0.00  0.00    -0.046 A 
ATOM     22  C   UNL     1       4.845  -5.449   3.333  0.00  0.00    +0.004 A 
ATOM     23  C   UNL     1       5.488  -6.066   2.276  0.00  0.00    +0.000 A 
ATOM     24  C   UNL     1       5.568  -5.432   1.050  0.00  0.00    +0.000 A 
ATOM     25  C   UNL     1       5.001  -4.184   0.879  0.00  0.00    +0.003 A 
ATOM     26  C   UNL     1       4.354  -3.568   1.935  0.00  0.00    -0.047 A 
ATOM     27  C   UNL     1       3.736  -2.206   1.748  0.00  0.00    +0.044 C 
ENDBRANCH  20  21
ENDBRANCH  19  20
ENDBRANCH   1  19
BRANCH   1  28
ATOM     28  C   UNL     1      -0.089  -3.158   5.106  0.00  0.00    -0.037 C 
BRANCH  28  29
ATOM     29  C   UNL     1      -0.500  -2.299   3.939  0.00  0.00    +0.001 A 
ATOM     30  C   UNL     1      -0.644  -2.853   2.710  0.00  0.00    +0.017 A 
ATOM     31  C   UNL     1      -1.046  -1.991   1.596  0.00  0.00    -0.001 A 
ATOM     32  C   UNL     1      -1.210  -2.506   0.306  0.00  0.00    +0.010 A 
ATOM     33  C   UNL     1      -1.585  -1.675  -0.712  0.00  0.00    +0.001 A 
ATOM     34  C   UNL     1      -1.810  -0.326  -0.475  0.00  0.00    +0.005 A 
ATOM     35  C   UNL     1      -1.648   0.204   0.787  0.00  0.00    -0.026 A 
ATOM     36  C   UNL     1      -1.267  -0.623   1.839  0.00  0.00    +0.052 A 
ATOM     37  N   UNL     1      -1.103  -0.121   3.112  0.00  0.00    -0.322 N 
ATOM     38  H   UNL     1      -1.256   0.823   3.277  0.00  0.00    +0.169 HD
ATOM     39  C   UNL     1      -0.735  -0.920   4.128  0.00  0.00    +0.251 A 
ATOM     40  O   UNL     1      -0.599  -0.442   5.241  0.00  0.00    -0.268 OA
ATOM     41  C   UNL     1      -1.890   1.672   1.028  0.00  0.00    +0.046 C 
ENDBRANCH  28  29
ENDBRANCH   1  28
TORSDOF 10
