REMARK  Name = ZINC49476989
REMARK  7 active torsions:
REMARK  status: ('A' for Active; 'I' for Inactive)
REMARK    1  A    between atoms: C_1  and  C_2
REMARK    2  A    between atoms: C_2  and  C_3
REMARK    3  A    between atoms: C_3  and  C_4
REMARK    4  A    between atoms: C_4  and  C_6
REMARK    5  A    between atoms: C_4  and  N_16
REMARK    6  A    between atoms: N_8  and  C_9
REMARK    7  A    between atoms: C_9  and  C_10
REMARK                            x       y       z     vdW  Elec       q    Type
REMARK                         _______ _______ _______ _____ _____    ______ ____
ROOT
ATOM      1  C   UNL     1       0.763  -2.041   1.233  0.00  0.00    +0.160 C 
ENDROOT
BRANCH   1   2
ATOM      2  N   UNL     1       1.551  -2.512   0.092  0.00  0.00    -0.288 N 
ATOM      3  C   UNL     1       0.972  -2.642  -1.119  0.00  0.00    +0.298 C 
ATOM      4  O   UNL     1      -0.203  -2.368  -1.263  0.00  0.00    -0.253 OA
ATOM      5  N   UNL     1       1.697  -3.076  -2.169  0.00  0.00    -0.313 N 
ATOM      6  H   UNL     1       2.489  -2.731   0.207  0.00  0.00    +0.151 HD
ATOM      7  H   UNL     1       2.635  -3.294  -2.054  0.00  0.00    +0.146 HD
ATOM      8  H   UNL     1       1.281  -3.169  -3.040  0.00  0.00    +0.146 HD
ENDBRANCH   1   2
BRANCH   1   9
ATOM      9  C   UNL     1       1.382  -2.542   2.512  0.00  0.00    +0.234 C 
ATOM     10  O   UNL     1       2.383  -3.225   2.474  0.00  0.00    -0.274 OA
ATOM     11  N   UNL     1       0.824  -2.230   3.699  0.00  0.00    -0.310 N 
ATOM     12  H   UNL     1       0.023  -1.683   3.729  0.00  0.00    +0.149 HD
BRANCH  11  13
ATOM     13  C   UNL     1       1.426  -2.717   4.942  0.00  0.00    +0.140 C 
BRANCH  13  14
ATOM     14  C   UNL     1       0.616  -2.232   6.117  0.00  0.00    -0.022 A 
ATOM     15  C   UNL     1       0.907  -1.022   6.719  0.00  0.00    +0.028 A 
ATOM     16  C   UNL     1       0.158  -0.616   7.774  0.00  0.00    +0.055 A 
ATOM     17  S   UNL     1      -1.002  -1.962   7.943  0.00  0.00    -0.090 S 
ATOM     18  C   UNL     1      -0.414  -2.973   6.594  0.00  0.00    +0.051 A 
ATOM     19 BR   UNL     1       0.304   0.966   8.799  0.00  0.00    -0.043 Br
ENDBRANCH  13  14
ENDBRANCH  11  13
ENDBRANCH   1   9
BRANCH   1  20
ATOM     20  C   UNL     1       0.742  -0.511   1.242  0.00  0.00    +0.031 C 
BRANCH  20  22
ATOM     21  C   UNL     1      -0.019   1.526   0.010  0.00  0.00    +0.004 C 
ATOM     22  C   UNL     1       0.002  -0.004   0.002  0.00  0.00    -0.001 C 
ENDBRANCH  20  22
ENDBRANCH   1  20
TORSDOF 6
