REMARK  Name = ZINC08836217
REMARK  12 active torsions:
REMARK  status: ('A' for Active; 'I' for Inactive)
REMARK    1  A    between atoms: C_1  and  N_60
REMARK    2  A    between atoms: C_2  and  N_60
REMARK    3  A    between atoms: C_3  and  C_4
REMARK    4  A    between atoms: C_3  and  N_60
REMARK    5  A    between atoms: C_4  and  C_5
REMARK    6  A    between atoms: C_5  and  N_6
REMARK    7  A    between atoms: C_7  and  C_27
REMARK    8  A    between atoms: C_10  and  C_11
REMARK    9  A    between atoms: C_10  and  O_22
REMARK   10  A    between atoms: C_17  and  O_20
REMARK   11  A    between atoms: O_20  and  C_21
REMARK   12  A    between atoms: C_30  and  N_33
REMARK                            x       y       z     vdW  Elec       q    Type
REMARK                         _______ _______ _______ _____ _____    ______ ____
ROOT
ATOM      1  N   UNL     1      -5.739   5.399   4.450  0.00  0.00    -0.284 N 
ATOM      2  C   UNL     1      -5.060   4.836   5.621  0.00  0.00    +0.145 C 
ATOM      3  C   UNL     1      -3.966   3.936   5.095  0.00  0.00    +0.074 C 
ATOM      4  C   UNL     1      -3.067   3.194   5.843  0.00  0.00    +0.168 C 
ATOM      5  C   UNL     1      -4.040   4.008   3.698  0.00  0.00    +0.249 C 
ATOM      6  O   UNL     1      -3.315   3.422   2.913  0.00  0.00    -0.282 OA
ATOM      7  C   UNL     1      -5.156   4.922   3.338  0.00  0.00    +0.288 C 
ATOM      8  O   UNL     1      -5.489   5.200   2.204  0.00  0.00    -0.266 OA
ENDROOT
BRANCH   4   9
ATOM      9  C   UNL     1      -1.986   2.468   5.178  0.00  0.00    +0.171 A 
ATOM     10  C   UNL     1      -0.673   2.501   5.544  0.00  0.00    +0.061 A 
ATOM     11  C   UNL     1       0.026   1.663   4.640  0.00  0.00    +0.025 A 
ATOM     12  C   UNL     1       1.372   1.298   4.502  0.00  0.00    +0.012 A 
ATOM     13  C   UNL     1       1.746   0.448   3.502  0.00  0.00    +0.004 A 
ATOM     14  C   UNL     1       0.804  -0.060   2.618  0.00  0.00    +0.049 A 
ATOM     15  C   UNL     1      -0.530   0.286   2.734  0.00  0.00    +0.163 A 
ATOM     16  C   UNL     1      -0.933   1.157   3.745  0.00  0.00    +0.177 A 
ATOM     17  O   UNL     1      -2.132   1.660   4.106  0.00  0.00    -0.448 OA
BRANCH  15  18
ATOM     18  O   UNL     1      -1.444  -0.217   1.863  0.00  0.00    -0.491 OA
ATOM     19  C   UNL     1      -0.957  -1.099   0.849  0.00  0.00    +0.277 C 
ENDBRANCH  15  18
ENDBRANCH   4   9
BRANCH   2  20
ATOM     20  C   UNL     1      -4.463   5.942   6.453  0.00  0.00    -0.022 A 
ATOM     21  C   UNL     1      -3.876   7.031   5.836  0.00  0.00    +0.008 A 
ATOM     22  C   UNL     1      -3.333   8.048   6.599  0.00  0.00    +0.033 A 
ATOM     23  C   UNL     1      -3.368   7.971   7.979  0.00  0.00    +0.126 A 
ATOM     24  C   UNL     1      -3.951   6.880   8.595  0.00  0.00    +0.033 A 
ATOM     25  C   UNL     1      -4.498   5.865   7.833  0.00  0.00    +0.008 A 
BRANCH  23  26
ATOM     26  N   UNL     1      -2.783   9.057   8.795  0.00  0.00    +0.056 N 
ATOM     27  O   UNL     1      -2.814   8.990  10.011  0.00  0.00    -0.126 OA
ATOM     28  O   UNL     1      -2.269  10.019   8.252  0.00  0.00    -0.126 OA
ENDBRANCH  23  26
ENDBRANCH   2  20
BRANCH   4  29
ATOM     29  O   UNL     1      -3.190   3.140   7.188  0.00  0.00    -0.503 OA
ATOM     30  H   UNL     1      -2.465   2.565   7.566  0.00  0.00    +0.292 HD
ENDBRANCH   4  29
BRANCH   1  31
ATOM     31  C   UNL     1      -6.870   6.330   4.487  0.00  0.00    +0.107 C 
BRANCH  31  32
ATOM     32  C   UNL     1      -6.347   7.767   4.503  0.00  0.00    +0.000 C 
BRANCH  32  33
ATOM     33  C   UNL     1      -7.527   8.739   4.542  0.00  0.00    -0.078 C 
BRANCH  33  36
ATOM     34  C   UNL     1      -8.118  11.080   4.356  0.00  0.00    -0.097 C 
ATOM     35  C   UNL     1      -6.299  10.402   5.803  0.00  0.00    -0.097 C 
ATOM     36  N   UNL     1      -7.007  10.123   4.536  0.00  0.00    +0.376 N 
ATOM     37  H   UNL     1      -6.347  10.227   3.756  0.00  0.00    -0.083 HD
ENDBRANCH  33  36
ENDBRANCH  32  33
ENDBRANCH  31  32
ENDBRANCH   1  31
TORSDOF 9
