REMARK  Name = ZINC08826439
REMARK  11 active torsions:
REMARK  status: ('A' for Active; 'I' for Inactive)
REMARK    1  A    between atoms: C_1  and  C_2
REMARK    2  A    between atoms: C_2  and  C_3
REMARK    3  A    between atoms: C_3  and  C_4
REMARK    4  A    between atoms: C_4  and  N_5
REMARK    5  A    between atoms: C_6  and  C_8
REMARK    6  A    between atoms: C_8  and  S_9
REMARK    7  A    between atoms: S_9  and  C_10
REMARK    8  A    between atoms: C_13  and  C_21
REMARK    9  A    between atoms: N_14  and  C_15
REMARK   10  A    between atoms: C_25  and  S_27
REMARK   11  A    between atoms: S_27  and  N_30
REMARK                            x       y       z     vdW  Elec       q    Type
REMARK                         _______ _______ _______ _____ _____    ______ ____
ROOT
ATOM      1  C   UNL     1      -5.039  -0.394   5.054  0.00  0.00    +0.197 A 
ATOM      2  N   UNL     1      -4.594  -1.293   4.205  0.00  0.00    -0.122 NA
ATOM      3  N   UNL     1      -3.782  -0.750   3.370  0.00  0.00    -0.128 NA
ATOM      4  C   UNL     1      -3.657   0.530   3.633  0.00  0.00    +0.169 A 
ATOM      5  N   UNL     1      -4.455   0.798   4.724  0.00  0.00    -0.270 N 
ENDROOT
BRANCH   5   6
ATOM      6  C   UNL     1      -4.633   2.034   5.361  0.00  0.00    +0.051 A 
ATOM      7  C   UNL     1      -3.586   2.609   6.069  0.00  0.00    +0.026 A 
ATOM      8  C   UNL     1      -3.763   3.830   6.690  0.00  0.00    +0.002 A 
ATOM      9  C   UNL     1      -4.984   4.474   6.617  0.00  0.00    +0.000 A 
ATOM     10  C   UNL     1      -6.031   3.901   5.918  0.00  0.00    +0.002 A 
ATOM     11  C   UNL     1      -5.858   2.683   5.290  0.00  0.00    +0.026 A 
ENDBRANCH   5   6
BRANCH   4  12
ATOM     12  C   UNL     1      -2.816   1.500   2.901  0.00  0.00    +0.021 A 
ATOM     13  C   UNL     1      -3.046   2.870   3.035  0.00  0.00    +0.012 A 
ATOM     14  C   UNL     1      -2.257   3.769   2.349  0.00  0.00    +0.003 A 
ATOM     15  C   UNL     1      -1.236   3.316   1.532  0.00  0.00    +0.028 A 
ATOM     16  C   UNL     1      -1.006   1.959   1.390  0.00  0.00    +0.106 A 
ATOM     17  C   UNL     1      -1.787   1.049   2.072  0.00  0.00    +0.040 A 
BRANCH  16  18
ATOM     18  S   UNL     1       0.293   1.392   0.344  0.00  0.00    +0.061 S 
ATOM     19  O   UNL     1       0.657   0.101   0.811  0.00  0.00    -0.153 OA
ATOM     20  O   UNL     1       1.229   2.458   0.244  0.00  0.00    -0.153 OA
BRANCH  18  21
ATOM     21  N   UNL     1      -0.351   1.185  -1.168  0.00  0.00    -0.177 NA
ATOM     22  C   UNL     1      -0.953  -0.055  -1.680  0.00  0.00    +0.109 C 
ATOM     23  C   UNL     1      -1.391   0.216  -3.135  0.00  0.00    +0.018 C 
ATOM     24  C   UNL     1      -0.494   1.412  -3.549  0.00  0.00    +0.018 C 
ATOM     25  C   UNL     1      -0.410   2.211  -2.225  0.00  0.00    +0.109 C 
ENDBRANCH  18  21
ENDBRANCH  16  18
ENDBRANCH   4  12
BRANCH   1  26
ATOM     26  S   UNL     1      -6.171  -0.673   6.375  0.00  0.00    -0.076 S 
BRANCH  26  27
ATOM     27  C   UNL     1      -6.468  -2.447   6.165  0.00  0.00    +0.173 C 
BRANCH  27  29
ATOM     28  N   UNL     1      -7.806  -4.217   7.257  0.00  0.00    -0.315 N 
ATOM     29  C   UNL     1      -7.436  -2.922   7.218  0.00  0.00    +0.223 C 
ATOM     30  O   UNL     1      -7.881  -2.139   8.030  0.00  0.00    -0.275 OA
ATOM     31  H   UNL     1      -7.450  -4.844   6.607  0.00  0.00    +0.149 HD
BRANCH  28  32
ATOM     32  C   UNL     1      -8.747  -4.680   8.280  0.00  0.00    +0.104 C 
BRANCH  32  33
ATOM     33  C   UNL     1      -8.998  -6.178   8.103  0.00  0.00    +0.018 C 
BRANCH  33  35
ATOM     34  C   UNL     1     -10.231  -8.160   8.994  0.00  0.00    +0.004 C 
ATOM     35  C   UNL     1      -9.981  -6.661   9.171  0.00  0.00    -0.002 C 
ENDBRANCH  33  35
ENDBRANCH  32  33
ENDBRANCH  28  32
ENDBRANCH  27  29
ENDBRANCH  26  27
ENDBRANCH   1  26
TORSDOF 10
