REMARK  Name = ZINC51693901
REMARK  8 active torsions:
REMARK  status: ('A' for Active; 'I' for Inactive)
REMARK    1  A    between atoms: C_1  and  C_2
REMARK    2  A    between atoms: C_2  and  C_3
REMARK    3  A    between atoms: C_2  and  N_4
REMARK    4  A    between atoms: N_4  and  S_5
REMARK    5  A    between atoms: S_5  and  C_8
REMARK    6  A    between atoms: C_13  and  N_14
REMARK    7  A    between atoms: N_14  and  C_15
REMARK    8  A    between atoms: C_18  and  N_21
REMARK                            x       y       z     vdW  Elec       q    Type
REMARK                         _______ _______ _______ _____ _____    ______ ____
ROOT
ATOM      1  C   UNL     1      -1.114  -2.159  -2.185  0.00  0.00    +0.126 A 
ATOM      2  C   UNL     1      -1.810  -3.334  -2.393  0.00  0.00    +0.030 A 
ATOM      3  C   UNL     1      -1.220  -4.376  -3.084  0.00  0.00    +0.002 A 
ATOM      4  C   UNL     1       0.069  -4.245  -3.570  0.00  0.00    +0.002 A 
ATOM      5  C   UNL     1       0.770  -3.073  -3.366  0.00  0.00    +0.025 A 
ATOM      6  C   UNL     1       0.178  -2.023  -2.676  0.00  0.00    +0.054 A 
ENDROOT
BRANCH   1   7
ATOM      7  S   UNL     1      -1.867  -0.832  -1.303  0.00  0.00    +0.060 S 
ATOM      8  O   UNL     1      -0.935  -0.422  -0.312  0.00  0.00    -0.153 OA
ATOM      9  O   UNL     1      -3.185  -1.255  -0.981  0.00  0.00    -0.153 OA
BRANCH   7  10
ATOM     10  N   UNL     1      -2.021   0.433  -2.360  0.00  0.00    -0.187 NA
ATOM     11  H   UNL     1      -1.540   1.260  -2.200  0.00  0.00    +0.148 HD
BRANCH  10  13
ATOM     12  C   UNL     1      -4.259   0.900  -3.229  0.00  0.00    +0.025 C 
ATOM     13  C   UNL     1      -2.884   0.304  -3.537  0.00  0.00    +0.070 C 
ATOM     14  C   UNL     1      -2.255   1.051  -4.715  0.00  0.00    +0.025 C 
ENDBRANCH  10  13
ENDBRANCH   7  10
ENDBRANCH   1   7
BRANCH   6  15
ATOM     15  N   UNL     1       0.882  -0.834  -2.473  0.00  0.00    -0.339 N 
ATOM     16  H   UNL     1       0.486  -0.119  -1.951  0.00  0.00    +0.146 HD
BRANCH  15  17
ATOM     17  C   UNL     1       2.219  -0.667  -3.049  0.00  0.00    +0.070 C 
ATOM     18  C   UNL     1       3.260  -1.270  -2.104  0.00  0.00    +0.020 C 
ATOM     19  C   UNL     1       3.195  -0.558  -0.752  0.00  0.00    -0.014 C 
ATOM     20  C   UNL     1       3.484   0.932  -0.945  0.00  0.00    -0.075 C 
ATOM     21  C   UNL     1       2.443   1.535  -1.890  0.00  0.00    -0.014 C 
ATOM     22  C   UNL     1       2.508   0.823  -3.242  0.00  0.00    +0.020 C 
BRANCH  20  23
ATOM     23  N   UNL     1       3.422   1.615   0.354  0.00  0.00    +0.380 N 
ATOM     24  H   UNL     1       4.158   1.270   0.951  0.00  0.00    -0.090 HD
ATOM     25  H   UNL     1       3.537   2.608   0.217  0.00  0.00    -0.090 HD
ATOM     26  H   UNL     1       2.527   1.437   0.785  0.00  0.00    -0.090 HD
ENDBRANCH  20  23
ENDBRANCH  15  17
ENDBRANCH   6  15
TORSDOF 6
