REMARK  Name = ZINC37559971
REMARK  5 active torsions:
REMARK  status: ('A' for Active; 'I' for Inactive)
REMARK    1  A    between atoms: C_3  and  N_12
REMARK    2  A    between atoms: C_4  and  C_8
REMARK    3  A    between atoms: N_12  and  S_13
REMARK    4  A    between atoms: S_13  and  C_16
REMARK    5  A    between atoms: C_21  and  N_22
REMARK                            x       y       z     vdW  Elec       q    Type
REMARK                         _______ _______ _______ _____ _____    ______ ____
ROOT
ATOM      1  S   UNL     1       3.562   3.779  -0.013  0.00  0.00    +0.096 S 
ATOM      2  O   UNL     1       2.994   4.184  -1.251  0.00  0.00    -0.148 OA
ATOM      3  O   UNL     1       3.018   4.172   1.240  0.00  0.00    -0.148 OA
ENDROOT
BRANCH   1   4
ATOM      4  C   UNL     1       5.238   4.321  -0.026  0.00  0.00    +0.166 A 
ATOM      5  C   UNL     1       5.865   5.034  -1.052  0.00  0.00    +0.133 A 
ATOM      6  N   UNL     1       7.106   5.255  -0.701  0.00  0.00    -0.304 N 
ATOM      7  H   UNL     1       8.145   4.705   1.065  0.00  0.00    +0.188 HD
ATOM      8  N   UNL     1       7.314   4.690   0.564  0.00  0.00    -0.286 N 
ATOM      9  C   UNL     1       6.153   4.125   0.964  0.00  0.00    +0.137 A 
ATOM     10  H   UNL     1       7.768   5.730  -1.227  0.00  0.00    +0.186 HD
BRANCH   9  11
ATOM     11  N   UNL     1       5.933   3.461   2.167  0.00  0.00    -0.342 N 
ATOM     12  H   UNL     1       5.060   3.085   2.361  0.00  0.00    +0.144 HD
ATOM     13  H   UNL     1       6.653   3.373   2.811  0.00  0.00    +0.144 HD
ENDBRANCH   9  11
ENDBRANCH   1   4
BRANCH   1  14
ATOM     14  N   UNL     1       3.582   2.123  -0.021  0.00  0.00    -0.097 NA
BRANCH  14  17
ATOM     15  C   UNL     1      -0.017   1.379   0.010  0.00  0.00    +0.017 A 
ATOM     16  C   UNL     1       1.169   2.087   0.002  0.00  0.00    +0.028 A 
ATOM     17  C   UNL     1       2.381   1.409  -0.013  0.00  0.00    +0.086 A 
ATOM     18  C   UNL     1       2.397   0.020  -0.021  0.00  0.00    +0.080 A 
ATOM     19  C   UNL     1       1.208  -0.682  -0.013  0.00  0.00    +0.029 A 
ATOM     20  C   UNL     1       0.002  -0.004   0.002  0.00  0.00    +0.019 A 
ATOM     21 BR   UNL     1      -1.624  -0.970   0.012  0.00  0.00    -0.050 Br
BRANCH  18  22
ATOM     22  C   UNL     1       3.710  -0.719  -0.038  0.00  0.00    +0.419 C 
ATOM     23  F   UNL     1       3.469  -2.097  -0.043  0.00  0.00    -0.166 F 
ATOM     24  F   UNL     1       4.428  -0.367  -1.185  0.00  0.00    -0.166 F 
ATOM     25  F   UNL     1       4.451  -0.379   1.099  0.00  0.00    -0.166 F 
ENDBRANCH  18  22
ENDBRANCH  14  17
ENDBRANCH   1  14
TORSDOF 5
