REMARK  Name = ZINC08419255
REMARK  3 active torsions:
REMARK  status: ('A' for Active; 'I' for Inactive)
REMARK    1  A    between atoms: C_6  and  C_7
REMARK    2  A    between atoms: C_11  and  N_19
REMARK    3  A    between atoms: C_12  and  C_16
REMARK                            x       y       z     vdW  Elec       q    Type
REMARK                         _______ _______ _______ _____ _____    ______ ____
ROOT
ATOM      1  C   UNL     1       2.480   1.071  -0.015  0.00  0.00    +0.072 A 
ATOM      2  C   UNL     1       3.678   1.792  -0.029  0.00  0.00    +0.029 A 
ATOM      3  C   UNL     1       4.875   1.141  -0.039  0.00  0.00    +0.014 A 
ATOM      4  C   UNL     1       4.892  -0.278  -0.046  0.00  0.00    +0.029 A 
ATOM      5  C   UNL     1       6.041  -1.169  -0.061  0.00  0.00    +0.053 A 
ATOM      6  C   UNL     1       5.814  -2.528  -0.066  0.00  0.00    +0.097 A 
ATOM      7  S   UNL     1       4.037  -2.651  -0.050  0.00  0.00    -0.062 S 
ATOM      8  C   UNL     1       3.633  -0.921  -0.037  0.00  0.00    +0.111 A 
ATOM      9  N   UNL     1       2.499  -0.257  -0.022  0.00  0.00    -0.239 NA
ENDROOT
BRANCH   1  15
ATOM     10  C   UNL     1      -0.013   1.076   0.008  0.00  0.00    +0.013 A 
ATOM     11  C   UNL     1      -1.216   1.750   0.017  0.00  0.00    +0.039 A 
ATOM     12  C   UNL     1      -1.236   3.136   0.030  0.00  0.00    +0.123 A 
ATOM     13  C   UNL     1      -0.048   3.850   0.023  0.00  0.00    +0.039 A 
ATOM     14  C   UNL     1       1.160   3.185   0.008  0.00  0.00    +0.013 A 
ATOM     15  C   UNL     1       1.185   1.790   0.000  0.00  0.00    +0.001 A 
ATOM     16  F   UNL     1      -2.417   3.792   0.044  0.00  0.00    -0.205 F 
ENDBRANCH   1  15
BRANCH   6  17
ATOM     17  C   UNL     1       6.767  -3.577  -0.082  0.00  0.00    +0.250 C 
ATOM     18  O   UNL     1       7.957  -3.319  -0.093  0.00  0.00    -0.270 OA
ATOM     19  N   UNL     1       6.356  -4.861  -0.084  0.00  0.00    -0.325 N 
ATOM     20  H   UNL     1       5.408  -5.067  -0.075  0.00  0.00    +0.145 HD
ATOM     21  H   UNL     1       7.008  -5.579  -0.095  0.00  0.00    +0.145 HD
ENDBRANCH   6  17
BRANCH   5  22
ATOM     22  N   UNL     1       7.334  -0.663  -0.072  0.00  0.00    -0.356 N 
ATOM     23  H   UNL     1       7.479   0.295  -0.069  0.00  0.00    +0.142 HD
ATOM     24  H   UNL     1       8.091  -1.269  -0.083  0.00  0.00    +0.142 HD
ENDBRANCH   5  22
TORSDOF 3
