REMARK  Name = ZINC61821362
REMARK  6 active torsions:
REMARK  status: ('A' for Active; 'I' for Inactive)
REMARK    1  A    between atoms: C_1  and  C_2
REMARK    2  A    between atoms: C_2  and  C_4
REMARK    3  A    between atoms: C_2  and  C_7
REMARK    4  A    between atoms: C_4  and  N_6
REMARK    5  A    between atoms: C_12  and  C_15
REMARK    6  A    between atoms: C_12  and  C_16
REMARK                            x       y       z     vdW  Elec       q    Type
REMARK                         _______ _______ _______ _____ _____    ______ ____
ROOT
ATOM      1  C   UNL     1       0.588  -0.712   1.185  0.00  0.00    +0.224 C 
ATOM      2  O   UNL     1       1.575  -1.408   1.075  0.00  0.00    -0.275 OA
ATOM      3  N   UNL     1      -0.011  -0.576   2.384  0.00  0.00    -0.301 N 
ATOM      4  C   UNL     1      -1.154   0.332   2.551  0.00  0.00    +0.108 C 
ATOM      5  C   UNL     1      -2.317  -0.448   3.174  0.00  0.00    +0.025 C 
ATOM      6  C   UNL     1      -1.845  -1.110   4.470  0.00  0.00    -0.032 C 
ATOM      7  C   UNL     1      -0.714  -2.093   4.161  0.00  0.00    +0.025 C 
ATOM      8  C   UNL     1       0.463  -1.337   3.548  0.00  0.00    +0.108 C 
ATOM      9  C   UNL     1      -1.338  -0.037   5.435  0.00  0.00    +0.011 C 
ATOM     10  C   UNL     1      -3.013  -1.862   5.112  0.00  0.00    +0.011 C 
ENDROOT
BRANCH   1  12
ATOM     11  C   UNL     1       1.144   0.202  -1.052  0.00  0.00    +0.024 C 
ATOM     12  C   UNL     1       0.032   0.002  -0.021  0.00  0.00    +0.123 C 
BRANCH  12  13
ATOM     13  C   UNL     1      -1.073  -0.823  -0.627  0.00  0.00    +0.058 C 
ATOM     14  S   UNL     1      -1.370  -2.293  -0.073  0.00  0.00    -0.040 S 
BRANCH  13  15
ATOM     15  N   UNL     1      -1.812  -0.322  -1.637  0.00  0.00    -0.355 N 
ATOM     16  H   UNL     1      -1.632   0.570  -1.974  0.00  0.00    +0.143 HD
ATOM     17  H   UNL     1      -2.524  -0.853  -2.028  0.00  0.00    +0.143 HD
ENDBRANCH  13  15
ENDBRANCH  12  13
ENDBRANCH   1  12
TORSDOF 3
