REMARK  Name = ZINC36594214
REMARK  16 active torsions:
REMARK  status: ('A' for Active; 'I' for Inactive)
REMARK    1  A    between atoms: C_1  and  C_2
REMARK    2  A    between atoms: C_2  and  C_3
REMARK    3  A    between atoms: N_5  and  C_6
REMARK    4  A    between atoms: N_5  and  C_24
REMARK    5  A    between atoms: C_6  and  C_8
REMARK    6  A    between atoms: C_6  and  C_17
REMARK    7  A    between atoms: C_9  and  O_16
REMARK    8  A    between atoms: C_11  and  O_15
REMARK    9  A    between atoms: C_13  and  O_14
REMARK   10  A    between atoms: N_19  and  C_20
REMARK   11  A    between atoms: C_20  and  C_21
REMARK   12  A    between atoms: C_20  and  C_22
REMARK   13  A    between atoms: C_20  and  C_23
REMARK   14  A    between atoms: C_24  and  C_25
REMARK   15  A    between atoms: C_24  and  C_26
REMARK   16  A    between atoms: C_24  and  C_27
REMARK                            x       y       z     vdW  Elec       q    Type
REMARK                         _______ _______ _______ _____ _____    ______ ____
ROOT
ATOM      1  C   UNL     1      -3.686  -2.470   0.640  0.00  0.00    +0.200 C 
ENDROOT
BRANCH   1   2
ATOM      2  C   UNL     1      -3.556  -3.704  -0.214  0.00  0.00    +0.065 A 
ATOM      3  C   UNL     1      -2.714  -4.734   0.178  0.00  0.00    +0.129 A 
ATOM      4  C   UNL     1      -2.594  -5.869  -0.609  0.00  0.00    +0.091 A 
ATOM      5  C   UNL     1      -3.317  -5.975  -1.788  0.00  0.00    +0.124 A 
ATOM      6  C   UNL     1      -4.160  -4.946  -2.180  0.00  0.00    +0.091 A 
ATOM      7  C   UNL     1      -4.283  -3.812  -1.391  0.00  0.00    +0.129 A 
BRANCH   7   8
ATOM      8  O   UNL     1      -5.112  -2.806  -1.772  0.00  0.00    -0.506 OA
ATOM      9  H   UNL     1      -4.689  -2.136  -2.327  0.00  0.00    +0.292 HD
ENDBRANCH   7   8
BRANCH   5  10
ATOM     10  O   UNL     1      -3.199  -7.088  -2.559  0.00  0.00    -0.507 OA
ATOM     11  H   UNL     1      -3.830  -7.787  -2.341  0.00  0.00    +0.292 HD
ENDBRANCH   5  10
BRANCH   3  12
ATOM     12  O   UNL     1      -2.006  -4.629   1.333  0.00  0.00    -0.506 OA
ATOM     13  H   UNL     1      -2.432  -5.046   2.094  0.00  0.00    +0.292 HD
ENDBRANCH   3  12
ENDBRANCH   1   2
BRANCH   1  14
ATOM     14  C   UNL     1      -4.009  -2.872   2.057  0.00  0.00    +0.239 C 
ATOM     15  O   UNL     1      -3.138  -2.870   2.901  0.00  0.00    -0.273 OA
ATOM     16  N   UNL     1      -5.265  -3.233   2.385  0.00  0.00    -0.309 N 
ATOM     17  H   UNL     1      -5.962  -3.234   1.710  0.00  0.00    +0.149 HD
BRANCH  16  18
ATOM     18  C   UNL     1      -5.579  -3.623   3.762  0.00  0.00    +0.026 C 
ATOM     19  C   UNL     1      -5.270  -2.459   4.705  0.00  0.00    +0.031 C 
ATOM     20  C   UNL     1      -7.062  -3.983   3.864  0.00  0.00    +0.031 C 
ATOM     21  C   UNL     1      -4.732  -4.835   4.154  0.00  0.00    +0.031 C 
ENDBRANCH  16  18
ENDBRANCH   1  14
BRANCH   1  24
ATOM     22  C   UNL     1      -1.364  -2.216  -0.053  0.00  0.00    +0.217 C 
ATOM     23  O   UNL     1      -1.491  -3.201  -0.750  0.00  0.00    -0.276 OA
ATOM     24  N   UNL     1      -2.424  -1.726   0.619  0.00  0.00    -0.281 N 
BRANCH  24  25
ATOM     25  C   UNL     1      -2.315  -0.449   1.330  0.00  0.00    +0.030 C 
ATOM     26  C   UNL     1      -2.180   0.689   0.316  0.00  0.00    +0.031 C 
ATOM     27  C   UNL     1      -3.567  -0.230   2.180  0.00  0.00    +0.031 C 
ATOM     28  C   UNL     1      -1.082  -0.474   2.235  0.00  0.00    +0.031 C 
ENDBRANCH  24  25
BRANCH  22  30
ATOM     29  C   UNL     1       0.935  -2.131  -0.977  0.00  0.00    +0.013 C 
ATOM     30  C   UNL     1      -0.022  -1.540   0.059  0.00  0.00    +0.092 C 
ENDBRANCH  22  30
ENDBRANCH   1  24
TORSDOF 9
