REMARK  Name = ZINC24965909
REMARK  11 active torsions:
REMARK  status: ('A' for Active; 'I' for Inactive)
REMARK    1  A    between atoms: C_1  and  O_2
REMARK    2  A    between atoms: O_2  and  C_3
REMARK    3  A    between atoms: C_6  and  C_9
REMARK    4  A    between atoms: C_9  and  C_11
REMARK    5  A    between atoms: C_9  and  N_31
REMARK    6  A    between atoms: C_11  and  N_12
REMARK    7  A    between atoms: C_13  and  C_15
REMARK    8  A    between atoms: C_15  and  S_16
REMARK    9  A    between atoms: S_16  and  C_17
REMARK   10  A    between atoms: N_27  and  C_28
REMARK   11  A    between atoms: C_28  and  C_29
REMARK                            x       y       z     vdW  Elec       q    Type
REMARK                         _______ _______ _______ _____ _____    ______ ____
ROOT
ATOM      1  N   UNL     1       2.222   7.256   2.278  0.00  0.00    -0.316 N 
ATOM      2  C   UNL     1       1.903   6.180   1.530  0.00  0.00    +0.223 C 
ATOM      3  O   UNL     1       2.427   6.016   0.449  0.00  0.00    -0.275 OA
ATOM      4  H   UNL     1       1.747   7.405   3.258  0.00  0.00    +0.149 HD
ENDROOT
BRANCH   1   5
ATOM      5  C   UNL     1       3.203   8.226   1.784  0.00  0.00    +0.093 C 
BRANCH   5   6
ATOM      6  C   UNL     1       3.277   9.411   2.748  0.00  0.00    -0.020 C 
BRANCH   6   7
ATOM      7  N   UNL     1       4.312  10.349   2.292  0.00  0.00    +0.385 N 
ATOM      8  C   UNL     1       5.616   9.683   2.185  0.00  0.00    -0.078 C 
ATOM      9  C   UNL     1       6.634  10.647   1.571  0.00  0.00    -0.019 C 
ATOM     10  C   UNL     1       6.747  11.892   2.454  0.00  0.00    -0.004 C 
ATOM     11  C   UNL     1       5.366  12.540   2.589  0.00  0.00    -0.019 C 
ATOM     12  C   UNL     1       4.385  11.521   3.173  0.00  0.00    -0.078 C 
ATOM     13  H   UNL     1       4.032  10.701   1.288  0.00  0.00    -0.081 HD
ENDBRANCH   6   7
BRANCH   6  17
ATOM     14  C   UNL     1      -0.502  11.402   2.855  0.00  0.00    +0.120 A 
ATOM     15  C   UNL     1      -0.156  10.515   3.863  0.00  0.00    +0.046 A 
ATOM     16  C   UNL     1       1.067   9.872   3.826  0.00  0.00    +0.005 A 
ATOM     17  C   UNL     1       1.944  10.113   2.786  0.00  0.00    -0.059 A 
ATOM     18  C   UNL     1       1.604  11.002   1.782  0.00  0.00    +0.005 A 
ATOM     19  C   UNL     1       0.380  11.642   1.812  0.00  0.00    +0.046 A 
BRANCH  14  21
ATOM     20  C   UNL     1      -1.994  12.936   1.818  0.00  0.00    +0.277 C 
ATOM     21  O   UNL     1      -1.704  12.036   2.889  0.00  0.00    -0.495 OA
ENDBRANCH  14  21
ENDBRANCH   6  17
ENDBRANCH   5   6
ENDBRANCH   1   5
BRANCH   2  22
ATOM     22  C   UNL     1       0.895   5.182   2.039  0.00  0.00    +0.173 C 
BRANCH  22  23
ATOM     23  S   UNL     1       0.683   3.863   0.818  0.00  0.00    -0.078 S 
BRANCH  23  24
ATOM     24  C   UNL     1      -0.512   2.868   1.646  0.00  0.00    +0.173 A 
ATOM     25  N   UNL     1      -0.941   3.256   2.821  0.00  0.00    -0.223 NA
ATOM     26  C   UNL     1      -1.851   2.541   3.513  0.00  0.00    +0.079 A 
ATOM     27  C   UNL     1      -2.304   2.952   4.770  0.00  0.00    +0.028 A 
ATOM     28  C   UNL     1      -3.227   2.196   5.436  0.00  0.00    +0.002 A 
ATOM     29  C   UNL     1      -3.723   1.022   4.884  0.00  0.00    +0.001 A 
ATOM     30  C   UNL     1      -3.299   0.594   3.656  0.00  0.00    +0.015 A 
ATOM     31  C   UNL     1      -2.358   1.346   2.953  0.00  0.00    +0.065 A 
ATOM     32  C   UNL     1      -1.866   0.935   1.632  0.00  0.00    +0.263 A 
ATOM     33  O   UNL     1      -2.266  -0.083   1.098  0.00  0.00    -0.267 OA
ATOM     34  N   UNL     1      -0.952   1.732   1.030  0.00  0.00    -0.283 N 
BRANCH  34  35
ATOM     35  C   UNL     1      -0.427   1.369  -0.289  0.00  0.00    +0.154 C 
BRANCH  35  36
ATOM     36  C   UNL     1      -1.295   1.978  -1.360  0.00  0.00    -0.013 C 
ATOM     37  C   UNL     1      -0.760   2.741  -2.281  0.00  0.00    +0.005 C 
ENDBRANCH  35  36
ENDBRANCH  34  35
ENDBRANCH  23  24
ENDBRANCH  22  23
ENDBRANCH   2  22
TORSDOF 10
