REMARK  Name = ZINC36231024
REMARK  5 active torsions:
REMARK  status: ('A' for Active; 'I' for Inactive)
REMARK    1  A    between atoms: C_1  and  C_2
REMARK    2  A    between atoms: C_3  and  N_16
REMARK    3  A    between atoms: C_4  and  C_15
REMARK    4  A    between atoms: N_5  and  C_7
REMARK    5  A    between atoms: C_7  and  C_8
REMARK                            x       y       z     vdW  Elec       q    Type
REMARK                         _______ _______ _______ _____ _____    ______ ____
ROOT
ATOM      1  C   UNL     1      -0.018   1.503   0.010  0.00  0.00    +0.069 C 
ATOM      2  C   UNL     1       0.002  -0.004   0.002  0.00  0.00    +0.081 A 
ATOM      3  C   UNL     1       0.008  -0.818  -1.139  0.00  0.00    +0.068 A 
ATOM      4  C   UNL     1       0.027  -2.111  -0.728  0.00  0.00    +0.057 A 
ATOM      5  N   UNL     1       0.034  -2.109   0.631  0.00  0.00    -0.264 N 
ATOM      6  N   UNL     1       0.023  -0.775   1.059  0.00  0.00    -0.174 NA
ATOM      7  C   UNL     1       0.040  -3.329  -1.617  0.00  0.00    +0.067 C 
ENDROOT
BRANCH   3   8
ATOM      8  N   UNL     1      -0.005  -0.373  -2.475  0.00  0.00    -0.355 N 
ATOM      9  H   UNL     1      -0.018   0.577  -2.670  0.00  0.00    +0.142 HD
ATOM     10  H   UNL     1       0.001  -1.017  -3.201  0.00  0.00    +0.142 HD
ENDBRANCH   3   8
BRANCH   5  11
ATOM     11  C   UNL     1       0.053  -3.292   1.496  0.00  0.00    +0.175 C 
BRANCH  11  12
ATOM     12  C   UNL     1       1.503  -3.684   1.790  0.00  0.00    +0.140 C 
ATOM     13  C   UNL     1       1.526  -4.990   2.589  0.00  0.00    +0.033 C 
ATOM     14  C   UNL     1       2.977  -5.344   2.932  0.00  0.00    +0.005 C 
ATOM     15  C   UNL     1       3.607  -4.179   3.702  0.00  0.00    +0.028 C 
ATOM     16  C   UNL     1       3.503  -2.905   2.860  0.00  0.00    +0.160 C 
ATOM     17  O   UNL     1       2.131  -2.650   2.550  0.00  0.00    -0.375 OA
ENDBRANCH  11  12
ENDBRANCH   5  11
TORSDOF 3
