REMARK  Name = ZINC36637457
REMARK  17 active torsions:
REMARK  status: ('A' for Active; 'I' for Inactive)
REMARK    1  A    between atoms: C_1  and  C_2
REMARK    2  A    between atoms: C_2  and  C_3
REMARK    3  A    between atoms: C_3  and  C_4
REMARK    4  A    between atoms: C_4  and  N_5
REMARK    5  A    between atoms: N_5  and  C_6
REMARK    6  A    between atoms: N_5  and  S_8
REMARK    7  A    between atoms: C_6  and  C_7
REMARK    8  A    between atoms: S_8  and  C_11
REMARK    9  A    between atoms: C_14  and  C_17
REMARK   10  A    between atoms: N_19  and  C_20
REMARK   11  A    between atoms: C_20  and  C_21
REMARK   12  A    between atoms: C_21  and  N_22
REMARK   13  A    between atoms: N_22  and  C_23
REMARK   14  A    between atoms: N_22  and  C_24
REMARK   15  A    between atoms: C_28  and  O_34
REMARK   16  A    between atoms: O_34  and  C_35
REMARK   17  A    between atoms: C_35  and  C_36
REMARK                            x       y       z     vdW  Elec       q    Type
REMARK                         _______ _______ _______ _____ _____    ______ ____
ROOT
ATOM      1  C   UNL     1      -6.154   1.873   3.545  0.00  0.00    +0.252 C 
ATOM      2  O   UNL     1      -5.602   2.578   4.367  0.00  0.00    -0.270 OA
ATOM      3  N   UNL     1      -7.415   2.147   3.159  0.00  0.00    -0.248 N 
ATOM      4  C   UNL     1      -8.035   3.308   3.593  0.00  0.00    +0.168 A 
ATOM      5  N   UNL     1      -7.561   4.254   4.368  0.00  0.00    -0.221 NA
ATOM      6  C   UNL     1      -8.285   5.342   4.712  0.00  0.00    +0.122 A 
ATOM      7  C   UNL     1      -7.895   6.428   5.536  0.00  0.00    +0.147 A 
ATOM      8  C   UNL     1      -8.764   7.464   5.787  0.00  0.00    +0.048 A 
ATOM      9  C   UNL     1     -10.042   7.483   5.248  0.00  0.00    +0.005 A 
ATOM     10  C   UNL     1     -10.453   6.439   4.441  0.00  0.00    +0.017 A 
ATOM     11  C   UNL     1      -9.593   5.399   4.183  0.00  0.00    +0.044 A 
ATOM     12  S   UNL     1      -9.682   3.901   3.232  0.00  0.00    -0.052 S 
ENDROOT
BRANCH   1  16
ATOM     13  C   UNL     1      -4.103  -1.458   1.890  0.00  0.00    +0.106 A 
ATOM     14  C   UNL     1      -3.397  -0.325   2.252  0.00  0.00    +0.029 A 
ATOM     15  C   UNL     1      -4.056   0.760   2.790  0.00  0.00    +0.015 A 
ATOM     16  C   UNL     1      -5.440   0.714   2.969  0.00  0.00    +0.037 A 
ATOM     17  C   UNL     1      -6.147  -0.432   2.600  0.00  0.00    +0.015 A 
ATOM     18  C   UNL     1      -5.476  -1.509   2.058  0.00  0.00    +0.029 A 
BRANCH  13  19
ATOM     19  S   UNL     1      -3.252  -2.840   1.204  0.00  0.00    +0.061 S 
ATOM     20  O   UNL     1      -4.066  -3.980   1.448  0.00  0.00    -0.153 OA
ATOM     21  O   UNL     1      -1.907  -2.754   1.654  0.00  0.00    -0.153 OA
BRANCH  19  22
ATOM     22  N   UNL     1      -3.216  -2.627  -0.438  0.00  0.00    -0.177 NA
BRANCH  22  23
ATOM     23  C   UNL     1      -4.300  -3.158  -1.270  0.00  0.00    +0.106 C 
ATOM     24  C   UNL     1      -3.904  -4.534  -1.807  0.00  0.00    +0.022 C 
ENDBRANCH  22  23
BRANCH  22  25
ATOM     25  C   UNL     1      -2.101  -1.909  -1.059  0.00  0.00    +0.109 C 
BRANCH  25  26
ATOM     26  C   UNL     1      -2.482  -0.438  -1.244  0.00  0.00    +0.017 C 
BRANCH  26  28
ATOM     27  C   UNL     1      -1.697   1.783  -2.077  0.00  0.00    +0.004 C 
ATOM     28  C   UNL     1      -1.317   0.312  -1.893  0.00  0.00    -0.002 C 
ENDBRANCH  26  28
ENDBRANCH  25  26
ENDBRANCH  22  25
ENDBRANCH  19  22
ENDBRANCH  13  19
ENDBRANCH   1  16
BRANCH   3  29
ATOM     29  C   UNL     1      -8.132   1.218   2.282  0.00  0.00    +0.097 C 
BRANCH  29  30
ATOM     30  C   UNL     1      -9.126   0.399   3.109  0.00  0.00    -0.060 C 
BRANCH  30  31
ATOM     31  N   UNL     1      -9.940  -0.433   2.213  0.00  0.00    +0.377 N 
ATOM     32  C   UNL     1      -9.081  -1.424   1.551  0.00  0.00    -0.097 C 
ATOM     33  C   UNL     1     -10.974  -1.125   2.993  0.00  0.00    -0.097 C 
ATOM     34  H   UNL     1     -10.377   0.151   1.517  0.00  0.00    -0.083 HD
ENDBRANCH  30  31
ENDBRANCH  29  30
ENDBRANCH   3  29
BRANCH   7  35
ATOM     35  O   UNL     1      -6.650   6.446   6.082  0.00  0.00    -0.490 OA
BRANCH  35  36
ATOM     36  C   UNL     1      -6.318   7.568   6.902  0.00  0.00    +0.226 C 
ATOM     37  C   UNL     1      -4.888   7.412   7.424  0.00  0.00    +0.048 C 
ENDBRANCH  35  36
ENDBRANCH   7  35
TORSDOF 12
