REMARK  Name = ZINC38981432
REMARK  10 active torsions:
REMARK  status: ('A' for Active; 'I' for Inactive)
REMARK    1  A    between atoms: C_1  and  C_2
REMARK    2  A    between atoms: C_2  and  C_3
REMARK    3  A    between atoms: C_2  and  O_4
REMARK    4  A    between atoms: O_4  and  C_5
REMARK    5  A    between atoms: C_9  and  C_11
REMARK    6  A    between atoms: N_17  and  N_18
REMARK    7  A    between atoms: C_19  and  C_20
REMARK    8  A    between atoms: C_22  and  O_28
REMARK    9  A    between atoms: C_23  and  O_27
REMARK   10  A    between atoms: O_28  and  C_29
REMARK                            x       y       z     vdW  Elec       q    Type
REMARK                         _______ _______ _______ _____ _____    ______ ____
ROOT
ATOM      1  C   UNL     1      -4.187  -4.124  -0.957  0.00  0.00    +0.264 C 
ATOM      2  N   UNL     1      -4.693  -3.676   0.350  0.00  0.00    -0.189 NA
ATOM      3  N   UNL     1      -4.880  -4.674   1.051  0.00  0.00    -0.219 N 
ATOM      4  C   UNL     1      -4.572  -5.840   0.424  0.00  0.00    +0.174 C 
ATOM      5  S   UNL     1      -4.719  -7.397   1.121  0.00  0.00    -0.015 S 
ATOM      6  N   UNL     1      -4.133  -5.593  -0.834  0.00  0.00    -0.172 N 
ATOM      7  H   UNL     1      -5.213  -4.630   1.961  0.00  0.00    +0.176 HD
ENDROOT
BRANCH   1  12
ATOM      8  C   UNL     1      -1.209  -1.799  -0.966  0.00  0.00    +0.121 A 
ATOM      9  C   UNL     1      -0.283  -2.541  -1.686  0.00  0.00    +0.045 A 
ATOM     10  C   UNL     1      -0.625  -3.791  -2.165  0.00  0.00    +0.004 A 
ATOM     11  C   UNL     1      -1.888  -4.302  -1.929  0.00  0.00    +0.007 A 
ATOM     12  C   UNL     1      -2.812  -3.564  -1.212  0.00  0.00    +0.001 A 
ATOM     13  C   UNL     1      -2.473  -2.316  -0.726  0.00  0.00    +0.053 A 
BRANCH   8  14
ATOM     14  O   UNL     1      -0.875  -0.569  -0.493  0.00  0.00    -0.489 OA
BRANCH  14  16
ATOM     15  C   UNL     1      -1.117   1.108   1.230  0.00  0.00    +0.051 C 
ATOM     16  C   UNL     1      -1.831   0.085   0.344  0.00  0.00    +0.167 C 
ATOM     17  C   UNL     1      -2.867   0.799  -0.526  0.00  0.00    +0.051 C 
ENDBRANCH  14  16
ENDBRANCH   8  14
ENDBRANCH   1  12
BRANCH   6  18
ATOM     18  N   UNL     1      -3.721  -6.520  -1.800  0.00  0.00    -0.183 NA
ATOM     19  C   UNL     1      -3.851  -7.793  -1.575  0.00  0.00    +0.138 C 
BRANCH  19  20
ATOM     20  C   UNL     1      -3.282  -8.770  -2.521  0.00  0.00    -0.001 A 
ATOM     21  C   UNL     1      -3.425 -10.140  -2.284  0.00  0.00    +0.059 A 
ATOM     22  C   UNL     1      -2.890 -11.052  -3.174  0.00  0.00    +0.163 A 
ATOM     23  C   UNL     1      -2.209 -10.605  -4.304  0.00  0.00    +0.173 A 
ATOM     24  C   UNL     1      -2.066  -9.245  -4.540  0.00  0.00    +0.063 A 
ATOM     25  C   UNL     1      -2.603  -8.329  -3.659  0.00  0.00    +0.028 A 
ATOM     26 BR   UNL     1      -1.139  -8.646  -6.076  0.00  0.00    -0.046 Br
BRANCH  23  27
ATOM     27  O   UNL     1      -1.683 -11.504  -5.178  0.00  0.00    -0.503 OA
ATOM     28  H   UNL     1      -2.288 -11.764  -5.887  0.00  0.00    +0.292 HD
ENDBRANCH  23  27
BRANCH  22  29
ATOM     29  O   UNL     1      -3.028 -12.385  -2.946  0.00  0.00    -0.491 OA
ATOM     30  C   UNL     1      -3.737 -12.772  -1.767  0.00  0.00    +0.277 C 
ENDBRANCH  22  29
ENDBRANCH  19  20
ENDBRANCH   6  18
TORSDOF 7
