REMARK  Name = ZINC06632914
REMARK  8 active torsions:
REMARK  status: ('A' for Active; 'I' for Inactive)
REMARK    1  A    between atoms: C_1  and  C_2
REMARK    2  A    between atoms: C_7  and  N_8
REMARK    3  A    between atoms: N_8  and  C_9
REMARK    4  A    between atoms: C_9  and  N_11
REMARK    5  A    between atoms: N_11  and  N_12
REMARK    6  A    between atoms: N_12  and  C_13
REMARK    7  A    between atoms: C_13  and  N_15
REMARK    8  A    between atoms: N_15  and  C_16
REMARK                            x       y       z     vdW  Elec       q    Type
REMARK                         _______ _______ _______ _____ _____    ______ ____
ROOT
ATOM      1  N   UNL     1       2.380   1.377  -0.398  0.00  0.00    -0.246 N 
ATOM      2  H   UNL     1       2.391   0.450  -0.684  0.00  0.00    +0.172 HD
ENDROOT
BRANCH   1   3
ATOM      3  C   UNL     1       3.518   2.099  -0.410  0.00  0.00    +0.151 C 
ATOM      4  S   UNL     1       4.983   1.379  -0.927  0.00  0.00    -0.017 S 
BRANCH   3   5
ATOM      5  N   UNL     1       3.504   3.387  -0.013  0.00  0.00    -0.296 N 
ATOM      6  H   UNL     1       2.663   3.818   0.204  0.00  0.00    +0.154 HD
BRANCH   5  13
ATOM      7  C   UNL     1       3.574   6.039  -1.042  0.00  0.00    +0.045 C 
ATOM      8  C   UNL     1       4.780   5.399  -0.405  0.00  0.00    -0.029 A 
ATOM      9  C   UNL     1       5.965   6.103  -0.307  0.00  0.00    +0.005 A 
ATOM     10  C   UNL     1       7.072   5.517   0.279  0.00  0.00    +0.000 A 
ATOM     11  C   UNL     1       6.997   4.225   0.768  0.00  0.00    +0.002 A 
ATOM     12  C   UNL     1       5.815   3.518   0.677  0.00  0.00    +0.023 A 
ATOM     13  C   UNL     1       4.702   4.102   0.085  0.00  0.00    +0.036 A 
ENDBRANCH   5  13
ENDBRANCH   3   5
ENDBRANCH   1   3
BRANCH   1  14
ATOM     14  N   UNL     1       1.182   1.966   0.025  0.00  0.00    -0.247 N 
ATOM     15  H   UNL     1       1.171   2.893   0.311  0.00  0.00    +0.172 HD
BRANCH  14  16
ATOM     16  C   UNL     1       0.043   1.245   0.037  0.00  0.00    +0.147 C 
ATOM     17  S   UNL     1      -1.423   1.967   0.548  0.00  0.00    -0.017 S 
BRANCH  16  18
ATOM     18  N   UNL     1       0.058  -0.043  -0.360  0.00  0.00    -0.323 N 
ATOM     19  H   UNL     1       0.888  -0.451  -0.653  0.00  0.00    +0.148 HD
BRANCH  18  20
ATOM     20  C   UNL     1      -1.179  -0.828  -0.347  0.00  0.00    +0.072 C 
ATOM     21  C   UNL     1      -1.399  -1.413   1.049  0.00  0.00    +0.022 C 
ATOM     22  C   UNL     1      -2.691  -2.232   1.062  0.00  0.00    +0.002 C 
ATOM     23  C   UNL     1      -2.584  -3.369   0.044  0.00  0.00    +0.000 C 
ATOM     24  C   UNL     1      -2.365  -2.783  -1.353  0.00  0.00    +0.002 C 
ATOM     25  C   UNL     1      -1.073  -1.964  -1.366  0.00  0.00    +0.022 C 
ENDBRANCH  18  20
ENDBRANCH  16  18
ENDBRANCH  14  16
ENDBRANCH   1  14
TORSDOF 7
