REMARK  Name = ZINC33331476
REMARK  6 active torsions:
REMARK  status: ('A' for Active; 'I' for Inactive)
REMARK    1  A    between atoms: C_1  and  C_2
REMARK    2  A    between atoms: C_9  and  C_21
REMARK    3  A    between atoms: C_10  and  N_12
REMARK    4  A    between atoms: N_12  and  C_13
REMARK    5  A    between atoms: C_13  and  C_14
REMARK    6  A    between atoms: C_23  and  C_26
REMARK                            x       y       z     vdW  Elec       q    Type
REMARK                         _______ _______ _______ _____ _____    ______ ____
ROOT
ATOM      1  C   UNL     1       1.026 -10.427  -1.448  0.00  0.00    +0.044 C 
ATOM      2  C   UNL     1       1.151  -8.937  -1.258  0.00  0.00    -0.050 A 
ATOM      3  C   UNL     1       1.406  -8.425   0.012  0.00  0.00    +0.005 A 
ATOM      4  C   UNL     1       1.525  -7.085   0.218  0.00  0.00    +0.028 A 
ATOM      5  C   UNL     1       1.389  -6.197  -0.863  0.00  0.00    +0.073 A 
ATOM      6  C   UNL     1       1.130  -6.720  -2.154  0.00  0.00    +0.001 A 
ATOM      7  C   UNL     1       1.014  -8.109  -2.330  0.00  0.00    +0.013 A 
ATOM      8  C   UNL     1       0.994  -5.835  -3.240  0.00  0.00    +0.025 A 
ATOM      9  C   UNL     1       1.121  -4.479  -2.997  0.00  0.00    +0.063 A 
ATOM     10  C   UNL     1       1.379  -4.030  -1.683  0.00  0.00    +0.131 A 
ATOM     11  N   UNL     1       1.508  -4.876  -0.683  0.00  0.00    -0.232 NA
ENDROOT
BRANCH   9  12
ATOM     12  C   UNL     1       0.986  -3.505  -4.106  0.00  0.00    +0.205 A 
ATOM     13  N   UNL     1       1.575  -3.584  -5.321  0.00  0.00    -0.191 NA
ATOM     14  C   UNL     1       1.180  -2.520  -5.974  0.00  0.00    +0.225 A 
ATOM     15  O   UNL     1       0.376  -1.832  -5.157  0.00  0.00    -0.338 OA
ATOM     16  N   UNL     1       0.270  -2.409  -4.095  0.00  0.00    -0.056 NA
ATOM     17  C   UNL     1       1.561  -2.141  -7.382  0.00  0.00    +0.112 C 
ENDBRANCH   9  12
BRANCH  10  18
ATOM     18  N   UNL     1       1.506  -2.673  -1.442  0.00  0.00    -0.324 N 
ATOM     19  H   UNL     1       1.490  -1.962  -2.281  0.00  0.00    +0.148 HD
BRANCH  18  20
ATOM     20  C   UNL     1       1.659  -2.183  -0.070  0.00  0.00    +0.138 C 
BRANCH  20  21
ATOM     21  C   UNL     1       1.776  -0.680  -0.083  0.00  0.00    -0.030 A 
ATOM     22  C   UNL     1       0.639   0.101   0.011  0.00  0.00    +0.008 A 
ATOM     23  C   UNL     1       0.745   1.479   0.001  0.00  0.00    +0.038 A 
ATOM     24  C   UNL     1       1.989   2.077  -0.105  0.00  0.00    +0.123 A 
ATOM     25  C   UNL     1       3.126   1.293  -0.200  0.00  0.00    +0.038 A 
ATOM     26  C   UNL     1       3.019  -0.085  -0.189  0.00  0.00    +0.008 A 
ATOM     27  F   UNL     1       2.093   3.424  -0.116  0.00  0.00    -0.205 F 
ENDBRANCH  20  21
ENDBRANCH  18  20
ENDBRANCH  10  18
TORSDOF 4
