REMARK  Name = ZINC03007133
REMARK  11 active torsions:
REMARK  status: ('A' for Active; 'I' for Inactive)
REMARK    1  A    between atoms: C_1  and  C_2
REMARK    2  A    between atoms: N_7  and  S_9
REMARK    3  A    between atoms: S_9  and  C_12
REMARK    4  A    between atoms: C_15  and  C_18
REMARK    5  A    between atoms: N_20  and  C_21
REMARK    6  A    between atoms: C_22  and  C_32
REMARK    7  A    between atoms: C_29  and  C_30
REMARK    8  A    between atoms: C_29  and  C_31
REMARK    9  A    between atoms: C_29  and  N_68
REMARK   10  A    between atoms: C_32  and  O_34
REMARK   11  A    between atoms: O_34  and  C_35
REMARK                            x       y       z     vdW  Elec       q    Type
REMARK                         _______ _______ _______ _____ _____    ______ ____
ROOT
ATOM      1  C   UNL     1       0.081  -1.813   5.732  0.00  0.00    +0.249 C 
ATOM      2  O   UNL     1      -0.964  -2.010   6.321  0.00  0.00    -0.270 OA
ATOM      3  N   UNL     1       1.257  -2.000   6.363  0.00  0.00    -0.275 N 
ATOM      4  H   UNL     1       2.090  -1.843   5.893  0.00  0.00    +0.156 HD
ENDROOT
BRANCH   3   5
ATOM      5  C   UNL     1       1.275  -2.417   7.684  0.00  0.00    +0.086 A 
ATOM      6  C   UNL     1       2.376  -2.668   8.495  0.00  0.00    +0.091 A 
ATOM      7  C   UNL     1       2.117  -3.095   9.858  0.00  0.00    -0.025 A 
ATOM      8  C   UNL     1       0.812  -3.214  10.189  0.00  0.00    -0.021 A 
ATOM      9  S   UNL     1      -0.069  -2.760   8.723  0.00  0.00    -0.079 S 
ATOM     10  C   UNL     1       0.267  -3.641  11.515  0.00  0.00    -0.035 C 
ATOM     11  C   UNL     1       2.554  -3.392  12.275  0.00  0.00    -0.073 C 
ATOM     12  C   UNL     1       3.198  -3.406  10.886  0.00  0.00    +0.018 C 
ATOM     13  N   UNL     1       1.370  -4.276  12.276  0.00  0.00    +0.384 N 
ATOM     14  H   UNL     1       1.618  -5.165  11.826  0.00  0.00    -0.081 HD
BRANCH  13  15
ATOM     15  C   UNL     1       0.939  -4.543  13.665  0.00  0.00    -0.074 C 
ATOM     16  C   UNL     1       0.544  -3.240  14.362  0.00  0.00    -0.014 C 
ATOM     17  C   UNL     1      -0.261  -5.492  13.639  0.00  0.00    -0.014 C 
ENDBRANCH  13  15
BRANCH   6  18
ATOM     18  C   UNL     1       3.742  -2.504   7.995  0.00  0.00    +0.342 C 
ATOM     19  O   UNL     1       4.305  -1.431   8.105  0.00  0.00    -0.245 OA
BRANCH  18  20
ATOM     20  O   UNL     1       4.377  -3.542   7.413  0.00  0.00    -0.464 OA
ATOM     21  C   UNL     1       5.730  -3.307   6.941  0.00  0.00    +0.280 C 
ENDBRANCH  18  20
ENDBRANCH   6  18
ENDBRANCH   3   5
BRANCH   1  25
ATOM     22  C   UNL     1       0.025  -0.534   1.682  0.00  0.00    +0.106 A 
ATOM     23  C   UNL     1       1.234  -0.730   2.326  0.00  0.00    +0.029 A 
ATOM     24  C   UNL     1       1.259  -1.141   3.643  0.00  0.00    +0.015 A 
ATOM     25  C   UNL     1       0.062  -1.368   4.323  0.00  0.00    +0.037 A 
ATOM     26  C   UNL     1      -1.155  -1.173   3.666  0.00  0.00    +0.015 A 
ATOM     27  C   UNL     1      -1.166  -0.757   2.350  0.00  0.00    +0.029 A 
BRANCH  22  28
ATOM     28  S   UNL     1       0.002  -0.004   0.002  0.00  0.00    +0.061 S 
ATOM     29  O   UNL     1      -1.243  -0.424  -0.539  0.00  0.00    -0.153 OA
ATOM     30  O   UNL     1       1.248  -0.390  -0.563  0.00  0.00    -0.153 OA
BRANCH  28  36
ATOM     31  C   UNL     1       2.453   4.301   1.106  0.00  0.00    +0.009 C 
ATOM     32  C   UNL     1       1.217   3.403   1.176  0.00  0.00    +0.002 C 
ATOM     33  C   UNL     1      -0.046   4.264   1.096  0.00  0.00    +0.006 C 
ATOM     34  C   UNL     1      -1.283   3.369   1.199  0.00  0.00    +0.017 C 
ATOM     35  C   UNL     1      -1.295   2.383   0.021  0.00  0.00    +0.109 C 
ATOM     36  N   UNL     1      -0.020   1.652   0.011  0.00  0.00    -0.176 NA
ATOM     37  C   UNL     1       1.234   2.417   0.003  0.00  0.00    +0.112 C 
ENDBRANCH  28  36
ENDBRANCH  22  28
ENDBRANCH   1  25
TORSDOF 7
