REMARK  Name = ZINC39938514
REMARK  7 active torsions:
REMARK  status: ('A' for Active; 'I' for Inactive)
REMARK    1  A    between atoms: C_1  and  C_2
REMARK    2  A    between atoms: C_3  and  C_27
REMARK    3  A    between atoms: C_4  and  N_15
REMARK    4  A    between atoms: C_7  and  C_9
REMARK    5  A    between atoms: C_16  and  C_18
REMARK    6  A    between atoms: C_18  and  S_19
REMARK    7  A    between atoms: S_19  and  C_20
REMARK                            x       y       z     vdW  Elec       q    Type
REMARK                         _______ _______ _______ _____ _____    ______ ____
ROOT
ATOM      1  C   UNL     1      -0.045   1.318  -0.389  0.00  0.00    +0.041 C 
ATOM      2  C   UNL     1      -0.004  -0.168  -0.142  0.00  0.00    -0.045 C 
ATOM      3  C   UNL     1      -0.127  -1.016  -1.131  0.00  0.00    +0.045 C 
ATOM      4  C   UNL     1      -0.077  -2.502  -0.818  0.00  0.00    +0.167 C 
ATOM      5  S   UNL     1      -0.299  -2.482   1.014  0.00  0.00    -0.121 S 
ATOM      6  C   UNL     1       0.188  -0.718   1.261  0.00  0.00    +0.104 C 
ENDROOT
BRANCH   3   7
ATOM      7  C   UNL     1      -0.310  -0.543  -2.511  0.00  0.00    +0.245 C 
ATOM      8  O   UNL     1      -1.425  -0.498  -2.996  0.00  0.00    -0.270 OA
ATOM      9  N   UNL     1       0.757  -0.159  -3.239  0.00  0.00    -0.298 N 
ATOM     10  C   UNL     1       2.119  -0.316  -2.711  0.00  0.00    +0.108 C 
ATOM     11  C   UNL     1       2.956  -1.095  -3.731  0.00  0.00    +0.019 C 
ATOM     12  C   UNL     1       2.885  -0.390  -5.087  0.00  0.00    +0.003 C 
ATOM     13  C   UNL     1       1.435  -0.362  -5.574  0.00  0.00    +0.019 C 
ATOM     14  C   UNL     1       0.581   0.419  -4.578  0.00  0.00    +0.108 C 
ENDBRANCH   3   7
BRANCH   6  15
ATOM     15  C   UNL     1      -0.729  -0.035   2.242  0.00  0.00    -0.030 A 
ATOM     16  C   UNL     1      -2.099  -0.105   2.073  0.00  0.00    +0.005 A 
ATOM     17  C   UNL     1      -2.940   0.522   2.973  0.00  0.00    +0.000 A 
ATOM     18  C   UNL     1      -2.411   1.218   4.043  0.00  0.00    +0.000 A 
ATOM     19  C   UNL     1      -1.041   1.288   4.214  0.00  0.00    +0.000 A 
ATOM     20  C   UNL     1      -0.200   0.657   3.316  0.00  0.00    +0.005 A 
ENDBRANCH   6  15
BRANCH   4  21
ATOM     21  N   UNL     1      -1.172  -3.217  -1.476  0.00  0.00    -0.299 N 
ATOM     22  C   UNL     1      -0.931  -4.380  -2.114  0.00  0.00    +0.224 C 
ATOM     23  O   UNL     1       0.206  -4.788  -2.221  0.00  0.00    -0.275 OA
ATOM     24  H   UNL     1      -2.072  -2.854  -1.453  0.00  0.00    +0.150 HD
BRANCH  22  25
ATOM     25  C   UNL     1      -2.074  -5.173  -2.692  0.00  0.00    +0.173 C 
BRANCH  25  26
ATOM     26  S   UNL     1      -1.449  -6.746  -3.345  0.00  0.00    -0.075 S 
BRANCH  26  27
ATOM     27  C   UNL     1      -2.886  -7.546  -3.978  0.00  0.00    +0.210 A 
ATOM     28  N   UNL     1      -4.102  -7.057  -3.956  0.00  0.00    -0.144 NA
ATOM     29  H   UNL     1      -5.896  -7.942  -4.693  0.00  0.00    +0.192 HD
ATOM     30  N   UNL     1      -4.938  -8.011  -4.559  0.00  0.00    -0.246 N 
ATOM     31  C   UNL     1      -4.145  -9.044  -4.914  0.00  0.00    +0.209 A 
ATOM     32  N   UNL     1      -2.912  -8.749  -4.563  0.00  0.00    -0.188 NA
ATOM     33  N   UNL     1      -4.556 -10.206  -5.541  0.00  0.00    -0.328 N 
ATOM     34  H   UNL     1      -5.492 -10.331  -5.765  0.00  0.00    +0.145 HD
ATOM     35  H   UNL     1      -3.909 -10.895  -5.758  0.00  0.00    +0.145 HD
ENDBRANCH  26  27
ENDBRANCH  25  26
ENDBRANCH  22  25
ENDBRANCH   4  21
TORSDOF 6
