REMARK  Name = ZINC13513423
REMARK  8 active torsions:
REMARK  status: ('A' for Active; 'I' for Inactive)
REMARK    1  A    between atoms: C_1  and  C_2
REMARK    2  A    between atoms: C_6  and  N_8
REMARK    3  A    between atoms: C_9  and  C_11
REMARK    4  A    between atoms: C_11  and  S_12
REMARK    5  A    between atoms: S_12  and  C_13
REMARK    6  A    between atoms: C_18  and  S_28
REMARK    7  A    between atoms: S_28  and  C_29
REMARK    8  A    between atoms: C_29  and  C_30
REMARK                            x       y       z     vdW  Elec       q    Type
REMARK                         _______ _______ _______ _____ _____    ______ ____
ROOT
ATOM      1  C   UNL     1      -1.500  -2.835   0.377  0.00  0.00    +0.198 A 
ATOM      2  N   UNL     1      -2.445  -3.732   0.216  0.00  0.00    -0.122 NA
ATOM      3  N   UNL     1      -3.604  -3.173   0.259  0.00  0.00    -0.128 NA
ATOM      4  C   UNL     1      -3.466  -1.885   0.450  0.00  0.00    +0.174 A 
ATOM      5  N   UNL     1      -2.115  -1.623   0.532  0.00  0.00    -0.248 N 
ATOM      6  C   UNL     1      -1.668  -0.344   0.732  0.00  0.00    +0.178 A 
ATOM      7  N   UNL     1      -2.504   0.661   0.856  0.00  0.00    -0.216 NA
ATOM      8  C   UNL     1      -3.824   0.497   0.784  0.00  0.00    +0.115 A 
ATOM      9  C   UNL     1      -4.412  -0.756   0.582  0.00  0.00    +0.056 A 
ATOM     10  C   UNL     1      -5.879  -0.782   0.529  0.00  0.00    -0.024 A 
ATOM     11  C   UNL     1      -6.515   0.394   0.683  0.00  0.00    -0.004 A 
ATOM     12  S   UNL     1      -5.217   1.589   0.899  0.00  0.00    -0.073 S 
ATOM     13  C   UNL     1      -8.011   0.244   0.615  0.00  0.00    +0.043 C 
ATOM     14  C   UNL     1      -8.259  -1.266   0.824  0.00  0.00    +0.010 C 
ATOM     15  C   UNL     1      -6.933  -1.875   0.326  0.00  0.00    +0.037 C 
ENDROOT
BRANCH   1  16
ATOM     16  S   UNL     1       0.236  -3.136   0.391  0.00  0.00    -0.076 S 
BRANCH  16  17
ATOM     17  C   UNL     1       0.373  -4.926   0.137  0.00  0.00    +0.173 C 
BRANCH  17  19
ATOM     18  N   UNL     1       2.173  -6.613  -0.047  0.00  0.00    -0.285 N 
ATOM     19  C   UNL     1       1.827  -5.322   0.128  0.00  0.00    +0.227 C 
ATOM     20  O   UNL     1       2.686  -4.480   0.278  0.00  0.00    -0.275 OA
ATOM     21  H   UNL     1       1.487  -7.298  -0.090  0.00  0.00    +0.155 HD
BRANCH  18  27
ATOM     22  C   UNL     1       5.784  -9.856   0.739  0.00  0.00    +0.044 C 
ATOM     23  C   UNL     1       5.299  -8.532   0.207  0.00  0.00    -0.049 A 
ATOM     24  C   UNL     1       6.189  -7.665  -0.401  0.00  0.00    +0.003 A 
ATOM     25  C   UNL     1       5.748  -6.449  -0.891  0.00  0.00    +0.002 A 
ATOM     26  C   UNL     1       4.416  -6.100  -0.780  0.00  0.00    +0.023 A 
ATOM     27  C   UNL     1       3.522  -6.966  -0.166  0.00  0.00    +0.034 A 
ATOM     28  C   UNL     1       3.968  -8.187   0.326  0.00  0.00    +0.026 A 
ENDBRANCH  18  27
ENDBRANCH  17  19
ENDBRANCH  16  17
ENDBRANCH   1  16
BRANCH   6  29
ATOM     29  S   UNL     1       0.065  -0.042   0.831  0.00  0.00    -0.083 S 
BRANCH  29  30
ATOM     30  C   UNL     1       0.058   1.750   1.091  0.00  0.00    +0.112 C 
BRANCH  30  31
ATOM     31  C   UNL     1       1.476   2.246   1.208  0.00  0.00    -0.037 A 
ATOM     32  C   UNL     1       2.086   2.307   2.447  0.00  0.00    +0.004 A 
ATOM     33  C   UNL     1       3.389   2.758   2.554  0.00  0.00    +0.000 A 
ATOM     34  C   UNL     1       4.077   3.157   1.424  0.00  0.00    +0.000 A 
ATOM     35  C   UNL     1       3.465   3.101   0.186  0.00  0.00    +0.000 A 
ATOM     36  C   UNL     1       2.164   2.646   0.078  0.00  0.00    +0.004 A 
ENDBRANCH  30  31
ENDBRANCH  29  30
ENDBRANCH   6  29
TORSDOF 7
