REMARK  Name = ZINC40567989
REMARK  6 active torsions:
REMARK  status: ('A' for Active; 'I' for Inactive)
REMARK    1  A    between atoms: C_4  and  N_20
REMARK    2  A    between atoms: C_5  and  C_7
REMARK    3  A    between atoms: N_9  and  C_10
REMARK    4  A    between atoms: C_15  and  C_16
REMARK    5  A    between atoms: N_20  and  C_21
REMARK    6  A    between atoms: C_21  and  C_22
REMARK                            x       y       z     vdW  Elec       q    Type
REMARK                         _______ _______ _______ _____ _____    ______ ____
ROOT
ATOM      1  C   UNL     1       1.333  -2.159  -0.094  0.00  0.00    +0.103 C 
ATOM      2  N   UNL     1       2.159  -2.788   0.695  0.00  0.00    -0.386 N 
ATOM      3  N   UNL     1       0.641  -2.855  -1.064  0.00  0.00    -0.300 N 
ATOM      4  H   UNL     1       2.347  -3.729   0.550  0.00  0.00    +0.157 HD
ATOM      5  H   UNL     1       0.084  -2.377  -1.699  0.00  0.00    +0.154 HD
ATOM      6  H   UNL     1       2.586  -2.316   1.426  0.00  0.00    +0.157 HD
ENDROOT
BRANCH   1  11
ATOM      7  C   UNL     1      -0.316   1.181   0.378  0.00  0.00    +0.001 A 
ATOM      8  C   UNL     1       0.773   2.035   0.320  0.00  0.00    +0.002 A 
ATOM      9  C   UNL     1       2.044   1.534   0.128  0.00  0.00    +0.023 A 
ATOM     10  C   UNL     1       2.239   0.166  -0.008  0.00  0.00    +0.038 A 
ATOM     11  C   UNL     1       1.139  -0.701   0.050  0.00  0.00    +0.033 A 
ATOM     12  C   UNL     1      -0.141  -0.180   0.245  0.00  0.00    +0.013 A 
BRANCH  10  13
ATOM     13  N   UNL     1       3.519  -0.342  -0.203  0.00  0.00    -0.339 N 
ATOM     14  H   UNL     1       3.663  -1.301  -0.224  0.00  0.00    +0.146 HD
BRANCH  13  15
ATOM     15  C   UNL     1       4.651   0.572  -0.376  0.00  0.00    +0.137 C 
BRANCH  15  16
ATOM     16  C   UNL     1       5.916  -0.225  -0.567  0.00  0.00    -0.028 A 
ATOM     17  C   UNL     1       6.687  -0.605   0.520  0.00  0.00    +0.025 A 
ATOM     18  C   UNL     1       7.841  -1.335   0.306  0.00  0.00    +0.111 A 
ATOM     19  N   UNL     1       8.210  -1.671  -0.915  0.00  0.00    -0.263 NA
ATOM     20  C   UNL     1       7.500  -1.327  -1.972  0.00  0.00    +0.111 A 
ATOM     21  C   UNL     1       6.332  -0.602  -1.835  0.00  0.00    +0.025 A 
ENDBRANCH  15  16
ENDBRANCH  13  15
ENDBRANCH  10  13
ENDBRANCH   1  11
BRANCH   3  22
ATOM     22  C   UNL     1       0.741  -4.248  -1.131  0.00  0.00    +0.044 A 
ATOM     23  C   UNL     1       1.589  -4.841  -2.057  0.00  0.00    +0.024 A 
ATOM     24  C   UNL     1       1.686  -6.217  -2.121  0.00  0.00    +0.002 A 
ATOM     25  C   UNL     1       0.939  -7.004  -1.264  0.00  0.00    +0.001 A 
ATOM     26  C   UNL     1       0.093  -6.417  -0.341  0.00  0.00    +0.014 A 
ATOM     27  C   UNL     1      -0.003  -5.041  -0.268  0.00  0.00    +0.076 A 
BRANCH  27  28
ATOM     28  C   UNL     1      -0.920  -4.402   0.743  0.00  0.00    +0.419 C 
ATOM     29  F   UNL     1      -1.557  -5.398   1.491  0.00  0.00    -0.166 F 
ATOM     30  F   UNL     1      -0.174  -3.582   1.597  0.00  0.00    -0.166 F 
ATOM     31  F   UNL     1      -1.881  -3.632   0.079  0.00  0.00    -0.166 F 
ENDBRANCH  27  28
ENDBRANCH   3  22
TORSDOF 6
