REMARK  Name = ZINC01674980
REMARK  9 active torsions:
REMARK  status: ('A' for Active; 'I' for Inactive)
REMARK    1  A    between atoms: C_1  and  C_2
REMARK    2  A    between atoms: C_5  and  N_8
REMARK    3  A    between atoms: N_8  and  C_9
REMARK    4  A    between atoms: C_9  and  N_11
REMARK    5  A    between atoms: N_11  and  N_12
REMARK    6  A    between atoms: N_12  and  C_13
REMARK    7  A    between atoms: C_13  and  N_15
REMARK    8  A    between atoms: N_15  and  C_16
REMARK    9  A    between atoms: C_19  and  C_22
REMARK                            x       y       z     vdW  Elec       q    Type
REMARK                         _______ _______ _______ _____ _____    ______ ____
ROOT
ATOM      1  N   UNL     1       2.477  -4.077  -0.265  0.00  0.00    -0.246 N 
ATOM      2  H   UNL     1       3.300  -4.578  -0.155  0.00  0.00    +0.172 HD
ENDROOT
BRANCH   1   3
ATOM      3  C   UNL     1       2.490  -2.732  -0.171  0.00  0.00    +0.151 C 
ATOM      4  S   UNL     1       3.959  -1.910   0.142  0.00  0.00    -0.017 S 
BRANCH   3   5
ATOM      5  N   UNL     1       1.347  -2.035  -0.324  0.00  0.00    -0.296 N 
ATOM      6  H   UNL     1       0.503  -2.503  -0.421  0.00  0.00    +0.154 HD
BRANCH   5  11
ATOM      7  C   UNL     1       1.470   3.636  -0.401  0.00  0.00    +0.044 C 
ATOM      8  C   UNL     1       1.438   2.130  -0.381  0.00  0.00    -0.050 A 
ATOM      9  C   UNL     1       2.414   1.409  -1.044  0.00  0.00    +0.005 A 
ATOM     10  C   UNL     1       2.387   0.028  -1.028  0.00  0.00    +0.023 A 
ATOM     11  C   UNL     1       1.378  -0.636  -0.343  0.00  0.00    +0.033 A 
ATOM     12  C   UNL     1       0.399   0.090   0.323  0.00  0.00    +0.023 A 
ATOM     13  C   UNL     1       0.432   1.471   0.302  0.00  0.00    +0.005 A 
ENDBRANCH   5  11
ENDBRANCH   3   5
ENDBRANCH   1   3
BRANCH   1  14
ATOM     14  N   UNL     1       1.276  -4.749  -0.521  0.00  0.00    -0.246 N 
ATOM     15  H   UNL     1       0.453  -4.248  -0.631  0.00  0.00    +0.172 HD
BRANCH  14  16
ATOM     16  C   UNL     1       1.263  -6.094  -0.615  0.00  0.00    +0.151 C 
ATOM     17  S   UNL     1      -0.206  -6.916  -0.928  0.00  0.00    -0.017 S 
BRANCH  16  18
ATOM     18  N   UNL     1       2.406  -6.791  -0.462  0.00  0.00    -0.296 N 
ATOM     19  H   UNL     1       3.221  -6.335  -0.201  0.00  0.00    +0.154 HD
BRANCH  18  20
ATOM     20  C   UNL     1       2.417  -8.173  -0.679  0.00  0.00    +0.033 A 
ATOM     21  C   UNL     1       3.127  -9.006   0.175  0.00  0.00    +0.023 A 
ATOM     22  C   UNL     1       3.132 -10.370  -0.040  0.00  0.00    +0.005 A 
ATOM     23  C   UNL     1       2.439 -10.906  -1.110  0.00  0.00    -0.050 A 
ATOM     24  C   UNL     1       1.735 -10.079  -1.965  0.00  0.00    +0.005 A 
ATOM     25  C   UNL     1       1.722  -8.714  -1.753  0.00  0.00    +0.023 A 
ATOM     26  C   UNL     1       2.451 -12.395  -1.344  0.00  0.00    +0.044 C 
ENDBRANCH  18  20
ENDBRANCH  16  18
ENDBRANCH  14  16
ENDBRANCH   1  14
TORSDOF 7
