REMARK  Name = ZINC02325710
REMARK  5 active torsions:
REMARK  status: ('A' for Active; 'I' for Inactive)
REMARK    1  A    between atoms: C_1  and  C_2
REMARK    2  A    between atoms: C_2  and  C_4
REMARK    3  A    between atoms: C_2  and  N_12
REMARK    4  A    between atoms: C_4  and  C_5
REMARK    5  A    between atoms: C_5  and  C_6
REMARK                            x       y       z     vdW  Elec       q    Type
REMARK                         _______ _______ _______ _____ _____    ______ ____
ROOT
ATOM      1  N   UNL     1       1.220  -2.082  -0.191  0.00  0.00    -0.325 N 
ATOM      2  C   UNL     1       1.202  -0.698  -0.113  0.00  0.00    +0.137 A 
ATOM      3  C   UNL     1       0.002  -0.002  -0.081  0.00  0.00    +0.080 A 
ATOM      4  C   UNL     1      -0.017   1.396  -0.002  0.00  0.00    +0.093 A 
ATOM      5  C   UNL     1      -1.352   2.022   0.019  0.00  0.00    +0.035 A 
ATOM      6  C   UNL     1      -1.651   3.408   0.097  0.00  0.00    -0.029 A 
ATOM      7  C   UNL     1      -2.947   3.810   0.103  0.00  0.00    -0.005 A 
ATOM      8  C   UNL     1      -3.972   2.856   0.039  0.00  0.00    +0.103 A 
ATOM      9  C   UNL     1      -2.444   1.141  -0.032  0.00  0.00    +0.089 A 
ATOM     10  S   UNL     1      -1.706  -0.471  -0.119  0.00  0.00    -0.066 S 
ATOM     11  N   UNL     1      -5.297   3.270   0.050  0.00  0.00    -0.316 N 
ATOM     12  C   UNL     1      -6.001   2.751   1.229  0.00  0.00    +0.106 C 
ATOM     13  C   UNL     1      -7.411   3.343   1.285  0.00  0.00    +0.019 C 
ATOM     14  C   UNL     1      -8.169   2.967   0.008  0.00  0.00    +0.003 C 
ATOM     15  C   UNL     1      -7.389   3.477  -1.207  0.00  0.00    +0.019 C 
ATOM     16  C   UNL     1      -5.980   2.881  -1.190  0.00  0.00    +0.106 C 
ATOM     17  C   UNL     1      -3.345   5.262   0.174  0.00  0.00    +0.039 C 
ATOM     18  C   UNL     1      -2.179   6.113   0.672  0.00  0.00    +0.005 C 
ATOM     19  C   UNL     1      -0.941   5.782  -0.171  0.00  0.00    +0.005 C 
ATOM     20  C   UNL     1      -0.491   4.363   0.175  0.00  0.00    +0.036 C 
ATOM     21  N   UNL     1       1.190   2.005   0.041  0.00  0.00    -0.234 NA
ATOM     22  C   UNL     1       2.303   1.316   0.009  0.00  0.00    +0.224 A 
ATOM     23  N   UNL     1       2.338  -0.002  -0.066  0.00  0.00    -0.220 NA
ATOM     24  H   UNL     1       0.386  -2.576  -0.224  0.00  0.00    +0.148 HD
ATOM     25  N   UNL     1      -3.747   1.515  -0.017  0.00  0.00    -0.337 N 
ATOM     26  H   UNL     1      -4.513   0.832  -0.046  0.00  0.00    +0.168 HD
ENDROOT
BRANCH   1  28
ATOM     27  C   UNL     1       2.994  -3.019   1.207  0.00  0.00    +0.028 C 
ATOM     28  C   UNL     1       2.497  -2.798  -0.223  0.00  0.00    +0.069 C 
BRANCH  28  29
ATOM     29  C   UNL     1       2.306  -4.151  -0.911  0.00  0.00    +0.026 C 
BRANCH  29  30
ATOM     30  C   UNL     1       1.930  -3.929  -2.378  0.00  0.00    +0.037 C 
BRANCH  30  31
ATOM     31  C   UNL     1       1.742  -5.261  -3.055  0.00  0.00    -0.047 A 
ATOM     32  C   UNL     1       2.814  -5.881  -3.671  0.00  0.00    +0.003 A 
ATOM     33  C   UNL     1       2.643  -7.106  -4.288  0.00  0.00    +0.000 A 
ATOM     34  C   UNL     1       1.397  -7.706  -4.300  0.00  0.00    +0.000 A 
ATOM     35  C   UNL     1       0.324  -7.084  -3.689  0.00  0.00    +0.000 A 
ATOM     36  C   UNL     1       0.497  -5.862  -3.067  0.00  0.00    +0.003 A 
ENDBRANCH  30  31
ENDBRANCH  29  30
ENDBRANCH  28  29
ENDBRANCH   1  28
TORSDOF 4
