REMARK  Name = ZINC15978689
REMARK  8 active torsions:
REMARK  status: ('A' for Active; 'I' for Inactive)
REMARK    1  A    between atoms: C_1  and  C_2
REMARK    2  A    between atoms: C_5  and  S_7
REMARK    3  A    between atoms: S_7  and  C_8
REMARK    4  A    between atoms: C_8  and  C_9
REMARK    5  A    between atoms: C_13  and  N_15
REMARK    6  A    between atoms: N_18  and  C_19
REMARK    7  A    between atoms: C_24  and  S_25
REMARK    8  A    between atoms: S_25  and  C_26
REMARK                            x       y       z     vdW  Elec       q    Type
REMARK                         _______ _______ _______ _____ _____    ______ ____
ROOT
ATOM      1  N   UNL     1      -2.251  -9.268   0.117  0.00  0.00    -0.177 NA
ATOM      2  C   UNL     1      -2.131 -10.491   0.590  0.00  0.00    +0.203 C 
ATOM      3  N   UNL     1      -0.897 -11.079   0.665  0.00  0.00    -0.369 N 
ATOM      4  N   UNL     1      -3.242 -11.176   1.008  0.00  0.00    -0.325 N 
ATOM      5  H   UNL     1      -0.143 -10.582   1.021  0.00  0.00    +0.159 HD
ATOM      6  H   UNL     1      -0.775 -11.993   0.362  0.00  0.00    +0.159 HD
ATOM      7  H   UNL     1      -3.166 -12.104   1.279  0.00  0.00    +0.169 HD
ENDROOT
BRANCH   1  12
ATOM      8  C   UNL     1      -0.303  -6.796  -1.508  0.00  0.00    +0.061 A 
ATOM      9  C   UNL     1       0.904  -7.457  -1.649  0.00  0.00    +0.096 A 
ATOM     10  C   UNL     1       1.012  -8.761  -1.169  0.00  0.00    +0.275 A 
ATOM     11  N   UNL     1      -0.041  -9.327  -0.594  0.00  0.00    -0.172 NA
ATOM     12  C   UNL     1      -1.187  -8.662  -0.476  0.00  0.00    +0.257 A 
ATOM     13  N   UNL     1      -1.315  -7.414  -0.921  0.00  0.00    -0.215 NA
ATOM     14  O   UNL     1       2.178  -9.443  -1.288  0.00  0.00    -0.266 OA
BRANCH   8  15
ATOM     15  C   UNL     1      -0.462  -5.385  -2.013  0.00  0.00    +0.132 C 
BRANCH  15  16
ATOM     16  S   UNL     1      -0.012  -4.219  -0.698  0.00  0.00    -0.091 S 
BRANCH  16  21
ATOM     17  C   UNL     1      -0.568   1.381  -2.472  0.00  0.00    +0.075 C 
ATOM     18  C   UNL     1      -0.494  -0.104  -2.221  0.00  0.00    +0.100 A 
ATOM     19  N   UNL     1      -0.770  -1.112  -3.023  0.00  0.00    -0.146 NA
ATOM     20  N   UNL     1      -0.656  -2.313  -2.656  0.00  0.00    -0.135 NA
ATOM     21  C   UNL     1      -0.248  -2.635  -1.435  0.00  0.00    +0.159 A 
ATOM     22  S   UNL     1       0.001  -0.999  -0.752  0.00  0.00    -0.044 S 
ENDBRANCH  16  21
ENDBRANCH  15  16
ENDBRANCH   8  15
ENDBRANCH   1  12
BRANCH   4  23
ATOM     23  C   UNL     1      -4.487 -10.535   1.044  0.00  0.00    +0.056 A 
ATOM     24  C   UNL     1      -4.778  -9.529   0.135  0.00  0.00    +0.027 A 
ATOM     25  C   UNL     1      -6.007  -8.898   0.172  0.00  0.00    +0.002 A 
ATOM     26  C   UNL     1      -6.950  -9.265   1.115  0.00  0.00    +0.001 A 
ATOM     27  C   UNL     1      -6.669 -10.267   2.025  0.00  0.00    +0.017 A 
ATOM     28  C   UNL     1      -5.440 -10.911   1.991  0.00  0.00    +0.036 A 
BRANCH  28  29
ATOM     29  S   UNL     1      -5.082 -12.193   3.145  0.00  0.00    -0.087 S 
BRANCH  29  30
ATOM     30  C   UNL     1      -6.595 -12.414   4.020  0.00  0.00    +0.013 A 
ATOM     31  C   UNL     1      -7.524 -13.350   3.579  0.00  0.00    +0.015 A 
ATOM     32  C   UNL     1      -8.709 -13.521   4.267  0.00  0.00    +0.001 A 
ATOM     33  C   UNL     1      -8.972 -12.762   5.393  0.00  0.00    +0.000 A 
ATOM     34  C   UNL     1      -8.051 -11.830   5.834  0.00  0.00    +0.001 A 
ATOM     35  C   UNL     1      -6.861 -11.658   5.155  0.00  0.00    +0.015 A 
ENDBRANCH  29  30
ENDBRANCH  28  29
ENDBRANCH   4  23
TORSDOF 7
