REMARK  Name = ZINC04905096
REMARK  7 active torsions:
REMARK  status: ('A' for Active; 'I' for Inactive)
REMARK    1  A    between atoms: C_1  and  C_2
REMARK    2  A    between atoms: C_5  and  C_26
REMARK    3  A    between atoms: C_6  and  N_8
REMARK    4  A    between atoms: N_10  and  C_11
REMARK    5  A    between atoms: C_11  and  C_12
REMARK    6  A    between atoms: C_12  and  C_13
REMARK    7  A    between atoms: C_14  and  C_24
REMARK                            x       y       z     vdW  Elec       q    Type
REMARK                         _______ _______ _______ _____ _____    ______ ____
ROOT
ATOM      1  N   UNL     1       0.051  -2.797   2.392  0.00  0.00    -0.295 N 
ATOM      2  C   UNL     1       0.151  -2.124   3.579  0.00  0.00    +0.143 C 
ATOM      3  N   UNL     1       0.268  -2.819   4.750  0.00  0.00    -0.367 N 
ATOM      4  S   UNL     1       0.129  -0.465   3.597  0.00  0.00    -0.016 SA
ATOM      5  H   UNL     1      -0.608  -3.501   2.288  0.00  0.00    +0.154 HD
ATOM      6  H   UNL     1       0.281  -3.789   4.740  0.00  0.00    +0.161 HD
ENDROOT
BRANCH   1  12
ATOM      7  C   UNL     1       4.110  -0.561   0.752  0.00  0.00    +0.044 C 
ATOM      8  C   UNL     1       2.874  -1.387   0.506  0.00  0.00    -0.049 A 
ATOM      9  C   UNL     1       2.578  -1.822  -0.773  0.00  0.00    +0.004 A 
ATOM     10  C   UNL     1       1.445  -2.581  -1.003  0.00  0.00    +0.005 A 
ATOM     11  C   UNL     1       0.605  -2.906   0.044  0.00  0.00    -0.029 A 
ATOM     12  C   UNL     1       0.899  -2.470   1.329  0.00  0.00    +0.036 A 
ATOM     13  C   UNL     1       2.042  -1.713   1.558  0.00  0.00    +0.027 A 
ATOM     14  C   UNL     1      -0.630  -3.732  -0.208  0.00  0.00    +0.045 C 
ENDBRANCH   1  12
BRANCH   3  15
ATOM     15  C   UNL     1       0.375  -2.098   6.022  0.00  0.00    +0.119 C 
BRANCH  15  16
ATOM     16  C   UNL     1       0.494  -3.103   7.169  0.00  0.00    +0.058 C 
BRANCH  16  17
ATOM     17  C   UNL     1       0.604  -2.362   8.477  0.00  0.00    -0.018 A 
ATOM     18  C   UNL     1       1.737  -1.950   9.068  0.00  0.00    +0.017 A 
ATOM     19  N   UNL     1       1.444  -1.312  10.242  0.00  0.00    -0.358 N 
ATOM     20  H   UNL     1       2.099  -0.926  10.845  0.00  0.00    +0.166 HD
ATOM     21  C   UNL     1       0.081  -1.298  10.441  0.00  0.00    +0.047 A 
ATOM     22  C   UNL     1      -0.505  -1.950   9.340  0.00  0.00    +0.005 A 
ATOM     23  C   UNL     1      -1.893  -2.083   9.266  0.00  0.00    +0.030 A 
ATOM     24  C   UNL     1      -2.681  -1.570  10.273  0.00  0.00    +0.042 A 
ATOM     25  C   UNL     1      -2.102  -0.923  11.357  0.00  0.00    +0.022 A 
ATOM     26  C   UNL     1      -0.733  -0.792  11.448  0.00  0.00    +0.027 A 
ATOM     27 CL   UNL     1      -4.407  -1.732  10.185  0.00  0.00    -0.084 Cl
ATOM     28  C   UNL     1       3.125  -2.158   8.519  0.00  0.00    +0.063 C 
ENDBRANCH  16  17
ENDBRANCH  15  16
ENDBRANCH   3  15
TORSDOF 4
