REMARK  Name = ZINC51036903
REMARK  4 active torsions:
REMARK  status: ('A' for Active; 'I' for Inactive)
REMARK    1  A    between atoms: C_3  and  N_21
REMARK    2  A    between atoms: C_4  and  C_18
REMARK    3  A    between atoms: C_6  and  S_7
REMARK    4  A    between atoms: S_7  and  C_8
REMARK                            x       y       z     vdW  Elec       q    Type
REMARK                         _______ _______ _______ _____ _____    ______ ____
ROOT
ATOM      1  C   UNL     1      -0.079   1.257   0.017  0.00  0.00    +0.017 A 
ATOM      2  C   UNL     1       1.019   2.090  -0.022  0.00  0.00    +0.024 A 
ATOM      3  C   UNL     1       2.301   1.555  -0.048  0.00  0.00    +0.039 A 
ATOM      4  C   UNL     1       2.476   0.161  -0.033  0.00  0.00    +0.085 A 
ATOM      5  C   UNL     1       1.356  -0.675   0.008  0.00  0.00    +0.032 A 
ATOM      6  C   UNL     1       0.087  -0.125   0.032  0.00  0.00    +0.015 A 
ENDROOT
BRANCH   4   7
ATOM      7  C   UNL     1       3.829  -0.415  -0.060  0.00  0.00    +0.388 C 
ATOM      8  O   UNL     1       3.976  -1.625  -0.163  0.00  0.00    -0.241 OA
ATOM      9  O   UNL     1       4.807   0.316   0.021  0.00  0.00    -0.241 OA
ENDBRANCH   4   7
BRANCH   3  10
ATOM     10  N   UNL     1       3.407   2.396  -0.088  0.00  0.00    -0.357 N 
ATOM     11  H   UNL     1       3.285   3.354  -0.184  0.00  0.00    +0.142 HD
ATOM     12  H   UNL     1       4.301   2.026  -0.021  0.00  0.00    +0.142 HD
ENDBRANCH   3  10
BRANCH   6  13
ATOM     13  S   UNL     1      -1.325  -1.178   0.083  0.00  0.00    -0.068 S 
BRANCH  13  14
ATOM     14  C   UNL     1      -1.623  -1.575  -1.608  0.00  0.00    +0.130 A 
ATOM     15  C   UNL     1      -2.621  -2.485  -1.963  0.00  0.00    +0.118 A 
ATOM     16  C   UNL     1      -2.820  -2.768  -3.324  0.00  0.00    +0.182 A 
ATOM     17  N   UNL     1      -3.825  -3.661  -3.394  0.00  0.00    -0.216 NA
ATOM     18  H   UNL     1      -3.663  -3.274  -0.313  0.00  0.00    +0.167 HD
ATOM     19  C   UNL     1      -4.251  -3.941  -2.193  0.00  0.00    +0.199 A 
ATOM     20  N   UNL     1      -3.543  -3.244  -1.275  0.00  0.00    -0.341 N 
ATOM     21  N   UNL     1      -2.046  -2.156  -4.226  0.00  0.00    -0.214 NA
ATOM     22  C   UNL     1      -1.118  -1.307  -3.845  0.00  0.00    +0.224 A 
ATOM     23  N   UNL     1      -0.904  -1.011  -2.576  0.00  0.00    -0.227 NA
ENDBRANCH  13  14
ENDBRANCH   6  13
TORSDOF 4
