REMARK  Name = ZINC10149896
REMARK  8 active torsions:
REMARK  status: ('A' for Active; 'I' for Inactive)
REMARK    1  A    between atoms: C_1  and  C_2
REMARK    2  A    between atoms: C_2  and  C_3
REMARK    3  A    between atoms: C_4  and  C_24
REMARK    4  A    between atoms: C_6  and  N_11
REMARK    5  A    between atoms: C_7  and  C_8
REMARK    6  A    between atoms: N_11  and  C_12
REMARK    7  A    between atoms: C_12  and  N_14
REMARK    8  A    between atoms: C_15  and  C_17
REMARK                            x       y       z     vdW  Elec       q    Type
REMARK                         _______ _______ _______ _____ _____    ______ ____
ROOT
ATOM      1  N   UNL     1      -6.011   1.646   0.039  0.00  0.00    -0.291 N 
ATOM      2  H   UNL     1      -6.021   2.616   0.045  0.00  0.00    +0.154 HD
ENDROOT
BRANCH   1   6
ATOM      3  C   UNL     1      -9.570   0.469   0.049  0.00  0.00    -0.024 A 
ATOM      4  C   UNL     1      -9.220  -0.830   0.040  0.00  0.00    -0.008 A 
ATOM      5  S   UNL     1      -7.440  -0.774   0.025  0.00  0.00    -0.078 S 
ATOM      6  C   UNL     1      -7.204   0.941   0.041  0.00  0.00    +0.084 A 
ATOM      7  C   UNL     1      -8.502   1.440   0.050  0.00  0.00    +0.068 A 
ATOM      8  C   UNL     1     -10.117  -2.040   0.038  0.00  0.00    +0.052 C 
BRANCH   7   9
ATOM      9  C   UNL     1      -8.772   2.880   0.060  0.00  0.00    +0.244 C 
ATOM     10  O   UNL     1      -8.889   3.485  -0.990  0.00  0.00    -0.270 OA
ATOM     11  N   UNL     1      -8.890   3.535   1.232  0.00  0.00    -0.325 N 
ATOM     12  H   UNL     1      -8.797   3.054   2.069  0.00  0.00    +0.145 HD
ATOM     13  H   UNL     1      -9.069   4.489   1.238  0.00  0.00    +0.145 HD
ENDBRANCH   7   9
BRANCH   3  15
ATOM     14  C   UNL     1     -11.513   1.044  -1.380  0.00  0.00    +0.009 C 
ATOM     15  C   UNL     1     -11.016   0.892   0.059  0.00  0.00    +0.033 C 
ENDBRANCH   3  15
ENDBRANCH   1   6
BRANCH   1  16
ATOM     16  C   UNL     1      -4.837   0.984   0.030  0.00  0.00    +0.141 C 
ATOM     17  S   UNL     1      -4.820  -0.728   0.021  0.00  0.00    -0.018 S 
BRANCH  16  18
ATOM     18  N   UNL     1      -3.677   1.669   0.029  0.00  0.00    -0.264 N 
ATOM     19  C   UNL     1      -2.503   1.007   0.019  0.00  0.00    +0.250 C 
ATOM     20  O   UNL     1      -2.491  -0.208   0.013  0.00  0.00    -0.270 OA
ATOM     21  H   UNL     1      -3.686   2.639   0.034  0.00  0.00    +0.157 HD
BRANCH  19  22
ATOM     22  C   UNL     1      -1.230   1.759   0.017  0.00  0.00    +0.038 A 
ATOM     23  C   UNL     1      -0.013   1.076   0.008  0.00  0.00    +0.013 A 
ATOM     24  C   UNL     1       1.172   1.783   0.000  0.00  0.00    +0.002 A 
ATOM     25  C   UNL     1       1.155   3.167   0.007  0.00  0.00    +0.020 A 
ATOM     26  C   UNL     1      -0.048   3.851   0.021  0.00  0.00    +0.042 A 
ATOM     27  C   UNL     1      -1.241   3.155   0.029  0.00  0.00    +0.033 A 
ATOM     28 CL   UNL     1      -0.058   5.587   0.029  0.00  0.00    -0.084 Cl
ENDBRANCH  19  22
ENDBRANCH  16  18
ENDBRANCH   1  16
TORSDOF 6
