REMARK  Name = ZINC42586780
REMARK  8 active torsions:
REMARK  status: ('A' for Active; 'I' for Inactive)
REMARK    1  A    between atoms: C_1  and  C_2
REMARK    2  A    between atoms: C_2  and  C_3
REMARK    3  A    between atoms: C_3  and  C_5
REMARK    4  A    between atoms: C_3  and  N_8
REMARK    5  A    between atoms: C_5  and  C_6
REMARK    6  A    between atoms: C_5  and  C_7
REMARK    7  A    between atoms: N_8  and  C_9
REMARK    8  A    between atoms: C_14  and  N_15
REMARK                            x       y       z     vdW  Elec       q    Type
REMARK                         _______ _______ _______ _____ _____    ______ ____
ROOT
ATOM      1  C   UNL     1      -3.477   0.242  -0.891  0.00  0.00    +0.050 A 
ATOM      2  C   UNL     1      -4.123   0.144   0.329  0.00  0.00    +0.048 A 
ATOM      3  C   UNL     1      -5.450   0.548   0.454  0.00  0.00    +0.039 A 
ATOM      4  C   UNL     1      -6.112   1.048  -0.661  0.00  0.00    -0.016 A 
ATOM      5  C   UNL     1      -5.474   1.148  -1.878  0.00  0.00    +0.030 A 
ATOM      6  C   UNL     1      -4.150   0.751  -2.002  0.00  0.00    +0.046 A 
ATOM      7  C   UNL     1      -7.512   1.392  -0.206  0.00  0.00    +0.133 C 
ATOM      8  C   UNL     1      -7.524   1.022   1.262  0.00  0.00    +0.222 C 
ATOM      9  O   UNL     1      -8.460   1.135   2.025  0.00  0.00    -0.275 OA
ATOM     10  N   UNL     1      -6.304   0.546   1.561  0.00  0.00    -0.285 N 
ATOM     11  H   UNL     1      -6.045   0.237   2.443  0.00  0.00    +0.155 HD
ENDROOT
BRANCH   6  12
ATOM     12  N   UNL     1      -3.495   0.856  -3.237  0.00  0.00    -0.357 N 
ATOM     13  H   UNL     1      -2.570   0.574  -3.321  0.00  0.00    +0.142 HD
ATOM     14  H   UNL     1      -3.966   1.211  -4.007  0.00  0.00    +0.142 HD
ENDBRANCH   6  12
BRANCH   1  15
ATOM     15  N   UNL     1      -2.143  -0.166  -1.010  0.00  0.00    -0.339 N 
ATOM     16  H   UNL     1      -1.664  -0.023  -1.842  0.00  0.00    +0.146 HD
BRANCH  15  17
ATOM     17  C   UNL     1      -1.470  -0.809   0.121  0.00  0.00    +0.073 C 
BRANCH  17  18
ATOM     18  C   UNL     1      -0.823  -2.114  -0.346  0.00  0.00    +0.003 C 
ATOM     19  C   UNL     1      -1.903  -3.059  -0.876  0.00  0.00    +0.009 C 
ATOM     20  C   UNL     1       0.184  -1.815  -1.459  0.00  0.00    +0.009 C 
ENDBRANCH  17  18
BRANCH  17  22
ATOM     21  C   UNL     1      -1.052   1.379   1.252  0.00  0.00    +0.006 C 
ATOM     22  C   UNL     1      -0.392   0.126   0.672  0.00  0.00    +0.019 C 
ENDBRANCH  17  22
ENDBRANCH  15  17
ENDBRANCH   1  15
TORSDOF 5
