REMARK  Name = ZINC20682565
REMARK  6 active torsions:
REMARK  status: ('A' for Active; 'I' for Inactive)
REMARK    1  A    between atoms: C_1  and  C_2
REMARK    2  A    between atoms: C_2  and  N_3
REMARK    3  A    between atoms: C_4  and  C_6
REMARK    4  A    between atoms: C_19  and  C_22
REMARK    5  A    between atoms: C_25  and  O_29
REMARK    6  A    between atoms: C_27  and  O_28
REMARK                            x       y       z     vdW  Elec       q    Type
REMARK                         _______ _______ _______ _____ _____    ______ ____
ROOT
ATOM      1  C   UNL     1      -1.304   2.064   0.019  0.00  0.00    +0.037 A 
ATOM      2  C   UNL     1      -2.507   1.352   0.021  0.00  0.00    +0.015 A 
ATOM      3  C   UNL     1      -3.704   2.026   0.026  0.00  0.00    +0.024 A 
ATOM      4  C   UNL     1      -3.732   3.419   0.034  0.00  0.00    +0.031 A 
ATOM      5  C   UNL     1      -2.525   4.133   0.040  0.00  0.00    -0.019 A 
ATOM      6  C   UNL     1      -1.327   3.461   0.033  0.00  0.00    +0.019 A 
ATOM      7  C   UNL     1      -2.604   5.609   0.071  0.00  0.00    +0.049 C 
ATOM      8  C   UNL     1      -1.529   6.498  -0.466  0.00  0.00    -0.023 C 
ATOM      9  C   UNL     1      -2.079   7.606  -0.947  0.00  0.00    -0.030 C 
ATOM     10  C   UNL     1      -3.599   7.552  -0.779  0.00  0.00    +0.033 C 
ATOM     11  C   UNL     1      -3.853   6.039  -0.757  0.00  0.00    +0.029 C 
ATOM     12  C   UNL     1      -5.051   5.549   0.036  0.00  0.00    +0.108 C 
ATOM     13  N   UNL     1      -4.964   4.073   0.020  0.00  0.00    -0.336 N 
ATOM     14  H   UNL     1      -5.883   3.468  -0.003  0.00  0.00    +0.147 HD
ENDROOT
BRANCH  12  15
ATOM     15  C   UNL     1      -6.331   6.002  -0.616  0.00  0.00    +0.015 A 
ATOM     16  C   UNL     1      -7.006   5.155  -1.475  0.00  0.00    +0.012 A 
ATOM     17  C   UNL     1      -8.183   5.566  -2.071  0.00  0.00    +0.046 A 
ATOM     18  C   UNL     1      -8.684   6.835  -1.818  0.00  0.00    +0.120 A 
ATOM     19  C   UNL     1      -8.007   7.688  -0.961  0.00  0.00    +0.091 A 
ATOM     20  C   UNL     1      -6.829   7.272  -0.360  0.00  0.00    +0.125 A 
BRANCH  20  21
ATOM     21  O   UNL     1      -6.162   8.106   0.480  0.00  0.00    -0.506 OA
ATOM     22  H   UNL     1      -6.556   9.113   0.684  0.00  0.00    +0.292 HD
ENDBRANCH  20  21
BRANCH  18  23
ATOM     23  O   UNL     1      -9.839   7.240  -2.408  0.00  0.00    -0.507 OA
ATOM     24  H   UNL     1     -10.236   8.246  -2.207  0.00  0.00    +0.292 HD
ENDBRANCH  18  23
ENDBRANCH  12  15
BRANCH   1  26
ATOM     25  N   UNL     1       0.002  -0.004   0.002  0.00  0.00    -0.312 N 
ATOM     26  C   UNL     1      -0.016   1.344   0.009  0.00  0.00    +0.244 C 
ATOM     27  O   UNL     1       1.028   1.966   0.003  0.00  0.00    -0.270 OA
ATOM     28  H   UNL     1      -0.943  -0.567   0.008  0.00  0.00    +0.149 HD
BRANCH  25  30
ATOM     29  C   UNL     1       1.021  -2.227  -0.020  0.00  0.00    +0.024 C 
ATOM     30  C   UNL     1       1.281  -0.719  -0.014  0.00  0.00    +0.101 C 
ENDBRANCH  25  30
ENDBRANCH   1  26
TORSDOF 5
