REMARK  Name = ZINC48534443
REMARK  6 active torsions:
REMARK  status: ('A' for Active; 'I' for Inactive)
REMARK    1  A    between atoms: C_1  and  C_2
REMARK    2  A    between atoms: C_3  and  N_9
REMARK    3  A    between atoms: C_10  and  C_12
REMARK    4  A    between atoms: C_13  and  C_14
REMARK    5  A    between atoms: C_17  and  C_19
REMARK    6  A    between atoms: C_24  and  N_25
REMARK                            x       y       z     vdW  Elec       q    Type
REMARK                         _______ _______ _______ _____ _____    ______ ____
ROOT
ATOM      1  C   UNL     1       0.383   0.109  -7.188  0.00  0.00    +0.129 A 
ATOM      2  C   UNL     1       0.489  -0.445  -8.450  0.00  0.00    +0.050 A 
ATOM      3  C   UNL     1       0.550   0.618  -9.354  0.00  0.00    +0.050 A 
ATOM      4  C   UNL     1       0.480   1.778  -8.617  0.00  0.00    +0.138 A 
ATOM      5  O   UNL     1       0.375   1.453  -7.316  0.00  0.00    -0.455 OA
ENDROOT
BRANCH   4   6
ATOM      6  C   UNL     1       0.511   3.149  -9.163  0.00  0.00    +0.048 A 
ATOM      7  C   UNL     1       1.505   3.520 -10.072  0.00  0.00    +0.015 A 
ATOM      8  C   UNL     1       1.528   4.802 -10.578  0.00  0.00    +0.021 A 
ATOM      9  C   UNL     1       0.569   5.722 -10.187  0.00  0.00    +0.043 A 
ATOM     10  C   UNL     1      -0.419   5.360  -9.286  0.00  0.00    +0.053 A 
ATOM     11  C   UNL     1      -0.457   4.079  -8.777  0.00  0.00    +0.138 A 
ATOM     12 CL   UNL     1       0.606   7.335 -10.828  0.00  0.00    -0.083 Cl
BRANCH  11  13
ATOM     13  N   UNL     1      -1.518   3.692  -7.820  0.00  0.00    +0.057 N 
ATOM     14  O   UNL     1      -2.355   4.498  -7.487  0.00  0.00    -0.126 OA
ATOM     15  O   UNL     1      -1.547   2.570  -7.371  0.00  0.00    -0.126 OA
ENDBRANCH  11  13
ENDBRANCH   4   6
BRANCH   1  17
ATOM     16  C   UNL     1       0.186   0.063  -4.796  0.00  0.00    +0.071 C 
ATOM     17  C   UNL     1       0.292  -0.607  -5.973  0.00  0.00    +0.051 C 
BRANCH  16  19
ATOM     18  N   UNL     1      -0.010   0.010  -2.413  0.00  0.00    -0.282 N 
ATOM     19  C   UNL     1       0.095  -0.654  -3.580  0.00  0.00    +0.241 C 
ATOM     20  O   UNL     1       0.112  -1.872  -3.589  0.00  0.00    -0.270 OA
ATOM     21  H   UNL     1      -0.104   0.976  -2.410  0.00  0.00    +0.155 HD
BRANCH  18  24
ATOM     22  C   UNL     1      -1.264   1.189  -0.146  0.00  0.00    +0.047 C 
ATOM     23  C   UNL     1      -0.584  -0.153  -0.073  0.00  0.00    -0.015 A 
ATOM     24  C   UNL     1       0.017  -0.692  -1.204  0.00  0.00    +0.038 A 
ATOM     25  C   UNL     1       0.643  -1.929  -1.132  0.00  0.00    +0.023 A 
ATOM     26  C   UNL     1       0.667  -2.621   0.064  0.00  0.00    +0.003 A 
ATOM     27  C   UNL     1       0.069  -2.083   1.188  0.00  0.00    +0.015 A 
ATOM     28  C   UNL     1      -0.551  -0.848   1.121  0.00  0.00    +0.023 A 
ATOM     29 BR   UNL     1      -1.361  -0.113   2.664  0.00  0.00    -0.050 Br
ENDBRANCH  18  24
ENDBRANCH  16  19
ENDBRANCH   1  17
TORSDOF 5
