REMARK  Name = ZINC36390588
REMARK  8 active torsions:
REMARK  status: ('A' for Active; 'I' for Inactive)
REMARK    1  A    between atoms: C_1  and  C_2
REMARK    2  A    between atoms: C_2  and  C_3
REMARK    3  A    between atoms: C_2  and  C_4
REMARK    4  A    between atoms: C_8  and  N_10
REMARK    5  A    between atoms: C_11  and  C_13
REMARK    6  A    between atoms: C_13  and  C_14
REMARK    7  A    between atoms: C_14  and  C_16
REMARK    8  A    between atoms: C_14  and  N_23
REMARK                            x       y       z     vdW  Elec       q    Type
REMARK                         _______ _______ _______ _____ _____    ______ ____
ROOT
ATOM      1  C   UNL     1      -6.710  -4.593  -2.768  0.00  0.00    +0.113 C 
ENDROOT
BRANCH   1   2
ATOM      2  C   UNL     1      -7.075  -5.596  -3.832  0.00  0.00    -0.027 A 
ATOM      3  C   UNL     1      -7.132  -6.942  -3.522  0.00  0.00    +0.006 A 
ATOM      4  C   UNL     1      -7.467  -7.862  -4.497  0.00  0.00    +0.015 A 
ATOM      5  C   UNL     1      -7.746  -7.436  -5.783  0.00  0.00    +0.018 A 
ATOM      6  C   UNL     1      -7.689  -6.089  -6.093  0.00  0.00    +0.015 A 
ATOM      7  C   UNL     1      -7.358  -5.169  -5.115  0.00  0.00    +0.006 A 
ATOM      8 BR   UNL     1      -8.204  -8.694  -7.118  0.00  0.00    -0.050 Br
ENDBRANCH   1   2
BRANCH   1   9
ATOM      9  N   UNL     1      -7.633  -3.458  -2.829  0.00  0.00    -0.292 N 
ATOM     10  C   UNL     1      -8.843  -3.540  -2.240  0.00  0.00    +0.298 C 
ATOM     11  O   UNL     1      -9.133  -4.521  -1.582  0.00  0.00    -0.253 OA
ATOM     12  N   UNL     1      -9.731  -2.536  -2.380  0.00  0.00    -0.313 N 
ATOM     13  H   UNL     1      -7.375  -2.647  -3.293  0.00  0.00    +0.151 HD
ATOM     14  H   UNL     1      -9.499  -1.754  -2.905  0.00  0.00    +0.146 HD
ATOM     15  H   UNL     1     -10.601  -2.596  -1.956  0.00  0.00    +0.146 HD
ENDBRANCH   1   9
BRANCH   1  16
ATOM     16  C   UNL     1      -5.280  -4.101  -3.000  0.00  0.00    +0.123 C 
BRANCH  16  18
ATOM     17  N   UNL     1      -3.643  -2.636  -1.862  0.00  0.00    -0.285 N 
ATOM     18  C   UNL     1      -4.871  -3.192  -1.869  0.00  0.00    +0.219 C 
ATOM     19  O   UNL     1      -5.647  -2.962  -0.966  0.00  0.00    -0.275 OA
ATOM     20  H   UNL     1      -3.050  -2.760  -2.619  0.00  0.00    +0.155 HD
BRANCH  17  25
ATOM     21  C   UNL     1      -1.964  -0.053   0.144  0.00  0.00    -0.043 A 
ATOM     22  C   UNL     1      -2.395  -0.387   1.415  0.00  0.00    +0.004 A 
ATOM     23  C   UNL     1      -3.240  -1.466   1.601  0.00  0.00    +0.002 A 
ATOM     24  C   UNL     1      -3.655  -2.214   0.516  0.00  0.00    +0.023 A 
ATOM     25  C   UNL     1      -3.224  -1.881  -0.761  0.00  0.00    +0.034 A 
ATOM     26  C   UNL     1      -2.381  -0.793  -0.944  0.00  0.00    +0.027 A 
BRANCH  21  28
ATOM     27  C   UNL     1      -1.726   2.396   0.459  0.00  0.00    +0.012 C 
ATOM     28  C   UNL     1      -1.044   1.125  -0.053  0.00  0.00    +0.013 C 
ATOM     29  C   UNL     1       0.254   0.894   0.724  0.00  0.00    +0.012 C 
ENDBRANCH  21  28
ENDBRANCH  17  25
ENDBRANCH  16  18
ENDBRANCH   1  16
TORSDOF 6
