REMARK  Name = ZINC12328496
REMARK  8 active torsions:
REMARK  status: ('A' for Active; 'I' for Inactive)
REMARK    1  A    between atoms: C_1  and  O_2
REMARK    2  A    between atoms: O_2  and  C_3
REMARK    3  A    between atoms: C_3  and  C_5
REMARK    4  A    between atoms: C_8  and  N_19
REMARK    5  A    between atoms: C_11  and  C_12
REMARK    6  A    between atoms: C_11  and  N_61
REMARK    7  A    between atoms: C_20  and  C_22
REMARK    8  A    between atoms: C_23  and  C_33
REMARK                            x       y       z     vdW  Elec       q    Type
REMARK                         _______ _______ _______ _____ _____    ______ ____
ROOT
ATOM      1  N   UNL     1       2.549  -0.078  -4.450  0.00  0.00    -0.309 N 
ATOM      2  C   UNL     1       1.578  -0.607  -5.222  0.00  0.00    +0.261 C 
ATOM      3  O   UNL     1       1.038  -1.646  -4.893  0.00  0.00    -0.269 OA
ATOM      4  H   UNL     1       2.980   0.750  -4.713  0.00  0.00    +0.149 HD
ENDROOT
BRANCH   2   5
ATOM      5  C   UNL     1       1.173   0.071  -6.458  0.00  0.00    +0.111 A 
ATOM      6  C   UNL     1       0.194  -0.367  -7.331  0.00  0.00    +0.020 A 
ATOM      7  C   UNL     1       0.133   0.619  -8.416  0.00  0.00    +0.010 A 
ATOM      8  C   UNL     1      -0.643   0.730  -9.574  0.00  0.00    +0.030 A 
ATOM      9  C   UNL     1      -0.462   1.794 -10.412  0.00  0.00    +0.042 A 
ATOM     10  C   UNL     1       0.487   2.767 -10.122  0.00  0.00    +0.022 A 
ATOM     11  C   UNL     1       1.261   2.677  -8.987  0.00  0.00    +0.027 A 
ATOM     12  C   UNL     1       1.095   1.601  -8.118  0.00  0.00    +0.048 A 
ATOM     13  N   UNL     1       1.703   1.253  -6.934  0.00  0.00    -0.350 N 
ATOM     14  H   UNL     1       2.403   1.763  -6.498  0.00  0.00    +0.166 HD
ATOM     15 CL   UNL     1      -1.425   1.931 -11.850  0.00  0.00    -0.084 Cl
BRANCH   6  16
ATOM     16  C   UNL     1      -0.628  -1.590  -7.197  0.00  0.00    -0.015 A 
ATOM     17  C   UNL     1      -0.509  -2.620  -8.130  0.00  0.00    +0.008 A 
ATOM     18  C   UNL     1      -1.275  -3.760  -7.997  0.00  0.00    +0.001 A 
ATOM     19  C   UNL     1      -2.169  -3.877  -6.947  0.00  0.00    +0.000 A 
ATOM     20  C   UNL     1      -2.296  -2.857  -6.021  0.00  0.00    +0.001 A 
ATOM     21  C   UNL     1      -1.531  -1.715  -6.140  0.00  0.00    +0.008 A 
ENDBRANCH   6  16
ENDBRANCH   2   5
BRANCH   1  24
ATOM     22  C   UNL     1       4.299   0.311  -1.469  0.00  0.00    +0.045 C 
ATOM     23  C   UNL     1       4.403  -0.377  -2.847  0.00  0.00    +0.016 C 
ATOM     24  C   UNL     1       2.953  -0.755  -3.216  0.00  0.00    +0.056 C 
ATOM     25  C   UNL     1       2.096  -0.264  -2.029  0.00  0.00    -0.055 C 
ATOM     26  N   UNL     1       2.912   0.788  -1.429  0.00  0.00    +0.392 N 
ATOM     27  H   UNL     1       2.822   1.655  -1.972  0.00  0.00    -0.080 HD
BRANCH  22  28
ATOM     28  C   UNL     1       5.277   1.455  -1.378  0.00  0.00    +0.293 C 
ATOM     29  O   UNL     1       4.872   2.588  -1.271  0.00  0.00    -0.253 OA
BRANCH  28  31
ATOM     30  C   UNL     1       7.479   2.364  -1.323  0.00  0.00    +0.280 C 
ATOM     31  O   UNL     1       6.596   1.214  -1.416  0.00  0.00    -0.469 OA
ENDBRANCH  28  31
ENDBRANCH  22  28
BRANCH  26  32
ATOM     32  C   UNL     1       2.490   1.048  -0.016  0.00  0.00    -0.042 C 
BRANCH  32  33
ATOM     33  C   UNL     1       1.174   1.783   0.000  0.00  0.00    -0.061 A 
ATOM     34  C   UNL     1       1.156   3.166   0.009  0.00  0.00    +0.002 A 
ATOM     35  C   UNL     1      -0.050   3.842   0.023  0.00  0.00    +0.003 A 
ATOM     36  C   UNL     1      -1.238   3.136   0.030  0.00  0.00    +0.038 A 
ATOM     37  C   UNL     1      -1.221   1.752   0.017  0.00  0.00    +0.124 A 
ATOM     38  C   UNL     1      -0.013   1.076   0.008  0.00  0.00    +0.040 A 
ATOM     39  F   UNL     1      -2.382   1.062   0.019  0.00  0.00    -0.205 F 
ENDBRANCH  32  33
ENDBRANCH  26  32
ENDBRANCH   1  24
TORSDOF 7
