REMARK  Name = ZINC02771952
REMARK  11 active torsions:
REMARK  status: ('A' for Active; 'I' for Inactive)
REMARK    1  A    between atoms: C_1  and  C_2
REMARK    2  A    between atoms: C_2  and  O_3
REMARK    3  A    between atoms: O_3  and  C_4
REMARK    4  A    between atoms: C_4  and  C_5
REMARK    5  A    between atoms: C_5  and  O_6
REMARK    6  A    between atoms: O_6  and  C_7
REMARK    7  A    between atoms: C_7  and  C_9
REMARK    8  A    between atoms: C_10  and  C_36
REMARK    9  A    between atoms: C_14  and  C_16
REMARK   10  A    between atoms: C_19  and  N_22
REMARK   11  A    between atoms: C_28  and  C_31
REMARK                            x       y       z     vdW  Elec       q    Type
REMARK                         _______ _______ _______ _____ _____    ______ ____
ROOT
ATOM      1  C   UNL     1      -7.470   0.538   1.340  0.00  0.00    +0.065 C 
ATOM      2  C   UNL     1      -6.804   0.779   2.482  0.00  0.00    +0.016 C 
ATOM      3  N   UNL     1      -5.452   0.981   2.466  0.00  0.00    -0.321 N 
ATOM      4  C   UNL     1      -4.815   1.340   1.308  0.00  0.00    +0.016 C 
ATOM      5  C   UNL     1      -5.397   1.120   0.110  0.00  0.00    +0.024 C 
ATOM      6  C   UNL     1      -6.757   0.475   0.021  0.00  0.00    +0.092 C 
ATOM      7  C   UNL     1      -4.754   1.483  -1.086  0.00  0.00    +0.162 C 
ATOM      8  O   UNL     1      -5.311   1.284  -2.147  0.00  0.00    -0.292 OA
ATOM      9  C   UNL     1      -3.388   2.114  -1.076  0.00  0.00    +0.088 C 
ATOM     10  C   UNL     1      -2.629   1.637   0.167  0.00  0.00    +0.039 C 
ATOM     11  C   UNL     1      -3.456   1.988   1.405  0.00  0.00    +0.060 C 
ATOM     12  C   UNL     1      -7.552   0.826   3.790  0.00  0.00    +0.061 C 
ATOM     13  H   UNL     1      -4.866   0.856   3.388  0.00  0.00    +0.152 HD
ENDROOT
BRANCH   6  14
ATOM     14  C   UNL     1      -6.595  -0.968  -0.384  0.00  0.00    -0.035 A 
ATOM     15  C   UNL     1      -5.857  -1.829   0.407  0.00  0.00    +0.007 A 
ATOM     16  C   UNL     1      -5.713  -3.153   0.037  0.00  0.00    +0.033 A 
ATOM     17  C   UNL     1      -6.297  -3.614  -1.128  0.00  0.00    +0.126 A 
ATOM     18  C   UNL     1      -7.029  -2.751  -1.921  0.00  0.00    +0.033 A 
ATOM     19  C   UNL     1      -7.178  -1.428  -1.549  0.00  0.00    +0.007 A 
BRANCH  17  20
ATOM     20  N   UNL     1      -6.137  -5.030  -1.526  0.00  0.00    +0.056 N 
ATOM     21  O   UNL     1      -6.652  -5.436  -2.553  0.00  0.00    -0.126 OA
ATOM     22  O   UNL     1      -5.492  -5.791  -0.827  0.00  0.00    -0.126 OA
ENDBRANCH  17  20
ENDBRANCH   6  14
BRANCH  10  23
ATOM     23  C   UNL     1      -1.291   2.327   0.239  0.00  0.00    -0.006 A 
ATOM     24  C   UNL     1      -0.049   1.784   0.237  0.00  0.00    +0.011 A 
ATOM     25  C   UNL     1       1.048   2.622   0.305  0.00  0.00    +0.008 A 
ATOM     26  C   UNL     1       0.850   3.961   0.378  0.00  0.00    +0.045 A 
ATOM     27  S   UNL     1      -0.931   4.072   0.351  0.00  0.00    -0.101 S 
ENDBRANCH  10  23
BRANCH   1  28
ATOM     28  C   UNL     1      -8.870   0.339   1.382  0.00  0.00    +0.338 C 
ATOM     29  O   UNL     1      -9.620   1.214   0.992  0.00  0.00    -0.245 OA
BRANCH  28  30
ATOM     30  O   UNL     1      -9.373  -0.821   1.854  0.00  0.00    -0.459 OA
BRANCH  30  31
ATOM     31  C   UNL     1     -10.796  -0.953   1.867  0.00  0.00    +0.260 C 
BRANCH  31  32
ATOM     32  C   UNL     1     -11.175  -2.324   2.432  0.00  0.00    +0.201 C 
BRANCH  32  33
ATOM     33  O   UNL     1     -10.775  -2.402   3.802  0.00  0.00    -0.377 OA
BRANCH  33  35
ATOM     34  C   UNL     1     -10.615  -3.619   5.883  0.00  0.00    +0.034 C 
ATOM     35  C   UNL     1     -11.085  -3.648   4.428  0.00  0.00    +0.156 C 
ENDBRANCH  33  35
ENDBRANCH  32  33
ENDBRANCH  31  32
ENDBRANCH  30  31
ENDBRANCH  28  30
ENDBRANCH   1  28
TORSDOF 9
