REMARK  Name = ZINC36063995
REMARK  9 active torsions:
REMARK  status: ('A' for Active; 'I' for Inactive)
REMARK    1  A    between atoms: C_1  and  C_2
REMARK    2  A    between atoms: C_10  and  C_12
REMARK    3  A    between atoms: C_15  and  C_17
REMARK    4  A    between atoms: C_17  and  N_18
REMARK    5  A    between atoms: N_18  and  C_19
REMARK    6  A    between atoms: N_18  and  C_31
REMARK    7  A    between atoms: C_19  and  C_20
REMARK    8  A    between atoms: C_20  and  C_21
REMARK    9  A    between atoms: C_31  and  C_32
REMARK                            x       y       z     vdW  Elec       q    Type
REMARK                         _______ _______ _______ _____ _____    ______ ____
ROOT
ATOM      1  N   UNL     1      -2.969  -8.167   0.343  0.00  0.00    +0.388 N 
ATOM      2  H   UNL     1      -3.743  -8.294   0.979  0.00  0.00    -0.081 HD
ENDROOT
BRANCH   1   3
ATOM      3  C   UNL     1      -3.478  -7.748  -0.969  0.00  0.00    +0.019 C 
BRANCH   3   7
ATOM      4  C   UNL     1      -5.512  -4.752  -1.071  0.00  0.00    +0.164 A 
ATOM      5  C   UNL     1      -6.061  -5.384   0.002  0.00  0.00    +0.230 A 
ATOM      6  O   UNL     1      -5.392  -6.537   0.162  0.00  0.00    -0.449 OA
ATOM      7  C   UNL     1      -4.452  -6.611  -0.791  0.00  0.00    +0.179 A 
ATOM      8  N   UNL     1      -4.516  -5.551  -1.540  0.00  0.00    -0.210 NA
BRANCH   4  18
ATOM      9  C   UNL     1      -3.107   0.637  -5.288  0.00  0.00    +0.109 C 
ATOM     10  C   UNL     1      -2.605  -0.617  -4.619  0.00  0.00    +0.213 C 
ATOM     11  O   UNL     1      -1.559  -1.116  -4.973  0.00  0.00    -0.276 OA
ATOM     12  N   UNL     1      -3.320  -1.183  -3.626  0.00  0.00    -0.299 N 
ATOM     13  C   UNL     1      -4.593  -0.592  -3.190  0.00  0.00    +0.126 C 
ATOM     14  C   UNL     1      -5.687  -1.663  -3.282  0.00  0.00    +0.127 C 
ATOM     15  N   UNL     1      -5.208  -2.882  -2.617  0.00  0.00    -0.293 N 
ATOM     16  C   UNL     1      -3.935  -3.473  -3.053  0.00  0.00    +0.127 C 
ATOM     17  C   UNL     1      -2.843  -2.405  -2.965  0.00  0.00    +0.126 C 
ATOM     18  C   UNL     1      -5.923  -3.449  -1.625  0.00  0.00    +0.268 C 
ATOM     19  O   UNL     1      -6.907  -2.885  -1.186  0.00  0.00    -0.268 OA
ENDBRANCH   4  18
ENDBRANCH   3   7
ENDBRANCH   1   3
BRANCH   1  20
ATOM     20  C   UNL     1      -2.238  -9.433   0.203  0.00  0.00    -0.073 C 
BRANCH  20  21
ATOM     21  C   UNL     1      -1.815  -9.933   1.586  0.00  0.00    +0.019 C 
BRANCH  21  22
ATOM     22  C   UNL     1      -1.065 -11.232   1.443  0.00  0.00    -0.024 A 
ATOM     23  C   UNL     1      -1.581 -12.467   1.540  0.00  0.00    +0.087 A 
ATOM     24  N   UNL     1      -0.597 -13.400   1.353  0.00  0.00    -0.360 N 
ATOM     25  H   UNL     1      -0.728 -14.361   1.377  0.00  0.00    +0.165 HD
ATOM     26  C   UNL     1       0.607 -12.772   1.124  0.00  0.00    +0.047 A 
ATOM     27  C   UNL     1       0.365 -11.386   1.165  0.00  0.00    +0.003 A 
ATOM     28  C   UNL     1       1.416 -10.490   0.958  0.00  0.00    +0.010 A 
ATOM     29  C   UNL     1       2.674 -10.964   0.714  0.00  0.00    +0.001 A 
ATOM     30  C   UNL     1       2.916 -12.330   0.670  0.00  0.00    +0.002 A 
ATOM     31  C   UNL     1       1.896 -13.232   0.880  0.00  0.00    +0.026 A 
ENDBRANCH  21  22
ENDBRANCH  20  21
ENDBRANCH   1  20
BRANCH   1  32
ATOM     32  C   UNL     1      -2.066  -7.135   0.871  0.00  0.00    -0.041 C 
BRANCH  32  33
ATOM     33  C   UNL     1      -2.845  -5.873   1.135  0.00  0.00    -0.046 A 
ATOM     34  C   UNL     1      -2.664  -4.766   0.326  0.00  0.00    +0.003 A 
ATOM     35  C   UNL     1      -3.379  -3.608   0.568  0.00  0.00    +0.000 A 
ATOM     36  C   UNL     1      -4.276  -3.556   1.619  0.00  0.00    +0.001 A 
ATOM     37  C   UNL     1      -4.458  -4.661   2.428  0.00  0.00    +0.020 A 
ATOM     38  C   UNL     1      -3.747  -5.822   2.183  0.00  0.00    +0.042 A 
ATOM     39 CL   UNL     1      -3.980  -7.213   3.195  0.00  0.00    -0.083 Cl
ENDBRANCH  32  33
ENDBRANCH   1  32
TORSDOF 8
