REMARK  Name = ZINC22344891
REMARK  15 active torsions:
REMARK  status: ('A' for Active; 'I' for Inactive)
REMARK    1  A    between atoms: C_1  and  C_2
REMARK    2  A    between atoms: C_2  and  O_3
REMARK    3  A    between atoms: O_3  and  C_4
REMARK    4  A    between atoms: C_7  and  S_10
REMARK    5  A    between atoms: S_10  and  N_13
REMARK    6  A    between atoms: N_13  and  C_14
REMARK    7  A    between atoms: N_13  and  C_30
REMARK    8  A    between atoms: C_14  and  C_15
REMARK    9  A    between atoms: N_17  and  C_18
REMARK   10  A    between atoms: C_18  and  C_20
REMARK   11  A    between atoms: C_18  and  C_21
REMARK   12  A    between atoms: C_21  and  O_22
REMARK   13  A    between atoms: O_22  and  C_23
REMARK   14  A    between atoms: C_26  and  C_29
REMARK   15  A    between atoms: C_33  and  C_36
REMARK                            x       y       z     vdW  Elec       q    Type
REMARK                         _______ _______ _______ _____ _____    ______ ____
ROOT
ATOM      1  N   UNL     1       2.399   1.063  -0.026  0.00  0.00    -0.194 N 
ENDROOT
BRANCH   1   2
ATOM      2  C   UNL     1       2.873   0.539   1.179  0.00  0.00    +0.052 A 
ATOM      3  C   UNL     1       4.210   0.184   1.307  0.00  0.00    +0.025 A 
ATOM      4  C   UNL     1       4.676  -0.329   2.501  0.00  0.00    +0.005 A 
ATOM      5  C   UNL     1       3.810  -0.500   3.566  0.00  0.00    -0.050 A 
ATOM      6  C   UNL     1       2.478  -0.153   3.441  0.00  0.00    +0.005 A 
ATOM      7  C   UNL     1       2.006   0.366   2.251  0.00  0.00    +0.025 A 
ATOM      8  C   UNL     1       4.321  -1.066   4.866  0.00  0.00    +0.044 C 
ENDBRANCH   1   2
BRANCH   1   9
ATOM      9  S   UNL     1       2.562   0.195  -1.427  0.00  0.00    +0.075 S 
ATOM     10  O   UNL     1       2.812  -1.150  -1.044  0.00  0.00    -0.150 OA
ATOM     11  O   UNL     1       1.470   0.560  -2.260  0.00  0.00    -0.150 OA
BRANCH   9  15
ATOM     12  C   UNL     1       6.314   1.673  -3.488  0.00  0.00    +0.121 A 
ATOM     13  C   UNL     1       6.363   0.546  -2.680  0.00  0.00    +0.047 A 
ATOM     14  C   UNL     1       5.217   0.098  -2.052  0.00  0.00    +0.032 A 
ATOM     15  C   UNL     1       4.022   0.770  -2.229  0.00  0.00    +0.109 A 
ATOM     16  C   UNL     1       3.969   1.890  -3.038  0.00  0.00    +0.032 A 
ATOM     17  C   UNL     1       5.113   2.346  -3.664  0.00  0.00    +0.047 A 
BRANCH  12  18
ATOM     18  O   UNL     1       7.439   2.117  -4.107  0.00  0.00    -0.492 OA
BRANCH  18  20
ATOM     19  C   UNL     1       8.675   3.628  -5.532  0.00  0.00    +0.048 C 
ATOM     20  C   UNL     1       7.314   3.283  -4.924  0.00  0.00    +0.225 C 
ENDBRANCH  18  20
ENDBRANCH  12  18
ENDBRANCH   9  15
ENDBRANCH   1   9
BRANCH   1  21
ATOM     21  C   UNL     1       1.759   2.380  -0.050  0.00  0.00    +0.227 C 
BRANCH  21  22
ATOM     22  C   UNL     1       0.299   2.235   0.293  0.00  0.00    +0.232 C 
ATOM     23  O   UNL     1      -0.162   1.139   0.535  0.00  0.00    -0.274 OA
ATOM     24  N   UNL     1      -0.497   3.323   0.327  0.00  0.00    -0.308 N 
ATOM     25  H   UNL     1      -0.080   4.316   0.108  0.00  0.00    +0.149 HD
BRANCH  24  26
ATOM     26  C   UNL     1      -1.918   3.181   0.655  0.00  0.00    +0.107 C 
ATOM     27  C   UNL     1      -2.093   3.187   2.175  0.00  0.00    +0.031 C 
BRANCH  26  28
ATOM     28  C   UNL     1      -2.700   4.346   0.047  0.00  0.00    +0.251 C 
BRANCH  28  29
ATOM     29  O   UNL     1      -2.290   5.569   0.663  0.00  0.00    -0.490 OA
BRANCH  29  30
ATOM     30  C   UNL     1      -2.893   6.708   0.234  0.00  0.00    +0.121 A 
ATOM     31  C   UNL     1      -3.855   6.652  -0.764  0.00  0.00    +0.046 A 
ATOM     32  C   UNL     1      -4.471   7.812  -1.194  0.00  0.00    +0.007 A 
ATOM     33  C   UNL     1      -4.120   9.029  -0.640  0.00  0.00    -0.050 A 
ATOM     34  C   UNL     1      -3.157   9.088   0.351  0.00  0.00    +0.007 A 
ATOM     35  C   UNL     1      -2.543   7.931   0.789  0.00  0.00    +0.046 A 
ATOM     36  C   UNL     1      -4.789  10.293  -1.116  0.00  0.00    +0.044 C 
ENDBRANCH  29  30
ENDBRANCH  28  29
ENDBRANCH  26  28
ENDBRANCH  24  26
ENDBRANCH  21  22
ENDBRANCH   1  21
TORSDOF 11
