REMARK  Name = ZINC09446432
REMARK  10 active torsions:
REMARK  status: ('A' for Active; 'I' for Inactive)
REMARK    1  A    between atoms: C_1  and  C_2
REMARK    2  A    between atoms: C_5  and  C_9
REMARK    3  A    between atoms: C_6  and  C_8
REMARK    4  A    between atoms: C_11  and  C_22
REMARK    5  A    between atoms: C_13  and  N_21
REMARK    6  A    between atoms: C_14  and  C_18
REMARK    7  A    between atoms: C_25  and  O_30
REMARK    8  A    between atoms: C_26  and  O_28
REMARK    9  A    between atoms: O_28  and  C_29
REMARK   10  A    between atoms: O_30  and  C_31
REMARK                            x       y       z     vdW  Elec       q    Type
REMARK                         _______ _______ _______ _____ _____    ______ ____
ROOT
ATOM      1  C   UNL     1       0.576  -1.325  -2.716  0.00  0.00    +0.073 A 
ATOM      2  C   UNL     1       1.814  -1.786  -3.163  0.00  0.00    +0.037 A 
ATOM      3  C   UNL     1       2.182  -3.105  -2.954  0.00  0.00    -0.004 A 
ATOM      4  C   UNL     1       1.274  -3.976  -2.276  0.00  0.00    +0.037 A 
ATOM      5  C   UNL     1       1.442  -5.380  -1.949  0.00  0.00    +0.054 A 
ATOM      6  C   UNL     1       0.420  -6.025  -1.284  0.00  0.00    +0.097 A 
ATOM      7  S   UNL     1      -0.806  -4.748  -1.078  0.00  0.00    -0.062 S 
ATOM      8  C   UNL     1       0.048  -3.405  -1.866  0.00  0.00    +0.112 A 
ATOM      9  N   UNL     1      -0.256  -2.144  -2.083  0.00  0.00    -0.239 NA
ENDROOT
BRANCH   1  14
ATOM     10  C   UNL     1      -0.928   4.162  -3.598  0.00  0.00    +0.044 C 
ATOM     11  C   UNL     1      -0.534   2.726  -3.367  0.00  0.00    -0.050 A 
ATOM     12  C   UNL     1       0.629   2.232  -3.929  0.00  0.00    +0.004 A 
ATOM     13  C   UNL     1       0.995   0.918  -3.721  0.00  0.00    +0.010 A 
ATOM     14  C   UNL     1       0.189   0.088  -2.943  0.00  0.00    +0.003 A 
ATOM     15  C   UNL     1      -0.983   0.591  -2.379  0.00  0.00    -0.041 A 
ATOM     16  C   UNL     1      -1.338   1.908  -2.594  0.00  0.00    +0.007 A 
ATOM     17  C   UNL     1      -1.859  -0.300  -1.538  0.00  0.00    +0.044 C 
ENDBRANCH   1  14
BRANCH   3  18
ATOM     18  C   UNL     1       3.494  -3.604  -3.425  0.00  0.00    -0.013 A 
ATOM     19  C   UNL     1       3.555  -4.672  -4.322  0.00  0.00    +0.012 A 
ATOM     20  C   UNL     1       4.778  -5.132  -4.764  0.00  0.00    +0.050 A 
ATOM     21  C   UNL     1       5.949  -4.544  -4.310  0.00  0.00    +0.162 A 
ATOM     22  C   UNL     1       5.895  -3.482  -3.410  0.00  0.00    +0.162 A 
ATOM     23  C   UNL     1       4.672  -3.012  -2.968  0.00  0.00    +0.058 A 
BRANCH  22  24
ATOM     24  O   UNL     1       7.045  -2.906  -2.967  0.00  0.00    -0.491 OA
ATOM     25  C   UNL     1       6.914  -1.821  -2.046  0.00  0.00    +0.277 C 
ENDBRANCH  22  24
BRANCH  21  26
ATOM     26  O   UNL     1       7.152  -5.005  -4.744  0.00  0.00    -0.491 OA
ATOM     27  C   UNL     1       7.134  -6.096  -5.666  0.00  0.00    +0.277 C 
ENDBRANCH  21  26
ENDBRANCH   3  18
BRANCH   6  28
ATOM     28  C   UNL     1       0.359  -7.377  -0.866  0.00  0.00    +0.250 C 
ATOM     29  O   UNL     1       1.294  -8.125  -1.088  0.00  0.00    -0.270 OA
ATOM     30  N   UNL     1      -0.733  -7.834  -0.221  0.00  0.00    -0.325 N 
ATOM     31  H   UNL     1      -1.477  -7.238  -0.044  0.00  0.00    +0.145 HD
ATOM     32  H   UNL     1      -0.774  -8.760   0.065  0.00  0.00    +0.145 HD
ENDBRANCH   6  28
BRANCH   5  33
ATOM     33  N   UNL     1       2.602  -6.058  -2.298  0.00  0.00    -0.356 N 
ATOM     34  H   UNL     1       3.448  -5.585  -2.334  0.00  0.00    +0.142 HD
ATOM     35  H   UNL     1       2.567  -7.005  -2.506  0.00  0.00    +0.142 HD
ENDBRANCH   5  33
TORSDOF 6
