REMARK  Name = ZINC35599716
REMARK  7 active torsions:
REMARK  status: ('A' for Active; 'I' for Inactive)
REMARK    1  A    between atoms: C_1  and  C_2
REMARK    2  A    between atoms: C_2  and  C_4
REMARK    3  A    between atoms: C_2  and  N_6
REMARK    4  A    between atoms: C_4  and  O_5
REMARK    5  A    between atoms: N_6  and  S_7
REMARK    6  A    between atoms: S_7  and  C_10
REMARK    7  A    between atoms: C_11  and  N_18
REMARK                            x       y       z     vdW  Elec       q    Type
REMARK                         _______ _______ _______ _____ _____    ______ ____
ROOT
ATOM      1  C   UNL     1      -1.341  -2.356   2.530  0.00  0.00    +0.140 A 
ATOM      2  C   UNL     1      -2.455  -2.111   1.736  0.00  0.00    +0.053 A 
ATOM      3  C   UNL     1      -3.035  -3.149   1.020  0.00  0.00    +0.040 A 
ATOM      4  C   UNL     1      -2.504  -4.423   1.098  0.00  0.00    +0.021 A 
ATOM      5  C   UNL     1      -1.395  -4.663   1.889  0.00  0.00    +0.032 A 
ATOM      6  C   UNL     1      -0.811  -3.630   2.600  0.00  0.00    +0.047 A 
ATOM      7 BR   UNL     1       0.710  -3.962   3.674  0.00  0.00    -0.048 Br
ATOM      8 BR   UNL     1      -3.294  -5.837   0.122  0.00  0.00    -0.050 Br
ENDROOT
BRANCH   1   9
ATOM      9  S   UNL     1      -0.601  -1.041   3.440  0.00  0.00    +0.062 S 
ATOM     10  O   UNL     1       0.000  -1.629   4.586  0.00  0.00    -0.153 OA
ATOM     11  O   UNL     1      -1.576  -0.012   3.534  0.00  0.00    -0.153 OA
BRANCH   9  12
ATOM     12  N   UNL     1       0.634  -0.439   2.514  0.00  0.00    -0.185 NA
ATOM     13  H   UNL     1       1.551  -0.520   2.818  0.00  0.00    +0.148 HD
BRANCH  12  15
ATOM     14  C   UNL     1       0.248   1.728   1.448  0.00  0.00    +0.028 C 
ATOM     15  C   UNL     1       0.340   0.215   1.237  0.00  0.00    +0.099 C 
BRANCH  15  16
ATOM     16  C   UNL     1       1.456  -0.094   0.237  0.00  0.00    +0.175 C 
BRANCH  16  17
ATOM     17  O   UNL     1       2.677   0.493   0.690  0.00  0.00    -0.393 OA
ATOM     18  H   UNL     1       3.430   0.337   0.103  0.00  0.00    +0.209 HD
ENDBRANCH  16  17
ENDBRANCH  15  16
ENDBRANCH  12  15
ENDBRANCH   9  12
ENDBRANCH   1   9
BRANCH   2  19
ATOM     19  N   UNL     1      -2.990  -0.823   1.659  0.00  0.00    -0.356 N 
ATOM     20  H   UNL     1      -2.422  -0.052   1.816  0.00  0.00    +0.142 HD
ATOM     21  H   UNL     1      -3.929  -0.699   1.450  0.00  0.00    +0.142 HD
ENDBRANCH   2  19
TORSDOF 6
