REMARK  Name = ZINC67239394
REMARK  5 active torsions:
REMARK  status: ('A' for Active; 'I' for Inactive)
REMARK    1  A    between atoms: C_3  and  N_12
REMARK    2  A    between atoms: C_6  and  C_7
REMARK    3  A    between atoms: C_7  and  N_8
REMARK    4  A    between atoms: C_13  and  C_15
REMARK    5  A    between atoms: C_21  and  C_23
REMARK                            x       y       z     vdW  Elec       q    Type
REMARK                         _______ _______ _______ _____ _____    ______ ____
ROOT
ATOM      1  C   UNL     1       1.106  -0.462   0.794  0.00  0.00    +0.007 A 
ATOM      2  C   UNL     1       2.298   0.236   0.775  0.00  0.00    +0.023 A 
ATOM      3  C   UNL     1       2.379   1.451   0.108  0.00  0.00    +0.033 A 
ATOM      4  C   UNL     1       1.260   1.960  -0.539  0.00  0.00    +0.023 A 
ATOM      5  C   UNL     1       0.071   1.258  -0.517  0.00  0.00    +0.007 A 
ATOM      6  C   UNL     1      -0.006   0.048   0.149  0.00  0.00    -0.030 A 
ENDROOT
BRANCH   3   7
ATOM      7  N   UNL     1       3.584   2.161   0.087  0.00  0.00    -0.285 N 
ATOM      8  C   UNL     1       4.757   1.496   0.077  0.00  0.00    +0.221 C 
ATOM      9  O   UNL     1       4.768   0.287  -0.009  0.00  0.00    -0.275 OA
ATOM     10  H   UNL     1       3.576   3.131   0.080  0.00  0.00    +0.155 HD
BRANCH   8  11
ATOM     11  C   UNL     1       6.055   2.257   0.172  0.00  0.00    +0.087 C 
ATOM     12  C   UNL     1       6.823   1.801   1.414  0.00  0.00    +0.013 C 
ATOM     13  C   UNL     1       7.117   0.303   1.311  0.00  0.00    +0.001 C 
ATOM     14  C   UNL     1       7.959   0.033   0.063  0.00  0.00    +0.001 C 
ATOM     15  C   UNL     1       7.190   0.489  -1.179  0.00  0.00    +0.013 C 
ATOM     16  C   UNL     1       6.897   1.987  -1.076  0.00  0.00    +0.105 C 
BRANCH  16  17
ATOM     17  C   UNL     1       6.128   2.443  -2.318  0.00  0.00    +0.394 C 
ATOM     18  F   UNL     1       5.747   3.780  -2.166  0.00  0.00    -0.170 F 
ATOM     19  F   UNL     1       6.947   2.317  -3.446  0.00  0.00    -0.170 F 
ATOM     20  F   UNL     1       4.989   1.648  -2.479  0.00  0.00    -0.170 F 
ENDBRANCH  16  17
ENDBRANCH   8  11
ENDBRANCH   3   7
BRANCH   6  21
ATOM     21  C   UNL     1      -1.304  -0.716   0.171  0.00  0.00    +0.141 C 
BRANCH  21  22
ATOM     22  N   UNL     1      -2.094  -0.304   1.335  0.00  0.00    -0.295 N 
ATOM     23  C   UNL     1      -3.301  -0.858   1.561  0.00  0.00    +0.297 C 
ATOM     24  O   UNL     1      -3.736  -1.700   0.799  0.00  0.00    -0.253 OA
ATOM     25  N   UNL     1      -4.027  -0.479   2.631  0.00  0.00    -0.313 N 
ATOM     26  H   UNL     1      -1.747   0.367   1.943  0.00  0.00    +0.151 HD
ATOM     27  H   UNL     1      -3.680   0.192   3.239  0.00  0.00    +0.146 HD
ATOM     28  H   UNL     1      -4.896  -0.878   2.794  0.00  0.00    +0.146 HD
ENDBRANCH  21  22
ENDBRANCH   6  21
TORSDOF 5
