REMARK  Name = ZINC18043414
REMARK  4 active torsions:
REMARK  status: ('A' for Active; 'I' for Inactive)
REMARK    1  A    between atoms: C_3  and  S_20
REMARK    2  A    between atoms: C_6  and  N_7
REMARK    3  A    between atoms: N_7  and  N_8
REMARK    4  A    between atoms: S_20  and  N_23
REMARK                            x       y       z     vdW  Elec       q    Type
REMARK                         _______ _______ _______ _____ _____    ______ ____
ROOT
ATOM      1  N   UNL     1      -1.196  -0.720   0.010  0.00  0.00    -0.237 N 
ATOM      2  H   UNL     1      -2.043  -0.247   0.021  0.00  0.00    +0.174 HD
ENDROOT
BRANCH   1   3
ATOM      3  N   UNL     1      -1.176  -2.010   0.003  0.00  0.00    -0.177 NA
ATOM      4  C   UNL     1      -2.304  -2.684   0.011  0.00  0.00    +0.152 C 
ATOM      5  C   UNL     1      -2.475  -4.155   0.010  0.00  0.00    +0.029 A 
ATOM      6  C   UNL     1      -1.579  -5.218   0.002  0.00  0.00    +0.027 A 
ATOM      7  C   UNL     1      -2.055  -6.515   0.004  0.00  0.00    +0.019 A 
ATOM      8  C   UNL     1      -3.420  -6.753   0.014  0.00  0.00    +0.017 A 
ATOM      9  C   UNL     1      -4.317  -5.705   0.023  0.00  0.00    +0.025 A 
ATOM     10  C   UNL     1      -3.856  -4.392   0.021  0.00  0.00    +0.043 A 
ATOM     11  N   UNL     1      -4.530  -3.176   0.027  0.00  0.00    -0.280 N 
ATOM     12  C   UNL     1      -3.673  -2.141   0.028  0.00  0.00    +0.269 C 
ATOM     13  O   UNL     1      -3.975  -0.961   0.037  0.00  0.00    -0.268 OA
ATOM     14 BR   UNL     1      -0.843  -7.966  -0.008  0.00  0.00    -0.050 Br
ATOM     15  H   UNL     1      -5.496  -3.086   0.034  0.00  0.00    +0.155 HD
ENDBRANCH   1   3
BRANCH   1  21
ATOM     16  C   UNL     1      -0.017   1.386   0.010  0.00  0.00    +0.026 A 
ATOM     17  C   UNL     1       1.171   2.091   0.002  0.00  0.00    +0.030 A 
ATOM     18  C   UNL     1       2.377   1.415  -0.013  0.00  0.00    +0.105 A 
ATOM     19  C   UNL     1       2.400   0.033  -0.022  0.00  0.00    +0.030 A 
ATOM     20  C   UNL     1       1.217  -0.679  -0.014  0.00  0.00    +0.026 A 
ATOM     21  C   UNL     1       0.002  -0.004   0.002  0.00  0.00    +0.048 A 
BRANCH  18  22
ATOM     22  S   UNL     1       3.890   2.319  -0.024  0.00  0.00    +0.056 S 
ATOM     23  O   UNL     1       4.872   1.462  -0.589  0.00  0.00    -0.153 OA
ATOM     24  O   UNL     1       3.594   3.599  -0.565  0.00  0.00    -0.153 OA
BRANCH  22  25
ATOM     25  N   UNL     1       4.326   2.562   1.555  0.00  0.00    -0.204 NA
ATOM     26  H   UNL     1       3.767   2.220   2.271  0.00  0.00    +0.144 HD
ATOM     27  H   UNL     1       5.140   3.046   1.765  0.00  0.00    +0.144 HD
ENDBRANCH  22  25
ENDBRANCH  18  22
ENDBRANCH   1  21
TORSDOF 4
