REMARK  Name = ZINC39532647
REMARK  10 active torsions:
REMARK  status: ('A' for Active; 'I' for Inactive)
REMARK    1  A    between atoms: C_1  and  C_2
REMARK    2  A    between atoms: C_2  and  C_3
REMARK    3  A    between atoms: C_3  and  C_4
REMARK    4  A    between atoms: C_7  and  C_10
REMARK    5  A    between atoms: C_10  and  C_12
REMARK    6  A    between atoms: C_10  and  N_15
REMARK    7  A    between atoms: C_12  and  N_13
REMARK    8  A    between atoms: N_13  and  O_14
REMARK    9  A    between atoms: C_19  and  C_22
REMARK   10  A    between atoms: C_27  and  O_28
REMARK                            x       y       z     vdW  Elec       q    Type
REMARK                         _______ _______ _______ _____ _____    ______ ____
ROOT
ATOM      1  N   UNL     1      -0.531  -6.874  -1.105  0.00  0.00    -0.297 NA
ATOM      2  C   UNL     1      -1.205  -6.274   0.055  0.00  0.00    +0.066 C 
ATOM      3  C   UNL     1      -2.603  -6.880   0.199  0.00  0.00    -0.066 C 
ATOM      4  N   UNL     1      -2.491  -8.334   0.375  0.00  0.00    +0.385 N 
ATOM      5  C   UNL     1      -1.838  -8.922  -0.802  0.00  0.00    -0.023 C 
ATOM      6  C   UNL     1      -0.434  -8.333  -0.955  0.00  0.00    +0.074 C 
ATOM      7  H   UNL     1      -1.941  -8.531   1.198  0.00  0.00    -0.085 HD
ATOM      8  H   UNL     1      -3.412  -8.731   0.482  0.00  0.00    -0.085 HD
ENDROOT
BRANCH   5   9
ATOM      9  C   UNL     1      -1.740 -10.415  -0.628  0.00  0.00    -0.019 A 
ATOM     10  C   UNL     1      -1.840 -10.973   0.632  0.00  0.00    +0.005 A 
ATOM     11  C   UNL     1      -1.749 -12.343   0.792  0.00  0.00    +0.000 A 
ATOM     12  C   UNL     1      -1.559 -13.159  -0.308  0.00  0.00    +0.004 A 
ATOM     13  C   UNL     1      -1.459 -12.607  -1.570  0.00  0.00    +0.045 A 
ATOM     14  C   UNL     1      -1.555 -11.232  -1.734  0.00  0.00    +0.118 A 
BRANCH  14  15
ATOM     15  O   UNL     1      -1.462 -10.687  -2.975  0.00  0.00    -0.507 OA
ATOM     16  H   UNL     1      -0.560 -10.460  -3.239  0.00  0.00    +0.292 HD
ENDBRANCH  14  15
ENDBRANCH   5   9
BRANCH   1  17
ATOM     17  C   UNL     1       0.795  -6.276  -1.311  0.00  0.00    +0.103 C 
BRANCH  17  21
ATOM     18  C   UNL     1       0.377  -2.078  -1.980  0.00  0.00    -0.047 A 
ATOM     19  C   UNL     1       1.414  -2.554  -1.200  0.00  0.00    +0.004 A 
ATOM     20  C   UNL     1       1.549  -3.912  -0.984  0.00  0.00    +0.005 A 
ATOM     21  C   UNL     1       0.647  -4.795  -1.547  0.00  0.00    -0.029 A 
ATOM     22  C   UNL     1      -0.391  -4.319  -2.326  0.00  0.00    +0.005 A 
ATOM     23  C   UNL     1      -0.529  -2.960  -2.539  0.00  0.00    +0.004 A 
BRANCH  18  24
ATOM     24  C   UNL     1       0.230  -0.597  -2.217  0.00  0.00    +0.035 C 
BRANCH  24  26
ATOM     25  C   UNL     1      -0.798   1.513  -1.360  0.00  0.00    +0.004 C 
ATOM     26  C   UNL     1      -0.648   0.010  -1.120  0.00  0.00    +0.001 C 
ENDBRANCH  24  26
ENDBRANCH  18  24
ENDBRANCH  17  21
BRANCH  17  27
ATOM     27  C   UNL     1       1.462  -6.922  -2.527  0.00  0.00    +0.134 C 
BRANCH  27  28
ATOM     28  N   UNL     1       2.820  -6.384  -2.684  0.00  0.00    -0.202 NA
ATOM     29  H   UNL     1       3.388  -6.596  -1.877  0.00  0.00    +0.154 HD
BRANCH  28  30
ATOM     30  O   UNL     1       3.443  -6.883  -3.910  0.00  0.00    -0.315 OA
ATOM     31  H   UNL     1       4.341  -6.555  -4.056  0.00  0.00    +0.236 HD
ENDBRANCH  28  30
ENDBRANCH  27  28
ENDBRANCH  17  27
ENDBRANCH   1  17
TORSDOF 9
