REMARK  Name = ZINC08819390
REMARK  14 active torsions:
REMARK  status: ('A' for Active; 'I' for Inactive)
REMARK    1  A    between atoms: C_1  and  C_2
REMARK    2  A    between atoms: C_2  and  C_3
REMARK    3  A    between atoms: C_3  and  C_4
REMARK    4  A    between atoms: C_4  and  O_5
REMARK    5  A    between atoms: O_5  and  C_6
REMARK    6  A    between atoms: C_6  and  C_8
REMARK    7  A    between atoms: C_11  and  N_14
REMARK    8  A    between atoms: C_15  and  C_17
REMARK    9  A    between atoms: C_17  and  N_18
REMARK   10  A    between atoms: C_22  and  C_23
REMARK   11  A    between atoms: C_26  and  O_31
REMARK   12  A    between atoms: C_27  and  O_29
REMARK   13  A    between atoms: O_29  and  C_30
REMARK   14  A    between atoms: O_31  and  C_32
REMARK                            x       y       z     vdW  Elec       q    Type
REMARK                         _______ _______ _______ _____ _____    ______ ____
ROOT
ATOM      1  C   UNL     1       4.997  -2.865   8.148  0.00  0.00    +0.211 C 
ENDROOT
BRANCH   1   2
ATOM      2  N   UNL     1       4.266  -2.219   7.056  0.00  0.00    -0.246 N 
ATOM      3  C   UNL     1       3.230  -1.447   7.340  0.00  0.00    +0.259 C 
ATOM      4  O   UNL     1       2.869  -1.258   8.487  0.00  0.00    -0.269 OA
ATOM      5  C   UNL     1       2.532  -0.829   6.196  0.00  0.00    +0.077 C 
ATOM      6  C   UNL     1       1.452  -0.006   6.182  0.00  0.00    +0.028 C 
ATOM      7  S   UNL     1       3.504  -1.456   4.832  0.00  0.00    -0.061 S 
ATOM      8  C   UNL     1       4.667  -2.419   5.785  0.00  0.00    +0.121 C 
ATOM      9  S   UNL     1       5.976  -3.367   5.220  0.00  0.00    -0.027 S 
BRANCH   6  10
ATOM     10  C   UNL     1       0.841   0.383   4.905  0.00  0.00    -0.020 A 
ATOM     11  C   UNL     1       1.242  -0.239   3.716  0.00  0.00    +0.012 A 
ATOM     12  C   UNL     1       0.667   0.128   2.520  0.00  0.00    +0.050 A 
ATOM     13  C   UNL     1      -0.310   1.114   2.488  0.00  0.00    +0.162 A 
ATOM     14  C   UNL     1      -0.710   1.743   3.666  0.00  0.00    +0.162 A 
ATOM     15  C   UNL     1      -0.144   1.377   4.872  0.00  0.00    +0.057 A 
BRANCH  14  16
ATOM     16  O   UNL     1      -1.663   2.713   3.629  0.00  0.00    -0.491 OA
ATOM     17  C   UNL     1      -2.025   3.314   4.874  0.00  0.00    +0.277 C 
ENDBRANCH  14  16
BRANCH  13  18
ATOM     18  O   UNL     1      -0.873   1.472   1.304  0.00  0.00    -0.491 OA
ATOM     19  C   UNL     1      -0.412   0.792   0.135  0.00  0.00    +0.277 C 
ENDBRANCH  13  18
ENDBRANCH   6  10
ENDBRANCH   1   2
BRANCH   1  21
ATOM     20  N   UNL     1       6.917  -2.349   9.620  0.00  0.00    -0.284 N 
ATOM     21  C   UNL     1       6.106  -1.959   8.616  0.00  0.00    +0.235 C 
ATOM     22  O   UNL     1       6.270  -0.879   8.090  0.00  0.00    -0.274 OA
ATOM     23  H   UNL     1       6.818  -3.232  10.009  0.00  0.00    +0.155 HD
BRANCH  20  27
ATOM     24  C   UNL     1       9.847   0.241  11.055  0.00  0.00    +0.059 A 
ATOM     25  C   UNL     1       9.176  -0.615  11.935  0.00  0.00    +0.017 A 
ATOM     26  C   UNL     1       8.209  -1.469  11.457  0.00  0.00    +0.024 A 
ATOM     27  C   UNL     1       7.898  -1.482  10.101  0.00  0.00    +0.033 A 
ATOM     28  C   UNL     1       8.567  -0.636   9.222  0.00  0.00    +0.024 A 
ATOM     29  C   UNL     1       9.532   0.225   9.693  0.00  0.00    +0.017 A 
BRANCH  24  30
ATOM     30  C   UNL     1      10.885   1.157  11.563  0.00  0.00    +0.339 C 
ATOM     31  O   UNL     1      11.158   1.169  12.747  0.00  0.00    -0.245 OA
BRANCH  30  32
ATOM     32  O   UNL     1      11.530   1.981  10.715  0.00  0.00    -0.461 OA
BRANCH  32  33
ATOM     33  C   UNL     1      12.540   2.855  11.284  0.00  0.00    +0.232 C 
BRANCH  33  34
ATOM     34  C   UNL     1      13.159   3.709  10.176  0.00  0.00    +0.041 C 
BRANCH  34  36
ATOM     35  C   UNL     1      14.842   5.485   9.669  0.00  0.00    +0.004 C 
ATOM     36  C   UNL     1      14.222   4.631  10.777  0.00  0.00    -0.000 C 
ENDBRANCH  34  36
ENDBRANCH  33  34
ENDBRANCH  32  33
ENDBRANCH  30  32
ENDBRANCH  24  30
ENDBRANCH  20  27
ENDBRANCH   1  21
TORSDOF 11
