REMARK  Name = ZINC14476135
REMARK  7 active torsions:
REMARK  status: ('A' for Active; 'I' for Inactive)
REMARK    1  A    between atoms: C_3  and  O_35
REMARK    2  A    between atoms: C_4  and  C_10
REMARK    3  A    between atoms: C_6  and  N_7
REMARK    4  A    between atoms: C_21  and  O_26
REMARK    5  A    between atoms: O_26  and  C_27
REMARK    6  A    between atoms: C_27  and  C_28
REMARK    7  A    between atoms: C_28  and  C_29
REMARK                            x       y       z     vdW  Elec       q    Type
REMARK                         _______ _______ _______ _____ _____    ______ ____
ROOT
ATOM      1  C   UNL     1      -5.601  10.904   5.143  0.00  0.00    +0.108 C 
ATOM      2  C   UNL     1      -4.312  11.636   4.760  0.00  0.00    +0.029 C 
ATOM      3  C   UNL     1      -4.713  13.062   4.281  0.00  0.00    +0.033 C 
ATOM      4  C   UNL     1      -5.122  12.844   2.836  0.00  0.00    -0.030 C 
ATOM      5  C   UNL     1      -4.590  11.741   2.370  0.00  0.00    -0.023 C 
ATOM      6  C   UNL     1      -3.759  11.070   3.437  0.00  0.00    +0.049 C 
ATOM      7  C   UNL     1      -3.861   9.580   3.351  0.00  0.00    -0.016 A 
ATOM      8  C   UNL     1      -3.176   8.924   2.336  0.00  0.00    +0.051 A 
ATOM      9  C   UNL     1      -3.243   7.547   2.220  0.00  0.00    +0.121 A 
ATOM     10  C   UNL     1      -4.001   6.807   3.116  0.00  0.00    +0.047 A 
ATOM     11  C   UNL     1      -4.678   7.452   4.132  0.00  0.00    +0.027 A 
ATOM     12  C   UNL     1      -4.611   8.834   4.246  0.00  0.00    +0.032 A 
ATOM     13  N   UNL     1      -5.313   9.472   5.278  0.00  0.00    -0.336 N 
ATOM     14  H   UNL     1      -5.646   8.926   6.173  0.00  0.00    +0.147 HD
ENDROOT
BRANCH   1  18
ATOM     15  C   UNL     1      -7.062  12.429   8.860  0.00  0.00    +0.036 A 
ATOM     16  C   UNL     1      -5.950  11.609   8.843  0.00  0.00    +0.048 A 
ATOM     17  C   UNL     1      -5.474  11.113   7.639  0.00  0.00    +0.122 A 
ATOM     18  C   UNL     1      -6.116  11.441   6.453  0.00  0.00    +0.017 A 
ATOM     19  C   UNL     1      -7.224  12.265   6.475  0.00  0.00    +0.041 A 
ATOM     20  C   UNL     1      -7.701  12.754   7.678  0.00  0.00    +0.127 A 
BRANCH  20  21
ATOM     21  N   UNL     1      -8.892  13.632   7.699  0.00  0.00    +0.056 N 
ATOM     22  O   UNL     1      -9.309  14.067   8.757  0.00  0.00    -0.126 OA
ATOM     23  O   UNL     1      -9.455  13.919   6.658  0.00  0.00    -0.126 OA
ENDBRANCH  20  21
BRANCH  17  24
ATOM     24  O   UNL     1      -4.380  10.307   7.619  0.00  0.00    -0.506 OA
ATOM     25  H   UNL     1      -4.003   9.914   6.664  0.00  0.00    +0.292 HD
ENDBRANCH  17  24
ENDBRANCH   1  18
BRANCH   9  26
ATOM     26  O   UNL     1      -2.568   6.917   1.221  0.00  0.00    -0.492 OA
BRANCH  26  27
ATOM     27  C   UNL     1      -2.681   5.494   1.159  0.00  0.00    +0.229 C 
BRANCH  27  28
ATOM     28  C   UNL     1      -1.860   4.968  -0.021  0.00  0.00    +0.044 C 
BRANCH  28  29
ATOM     29  C   UNL     1      -1.981   3.444  -0.087  0.00  0.00    -0.008 C 
ATOM     30  C   UNL     1      -1.264   2.930  -1.337  0.00  0.00    +0.003 C 
ATOM     31  C   UNL     1      -1.384   1.406  -1.403  0.00  0.00    +0.000 C 
ATOM     32  C   UNL     1      -0.744   0.789  -0.158  0.00  0.00    +0.000 C 
ATOM     33  C   UNL     1      -1.462   1.304   1.092  0.00  0.00    +0.000 C 
ATOM     34  C   UNL     1      -1.341   2.827   1.159  0.00  0.00    +0.003 C 
ENDBRANCH  28  29
ENDBRANCH  27  28
ENDBRANCH  26  27
ENDBRANCH   9  26
TORSDOF 7
