REMARK  Name = ZINC16614650
REMARK  9 active torsions:
REMARK  status: ('A' for Active; 'I' for Inactive)
REMARK    1  A    between atoms: C_1  and  C_2
REMARK    2  A    between atoms: C_6  and  C_8
REMARK    3  A    between atoms: C_14  and  C_16
REMARK    4  A    between atoms: C_16  and  C_18
REMARK    5  A    between atoms: C_16  and  N_21
REMARK    6  A    between atoms: C_18  and  C_19
REMARK    7  A    between atoms: C_18  and  C_20
REMARK    8  A    between atoms: N_21  and  S_22
REMARK    9  A    between atoms: S_22  and  C_25
REMARK                            x       y       z     vdW  Elec       q    Type
REMARK                         _______ _______ _______ _____ _____    ______ ____
ROOT
ATOM      1  C   UNL     1      -0.635  11.862  -0.169  0.00  0.00    +0.165 C 
ENDROOT
BRANCH   1   8
ATOM      2  C   UNL     1       0.539   5.695  -1.213  0.00  0.00    +0.134 A 
ATOM      3  N   UNL     1       1.417   6.620  -0.846  0.00  0.00    -0.140 NA
ATOM      4  N   UNL     1       1.046   7.811  -0.652  0.00  0.00    -0.125 NA
ATOM      5  C   UNL     1      -0.217   8.183  -0.793  0.00  0.00    +0.188 A 
ATOM      6  S   UNL     1      -0.955   6.679  -1.259  0.00  0.00    -0.030 S 
ATOM      7  N   UNL     1      -0.794   9.435  -0.618  0.00  0.00    -0.262 N 
ATOM      8  C   UNL     1      -0.032  10.483  -0.249  0.00  0.00    +0.238 C 
ATOM      9  O   UNL     1       1.139  10.317   0.018  0.00  0.00    -0.274 OA
ATOM     10  H   UNL     1      -1.747   9.553  -0.760  0.00  0.00    +0.157 HD
BRANCH   2  16
ATOM     11  C   UNL     1       3.562   1.741  -1.558  0.00  0.00    +0.044 C 
ATOM     12  C   UNL     1       2.189   2.352  -1.665  0.00  0.00    -0.050 A 
ATOM     13  C   UNL     1       1.110   1.567  -2.030  0.00  0.00    +0.003 A 
ATOM     14  C   UNL     1      -0.153   2.121  -2.136  0.00  0.00    +0.001 A 
ATOM     15  C   UNL     1      -0.346   3.461  -1.867  0.00  0.00    +0.010 A 
ATOM     16  C   UNL     1       0.738   4.258  -1.498  0.00  0.00    +0.009 A 
ATOM     17  C   UNL     1       2.010   3.694  -1.398  0.00  0.00    +0.014 A 
ENDBRANCH   2  16
ENDBRANCH   1   8
BRANCH   1  18
ATOM     18  C   UNL     1      -1.266  12.064   1.210  0.00  0.00    +0.010 C 
ATOM     19  C   UNL     1      -2.437  11.094   1.383  0.00  0.00    +0.009 C 
ATOM     20  C   UNL     1      -0.219  11.796   2.294  0.00  0.00    +0.009 C 
ENDBRANCH   1  18
BRANCH   1  21
ATOM     21  N   UNL     1       0.411  12.866  -0.379  0.00  0.00    -0.178 NA
ATOM     22  H   UNL     1       1.309  12.707  -0.048  0.00  0.00    +0.149 HD
BRANCH  21  23
ATOM     23  S   UNL     1       0.061  14.271  -1.181  0.00  0.00    +0.059 S 
ATOM     24  O   UNL     1       1.258  15.037  -1.199  0.00  0.00    -0.153 OA
ATOM     25  O   UNL     1      -0.624  13.901  -2.370  0.00  0.00    -0.153 OA
BRANCH  23  26
ATOM     26  C   UNL     1      -1.093  15.162  -0.192  0.00  0.00    +0.106 A 
ATOM     27  C   UNL     1      -2.459  14.960  -0.381  0.00  0.00    +0.029 A 
ATOM     28  C   UNL     1      -3.376  15.628   0.370  0.00  0.00    +0.010 A 
ATOM     29  C   UNL     1      -2.943  16.545   1.344  0.00  0.00    -0.018 A 
ATOM     30  C   UNL     1      -3.861  17.259   2.134  0.00  0.00    +0.008 A 
ATOM     31  C   UNL     1      -3.405  18.138   3.067  0.00  0.00    +0.001 A 
ATOM     32  C   UNL     1      -2.039  18.344   3.252  0.00  0.00    +0.001 A 
ATOM     33  C   UNL     1      -1.122  17.672   2.505  0.00  0.00    +0.008 A 
ATOM     34  C   UNL     1      -1.554  16.755   1.532  0.00  0.00    -0.016 A 
ATOM     35  C   UNL     1      -0.637  16.042   0.741  0.00  0.00    +0.037 A 
ENDBRANCH  23  26
ENDBRANCH  21  23
ENDBRANCH   1  21
TORSDOF 6
