REMARK  Name = ZINC14359549
REMARK  10 active torsions:
REMARK  status: ('A' for Active; 'I' for Inactive)
REMARK    1  A    between atoms: C_1  and  C_2
REMARK    2  A    between atoms: C_3  and  C_33
REMARK    3  A    between atoms: C_9  and  C_13
REMARK    4  A    between atoms: C_14  and  C_15
REMARK    5  A    between atoms: C_20  and  O_21
REMARK    6  A    between atoms: O_21  and  C_22
REMARK    7  A    between atoms: C_22  and  C_23
REMARK    8  A    between atoms: C_26  and  C_29
REMARK    9  A    between atoms: C_29  and  O_31
REMARK   10  A    between atoms: O_31  and  C_32
REMARK                            x       y       z     vdW  Elec       q    Type
REMARK                         _______ _______ _______ _____ _____    ______ ____
ROOT
ATOM      1  C   UNL     1       0.001   4.223   0.024  0.00  0.00    +0.047 C 
ATOM      2  C   UNL     1       1.175   3.557   0.009  0.00  0.00    +0.015 C 
ENDROOT
BRANCH   1  11
ATOM      3  C   UNL     1       1.894  11.801   0.045  0.00  0.00    +0.052 C 
ATOM      4  C   UNL     1       1.441  10.363   0.042  0.00  0.00    -0.003 A 
ATOM      5  C   UNL     1       0.174   9.882   0.051  0.00  0.00    +0.007 A 
ATOM      6  C   UNL     1      -0.028   8.438   0.045  0.00  0.00    +0.080 A 
ATOM      7  C   UNL     1      -1.253   7.699   0.053  0.00  0.00    +0.261 A 
ATOM      8  O   UNL     1      -2.324   8.280   0.066  0.00  0.00    -0.267 OA
ATOM      9  N   UNL     1      -1.208   6.354   0.046  0.00  0.00    -0.307 N 
ATOM     10  H   UNL     1      -2.036   5.849   0.051  0.00  0.00    +0.170 HD
ATOM     11  C   UNL     1      -0.010   5.685   0.031  0.00  0.00    +0.135 A 
ATOM     12  N   UNL     1       1.133   6.347   0.029  0.00  0.00    -0.222 NA
ATOM     13  C   UNL     1       1.153   7.672   0.030  0.00  0.00    +0.117 A 
ATOM     14  S   UNL     1       2.444   8.890   0.025  0.00  0.00    -0.073 S 
BRANCH   5  15
ATOM     15  C   UNL     1      -0.985  10.806   0.067  0.00  0.00    -0.016 A 
ATOM     16  C   UNL     1      -1.856  10.854  -1.020  0.00  0.00    +0.008 A 
ATOM     17  C   UNL     1      -2.936  11.713  -0.998  0.00  0.00    +0.001 A 
ATOM     18  C   UNL     1      -3.148  12.533   0.095  0.00  0.00    +0.000 A 
ATOM     19  C   UNL     1      -2.284  12.494   1.175  0.00  0.00    +0.001 A 
ATOM     20  C   UNL     1      -1.204  11.635   1.166  0.00  0.00    +0.008 A 
ENDBRANCH   5  15
ENDBRANCH   1  11
BRANCH   2  21
ATOM     21  C   UNL     1       1.187   2.087   0.002  0.00  0.00    +0.017 A 
ATOM     22  C   UNL     1      -0.017   1.374   0.010  0.00  0.00    +0.011 A 
ATOM     23  C   UNL     1       0.002  -0.004   0.002  0.00  0.00    +0.001 A 
ATOM     24  C   UNL     1       1.207  -0.687  -0.014  0.00  0.00    +0.004 A 
ATOM     25  C   UNL     1       2.403   0.005  -0.021  0.00  0.00    +0.046 A 
ATOM     26  C   UNL     1       2.405   1.391  -0.013  0.00  0.00    +0.128 A 
BRANCH  26  27
ATOM     27  O   UNL     1       3.579   2.071  -0.020  0.00  0.00    -0.487 OA
BRANCH  27  28
ATOM     28  C   UNL     1       4.779   1.295  -0.035  0.00  0.00    +0.264 C 
BRANCH  28  29
ATOM     29  C   UNL     1       5.973   2.215  -0.041  0.00  0.00    -0.010 A 
ATOM     30  C   UNL     1       6.511   2.638  -1.243  0.00  0.00    +0.008 A 
ATOM     31  C   UNL     1       7.600   3.484  -1.256  0.00  0.00    +0.015 A 
ATOM     32  C   UNL     1       8.167   3.904  -0.051  0.00  0.00    +0.059 A 
ATOM     33  C   UNL     1       7.622   3.469   1.159  0.00  0.00    +0.015 A 
ATOM     34  C   UNL     1       6.529   2.628   1.157  0.00  0.00    +0.008 A 
BRANCH  32  35
ATOM     35  C   UNL     1       9.337   4.806  -0.056  0.00  0.00    +0.339 C 
ATOM     36  O   UNL     1       9.827   5.171   0.994  0.00  0.00    -0.245 OA
BRANCH  35  37
ATOM     37  O   UNL     1       9.860   5.224  -1.225  0.00  0.00    -0.464 OA
ATOM     38  C   UNL     1      11.009   6.109  -1.154  0.00  0.00    +0.280 C 
ENDBRANCH  35  37
ENDBRANCH  32  35
ENDBRANCH  28  29
ENDBRANCH  27  28
ENDBRANCH  26  27
ENDBRANCH   2  21
TORSDOF 8
