REMARK  Name = ZINC35040930
REMARK  9 active torsions:
REMARK  status: ('A' for Active; 'I' for Inactive)
REMARK    1  A    between atoms: C_1  and  C_2
REMARK    2  A    between atoms: C_2  and  N_3
REMARK    3  A    between atoms: N_3  and  C_4
REMARK    4  A    between atoms: C_4  and  C_6
REMARK    5  A    between atoms: C_4  and  C_7
REMARK    6  A    between atoms: N_17  and  C_18
REMARK    7  A    between atoms: C_21  and  O_24
REMARK    8  A    between atoms: O_24  and  C_25
REMARK    9  A    between atoms: N_28  and  C_29
REMARK                            x       y       z     vdW  Elec       q    Type
REMARK                         _______ _______ _______ _____ _____    ______ ____
ROOT
ATOM      1  C   UNL     1       2.302  -1.494   0.117  0.00  0.00    +0.138 A 
ATOM      2  N   UNL     1       1.326  -1.967   0.832  0.00  0.00    -0.231 NA
ATOM      3  C   UNL     1       1.552  -2.629   1.995  0.00  0.00    +0.078 A 
ATOM      4  C   UNL     1       0.504  -3.139   2.763  0.00  0.00    +0.028 A 
ATOM      5  C   UNL     1       0.779  -3.804   3.937  0.00  0.00    +0.002 A 
ATOM      6  C   UNL     1       2.089  -3.975   4.367  0.00  0.00    +0.001 A 
ATOM      7  C   UNL     1       3.140  -3.481   3.626  0.00  0.00    +0.015 A 
ATOM      8  C   UNL     1       2.883  -2.805   2.435  0.00  0.00    +0.065 A 
ATOM      9  C   UNL     1       3.964  -2.257   1.604  0.00  0.00    +0.266 A 
ATOM     10  O   UNL     1       5.132  -2.375   1.927  0.00  0.00    -0.267 OA
ATOM     11  N   UNL     1       3.611  -1.621   0.462  0.00  0.00    -0.263 N 
ENDROOT
BRANCH  11  12
ATOM     12  C   UNL     1       4.604  -1.085  -0.370  0.00  0.00    +0.051 A 
ATOM     13  C   UNL     1       4.712   0.291  -0.525  0.00  0.00    +0.030 A 
ATOM     14  C   UNL     1       5.689   0.818  -1.345  0.00  0.00    +0.047 A 
ATOM     15  C   UNL     1       6.564  -0.026  -2.014  0.00  0.00    +0.120 A 
ATOM     16  C   UNL     1       6.457  -1.401  -1.859  0.00  0.00    +0.047 A 
ATOM     17  C   UNL     1       5.484  -1.929  -1.035  0.00  0.00    +0.030 A 
BRANCH  15  18
ATOM     18  O   UNL     1       7.526   0.494  -2.821  0.00  0.00    -0.495 OA
ATOM     19  C   UNL     1       8.392  -0.433  -3.478  0.00  0.00    +0.277 C 
ENDBRANCH  15  18
ENDBRANCH  11  12
BRANCH   1  20
ATOM     20  C   UNL     1       1.966  -0.771  -1.162  0.00  0.00    +0.141 C 
ATOM     21  C   UNL     1       0.967   0.349  -0.868  0.00  0.00    +0.036 C 
BRANCH  20  22
ATOM     22  N   UNL     1       1.375  -1.715  -2.114  0.00  0.00    -0.276 N 
ATOM     23  C   UNL     1       1.968  -1.931  -3.305  0.00  0.00    +0.307 C 
ATOM     24  O   UNL     1       2.994  -1.343  -3.588  0.00  0.00    -0.252 OA
ATOM     25  N   UNL     1       1.425  -2.799  -4.181  0.00  0.00    -0.268 N 
ATOM     26  H   UNL     1       0.650  -3.324  -3.926  0.00  0.00    +0.156 HD
BRANCH  25  27
ATOM     27  C   UNL     1       1.977  -2.941  -5.459  0.00  0.00    +0.049 A 
ATOM     28  C   UNL     1       2.713  -1.905  -6.019  0.00  0.00    +0.024 A 
ATOM     29  C   UNL     1       3.258  -2.049  -7.280  0.00  0.00    +0.002 A 
ATOM     30  C   UNL     1       3.071  -3.223  -7.986  0.00  0.00    +0.001 A 
ATOM     31  C   UNL     1       2.339  -4.258  -7.432  0.00  0.00    +0.017 A 
ATOM     32  C   UNL     1       1.796  -4.122  -6.168  0.00  0.00    +0.039 A 
ATOM     33 BR   UNL     1       0.801  -5.539  -5.409  0.00  0.00    -0.048 Br
ENDBRANCH  25  27
BRANCH  22  35
ATOM     34  C   UNL     1      -1.065  -1.599  -2.234  0.00  0.00    +0.024 C 
ATOM     35  C   UNL     1       0.139  -2.423  -1.773  0.00  0.00    +0.107 C 
ENDBRANCH  22  35
ENDBRANCH  20  22
ENDBRANCH   1  20
TORSDOF 6
