REMARK  Name = ZINC58291697
REMARK  6 active torsions:
REMARK  status: ('A' for Active; 'I' for Inactive)
REMARK    1  A    between atoms: C_7  and  C_11
REMARK    2  A    between atoms: C_11  and  C_12
REMARK    3  A    between atoms: C_12  and  C_13
REMARK    4  A    between atoms: C_12  and  N_27
REMARK    5  A    between atoms: N_15  and  C_16
REMARK    6  A    between atoms: C_19  and  C_22
REMARK                            x       y       z     vdW  Elec       q    Type
REMARK                         _______ _______ _______ _____ _____    ______ ____
ROOT
ATOM      1  C   UNL     1       0.237  -3.589  -1.462  0.00  0.00    +0.165 C 
ENDROOT
BRANCH   1   2
ATOM      2  N   UNL     1      -0.553  -2.473  -1.988  0.00  0.00    -0.288 N 
ATOM      3  C   UNL     1      -1.692  -2.103  -1.370  0.00  0.00    +0.298 C 
ATOM      4  O   UNL     1      -2.065  -2.696  -0.376  0.00  0.00    -0.253 OA
ATOM      5  N   UNL     1      -2.418  -1.076  -1.854  0.00  0.00    -0.313 N 
ATOM      6  H   UNL     1      -0.255  -2.000  -2.781  0.00  0.00    +0.151 HD
ATOM      7  H   UNL     1      -2.121  -0.603  -2.647  0.00  0.00    +0.146 HD
ATOM      8  H   UNL     1      -3.238  -0.810  -1.409  0.00  0.00    +0.146 HD
ENDBRANCH   1   2
BRANCH   1   9
ATOM      9  C   UNL     1      -0.602  -4.842  -1.464  0.00  0.00    +0.238 C 
ATOM     10  O   UNL     1      -1.811  -4.762  -1.509  0.00  0.00    -0.273 OA
ATOM     11  N   UNL     1      -0.007  -6.050  -1.416  0.00  0.00    -0.284 N 
ATOM     12  H   UNL     1       0.960  -6.117  -1.448  0.00  0.00    +0.155 HD
BRANCH  11  13
ATOM     13  C   UNL     1      -0.784  -7.208  -1.320  0.00  0.00    +0.033 A 
ATOM     14  C   UNL     1      -2.011  -7.275  -1.970  0.00  0.00    +0.024 A 
ATOM     15  C   UNL     1      -2.780  -8.415  -1.878  0.00  0.00    +0.015 A 
ATOM     16  C   UNL     1      -2.325  -9.503  -1.130  0.00  0.00    +0.039 A 
ATOM     17  C   UNL     1      -1.092  -9.432  -0.479  0.00  0.00    +0.015 A 
ATOM     18  C   UNL     1      -0.326  -8.292  -0.580  0.00  0.00    +0.024 A 
BRANCH  16  19
ATOM     19  C   UNL     1      -3.147 -10.727  -1.029  0.00  0.00    +0.248 A 
ATOM     20  N   UNL     1      -4.316 -10.929  -1.591  0.00  0.00    -0.108 NA
ATOM     21  N   UNL     1      -4.736 -12.106  -1.286  0.00  0.00    -0.116 NA
ATOM     22  C   UNL     1      -3.860 -12.697  -0.523  0.00  0.00    +0.332 A 
ATOM     23  O   UNL     1      -2.834 -11.846  -0.345  0.00  0.00    -0.423 OA
ENDBRANCH  16  19
ENDBRANCH  11  13
ENDBRANCH   1   9
BRANCH   1  24
ATOM     24  C   UNL     1       0.678  -3.273  -0.032  0.00  0.00    +0.069 C 
BRANCH  24  31
ATOM     25  C   UNL     1      -0.003   1.365  -0.005  0.00  0.00    +0.001 A 
ATOM     26  C   UNL     1       1.183   2.086  -0.023  0.00  0.00    +0.002 A 
ATOM     27  C   UNL     1       2.399   1.438  -0.046  0.00  0.00    +0.026 A 
ATOM     28  C   UNL     1       2.441   0.048  -0.051  0.00  0.00    +0.047 A 
ATOM     29  C   UNL     1       1.236  -0.678  -0.033  0.00  0.00    +0.003 A 
ATOM     30  C   UNL     1       0.015  -0.001  -0.010  0.00  0.00    +0.010 A 
ATOM     31  C   UNL     1       1.615  -2.093  -0.044  0.00  0.00    -0.020 A 
ATOM     32  C   UNL     1       2.957  -2.139  -0.068  0.00  0.00    +0.087 A 
ATOM     33  N   UNL     1       3.467  -0.870  -0.072  0.00  0.00    -0.360 N 
ATOM     34  H   UNL     1       4.412  -0.649  -0.088  0.00  0.00    +0.165 HD
ENDBRANCH  24  31
ENDBRANCH   1  24
TORSDOF 6
