REMARK  Name = ZINC11063736
REMARK  7 active torsions:
REMARK  status: ('A' for Active; 'I' for Inactive)
REMARK    1  A    between atoms: C_1  and  C_2
REMARK    2  A    between atoms: C_16  and  C_17
REMARK    3  A    between atoms: C_17  and  O_19
REMARK    4  A    between atoms: O_19  and  C_20
REMARK    5  A    between atoms: C_20  and  C_22
REMARK    6  A    between atoms: C_20  and  C_23
REMARK    7  A    between atoms: N_25  and  C_26
REMARK                            x       y       z     vdW  Elec       q    Type
REMARK                         _______ _______ _______ _____ _____    ______ ____
ROOT
ATOM      1  C   UNL     1       2.776   5.884  -6.407  0.00  0.00    +0.347 C 
ATOM      2  O   UNL     1       2.734   7.066  -6.122  0.00  0.00    -0.244 OA
ENDROOT
BRANCH   1  18
ATOM      3  C   UNL     1       1.770   6.462  -3.599  0.00  0.00    +0.046 C 
ATOM      4  C   UNL     1       1.900   5.067  -4.155  0.00  0.00    -0.015 A 
ATOM      5  C   UNL     1       1.551   3.966  -3.372  0.00  0.00    +0.076 A 
ATOM      6  C   UNL     1       1.712   2.700  -3.982  0.00  0.00    +0.116 A 
ATOM      7  N   UNL     1       1.418   1.574  -3.346  0.00  0.00    -0.226 NA
ATOM      8  C   UNL     1       0.959   1.574  -2.127  0.00  0.00    +0.114 A 
ATOM      9  N   UNL     1       0.760   2.733  -1.436  0.00  0.00    -0.296 N 
ATOM     10  C   UNL     1       1.031   3.930  -1.986  0.00  0.00    +0.263 A 
ATOM     11  O   UNL     1       0.854   4.960  -1.359  0.00  0.00    -0.267 OA
ATOM     12  C   UNL     1       0.239   2.645  -0.066  0.00  0.00    +0.126 C 
ATOM     13  C   UNL     1      -1.244   2.283  -0.115  0.00  0.00    +0.022 C 
ATOM     14  C   UNL     1      -1.442   0.777  -0.106  0.00  0.00    +0.002 C 
ATOM     15  C   UNL     1      -0.890   0.119  -1.359  0.00  0.00    +0.008 C 
ATOM     16  C   UNL     1       0.628   0.271  -1.436  0.00  0.00    +0.074 C 
ATOM     17  S   UNL     1       2.328   3.102  -5.598  0.00  0.00    -0.062 S 
ATOM     18  C   UNL     1       2.360   4.879  -5.427  0.00  0.00    +0.102 A 
ENDBRANCH   1  18
BRANCH   1  19
ATOM     19  O   UNL     1       3.206   5.499  -7.627  0.00  0.00    -0.448 OA
BRANCH  19  20
ATOM     20  C   UNL     1       3.602   6.550  -8.547  0.00  0.00    +0.259 C 
ATOM     21  C   UNL     1       5.093   6.846  -8.371  0.00  0.00    +0.062 C 
BRANCH  20  22
ATOM     22  C   UNL     1       3.343   6.102  -9.963  0.00  0.00    +0.258 C 
ATOM     23  O   UNL     1       2.870   5.005 -10.175  0.00  0.00    -0.271 OA
ATOM     24  N   UNL     1       3.636   6.920 -10.993  0.00  0.00    -0.282 N 
ATOM     25  H   UNL     1       3.941   7.824 -10.822  0.00  0.00    +0.155 HD
BRANCH  24  26
ATOM     26  C   UNL     1       3.499   6.465 -12.308  0.00  0.00    +0.034 A 
ATOM     27  C   UNL     1       3.762   5.122 -12.607  0.00  0.00    +0.024 A 
ATOM     28  C   UNL     1       3.632   4.651 -13.876  0.00  0.00    +0.010 A 
ATOM     29  C   UNL     1       3.240   5.520 -14.909  0.00  0.00    -0.018 A 
ATOM     30  C   UNL     1       3.104   5.062 -16.231  0.00  0.00    +0.008 A 
ATOM     31  C   UNL     1       2.723   5.928 -17.209  0.00  0.00    +0.001 A 
ATOM     32  C   UNL     1       2.464   7.267 -16.921  0.00  0.00    +0.001 A 
ATOM     33  C   UNL     1       2.586   7.747 -15.653  0.00  0.00    +0.008 A 
ATOM     34  C   UNL     1       2.977   6.881 -14.616  0.00  0.00    -0.016 A 
ATOM     35  C   UNL     1       3.113   7.342 -13.297  0.00  0.00    +0.031 A 
ENDBRANCH  24  26
ENDBRANCH  20  22
ENDBRANCH  19  20
ENDBRANCH   1  19
TORSDOF 5
