REMARK  Name = ZINC08826781
REMARK  17 active torsions:
REMARK  status: ('A' for Active; 'I' for Inactive)
REMARK    1  A    between atoms: C_1  and  C_2
REMARK    2  A    between atoms: C_2  and  C_3
REMARK    3  A    between atoms: C_2  and  O_4
REMARK    4  A    between atoms: O_4  and  C_5
REMARK    5  A    between atoms: C_8  and  C_11
REMARK    6  A    between atoms: C_13  and  C_24
REMARK    7  A    between atoms: C_14  and  O_23
REMARK    8  A    between atoms: N_17  and  C_18
REMARK    9  A    between atoms: C_18  and  C_19
REMARK   10  A    between atoms: C_19  and  C_20
REMARK   11  A    between atoms: C_20  and  N_69
REMARK   12  A    between atoms: C_21  and  N_69
REMARK   13  A    between atoms: C_22  and  N_69
REMARK   14  A    between atoms: C_24  and  C_26
REMARK   15  A    between atoms: C_29  and  O_32
REMARK   16  A    between atoms: O_32  and  C_33
REMARK   17  A    between atoms: C_33  and  C_34
REMARK                            x       y       z     vdW  Elec       q    Type
REMARK                         _______ _______ _______ _____ _____    ______ ____
ROOT
ATOM      1  C   UNL     1       5.681   4.500  -0.231  0.00  0.00    +0.144 C 
ATOM      2  C   UNL     1       6.823   4.267   0.731  0.00  0.00    +0.071 C 
ATOM      3  C   UNL     1       7.882   3.867  -0.010  0.00  0.00    +0.188 C 
ATOM      4  C   UNL     1       7.490   3.823  -1.434  0.00  0.00    +0.282 C 
ATOM      5  O   UNL     1       8.222   3.501  -2.349  0.00  0.00    -0.267 OA
ATOM      6  N   UNL     1       6.202   4.194  -1.569  0.00  0.00    -0.284 N 
ENDROOT
BRANCH   1  10
ATOM      7  C   UNL     1       2.419   1.903   0.704  0.00  0.00    +0.121 A 
ATOM      8  C   UNL     1       3.570   1.391   0.123  0.00  0.00    +0.046 A 
ATOM      9  C   UNL     1       4.621   2.234  -0.184  0.00  0.00    +0.009 A 
ATOM     10  C   UNL     1       4.531   3.584   0.098  0.00  0.00    -0.022 A 
ATOM     11  C   UNL     1       3.387   4.096   0.682  0.00  0.00    +0.009 A 
ATOM     12  C   UNL     1       2.331   3.259   0.986  0.00  0.00    +0.046 A 
BRANCH   7  13
ATOM     13  O   UNL     1       1.381   1.077   1.001  0.00  0.00    -0.489 OA
BRANCH  13  15
ATOM     14  C   UNL     1       0.635  -1.116   1.688  0.00  0.00    +0.051 C 
ATOM     15  C   UNL     1       1.584  -0.321   0.789  0.00  0.00    +0.167 C 
ATOM     16  C   UNL     1       1.302  -0.660  -0.676  0.00  0.00    +0.051 C 
ENDBRANCH  13  15
ENDBRANCH   7  13
ENDBRANCH   1  10
BRANCH   3  17
ATOM     17  O   UNL     1       9.106   3.555   0.476  0.00  0.00    -0.502 OA
ATOM     18  H   UNL     1       9.707   3.291  -0.278  0.00  0.00    +0.292 HD
ENDBRANCH   3  17
BRANCH   2  19
ATOM     19  C   UNL     1       6.789   4.441   2.186  0.00  0.00    +0.195 C 
ATOM     20  O   UNL     1       6.910   3.476   2.917  0.00  0.00    -0.287 OA
BRANCH  19  21
ATOM     21  C   UNL     1       6.609   5.787   2.765  0.00  0.00    +0.022 A 
ATOM     22  C   UNL     1       6.549   6.907   1.929  0.00  0.00    +0.015 A 
ATOM     23  C   UNL     1       6.375   8.160   2.473  0.00  0.00    +0.046 A 
ATOM     24  C   UNL     1       6.271   8.314   3.851  0.00  0.00    +0.121 A 
ATOM     25  C   UNL     1       6.337   7.204   4.685  0.00  0.00    +0.046 A 
ATOM     26  C   UNL     1       6.505   5.947   4.150  0.00  0.00    +0.015 A 
BRANCH  24  27
ATOM     27  O   UNL     1       6.106   9.552   4.383  0.00  0.00    -0.488 OA
BRANCH  27  28
ATOM     28  C   UNL     1       6.047  10.648   3.468  0.00  0.00    +0.256 C 
BRANCH  28  29
ATOM     29  C   UNL     1       5.862  11.932   4.235  0.00  0.00    +0.006 C 
ATOM     30  C   UNL     1       6.577  12.986   3.930  0.00  0.00    +0.007 C 
ENDBRANCH  28  29
ENDBRANCH  27  28
ENDBRANCH  24  27
ENDBRANCH  19  21
ENDBRANCH   2  19
BRANCH   6  31
ATOM     31  C   UNL     1       5.454   4.277  -2.825  0.00  0.00    +0.107 C 
BRANCH  31  32
ATOM     32  C   UNL     1       5.605   5.680  -3.417  0.00  0.00    +0.000 C 
BRANCH  32  33
ATOM     33  C   UNL     1       4.824   5.767  -4.730  0.00  0.00    -0.078 C 
BRANCH  33  36
ATOM     34  C   UNL     1       6.358   7.369  -5.701  0.00  0.00    -0.097 C 
ATOM     35  C   UNL     1       4.048   7.311  -6.426  0.00  0.00    -0.097 C 
ATOM     36  N   UNL     1       4.961   7.133  -5.277  0.00  0.00    +0.376 N 
ATOM     37  H   UNL     1       4.715   7.811  -4.547  0.00  0.00    -0.083 HD
ENDBRANCH  33  36
ENDBRANCH  32  33
ENDBRANCH  31  32
ENDBRANCH   6  31
TORSDOF 13
