REMARK  Name = ZINC37269648
REMARK  9 active torsions:
REMARK  status: ('A' for Active; 'I' for Inactive)
REMARK    1  A    between atoms: C_1  and  N_2
REMARK    2  A    between atoms: C_3  and  C_5
REMARK    3  A    between atoms: C_5  and  N_6
REMARK    4  A    between atoms: N_6  and  C_7
REMARK    5  A    between atoms: N_6  and  C_8
REMARK    6  A    between atoms: C_8  and  C_9
REMARK    7  A    between atoms: C_9  and  C_10
REMARK    8  A    between atoms: N_12  and  C_13
REMARK    9  A    between atoms: C_14  and  N_21
REMARK                            x       y       z     vdW  Elec       q    Type
REMARK                         _______ _______ _______ _____ _____    ______ ____
ROOT
ATOM      1  C   UNL     1      -4.711  -6.022  -1.461  0.00  0.00    +0.215 C 
ATOM      2  O   UNL     1      -4.283  -6.455  -2.511  0.00  0.00    -0.276 OA
ATOM      3  N   UNL     1      -5.072  -6.872  -0.479  0.00  0.00    -0.283 N 
ATOM      4  H   UNL     1      -5.345  -6.526   0.385  0.00  0.00    +0.155 HD
ENDROOT
BRANCH   3   5
ATOM      5  C   UNL     1      -5.053  -8.256  -0.707  0.00  0.00    +0.073 A 
ATOM      6  C   UNL     1      -6.174  -8.892  -1.239  0.00  0.00    +0.049 A 
ATOM      7  C   UNL     1      -6.150 -10.260  -1.463  0.00  0.00    +0.044 A 
ATOM      8  C   UNL     1      -5.015 -10.991  -1.159  0.00  0.00    +0.044 A 
ATOM      9  C   UNL     1      -3.902 -10.360  -0.631  0.00  0.00    +0.042 A 
ATOM     10  C   UNL     1      -3.917  -8.994  -0.410  0.00  0.00    +0.065 A 
ATOM     11 CL   UNL     1      -2.517  -8.206   0.246  0.00  0.00    -0.082 Cl
ATOM     12 CL   UNL     1      -4.987 -12.704  -1.439  0.00  0.00    -0.083 Cl
BRANCH   6  13
ATOM     13  N   UNL     1      -7.321  -8.152  -1.546  0.00  0.00    -0.356 N 
ATOM     14  H   UNL     1      -7.337  -7.195  -1.389  0.00  0.00    +0.142 HD
ATOM     15  H   UNL     1      -8.100  -8.595  -1.916  0.00  0.00    +0.142 HD
ENDBRANCH   6  13
ENDBRANCH   3   5
BRANCH   1  16
ATOM     16  C   UNL     1      -4.838  -4.535  -1.255  0.00  0.00    +0.077 C 
BRANCH  16  17
ATOM     17  C   UNL     1      -4.365  -3.803  -2.513  0.00  0.00    -0.069 C 
BRANCH  17  18
ATOM     18  N   UNL     1      -4.489  -2.353  -2.312  0.00  0.00    +0.384 N 
ATOM     19  C   UNL     1      -3.573  -1.926  -1.246  0.00  0.00    -0.096 C 
ATOM     20  H   UNL     1      -5.438  -2.130  -2.050  0.00  0.00    -0.082 HD
BRANCH  18  21
ATOM     21  C   UNL     1      -4.148  -1.655  -3.559  0.00  0.00    +0.018 C 
BRANCH  21  24
ATOM     22  C   UNL     1      -4.387   2.103  -4.248  0.00  0.00    +0.128 C 
ATOM     23  N   UNL     1      -4.149   0.667  -4.412  0.00  0.00    -0.320 N 
ATOM     24  C   UNL     1      -4.393  -0.178  -3.390  0.00  0.00    +0.196 C 
ATOM     25  O   UNL     1      -4.811   0.251  -2.336  0.00  0.00    -0.278 OA
ATOM     26  H   UNL     1      -3.815   0.323  -5.255  0.00  0.00    +0.148 HD
ENDBRANCH  21  24
ENDBRANCH  18  21
ENDBRANCH  17  18
ENDBRANCH  16  17
ENDBRANCH   1  16
TORSDOF 7
