REMARK  Name = ZINC04308130
REMARK  7 active torsions:
REMARK  status: ('A' for Active; 'I' for Inactive)
REMARK    1  A    between atoms: C_1  and  C_2
REMARK    2  A    between atoms: C_2  and  C_3
REMARK    3  A    between atoms: N_11  and  C_15
REMARK    4  A    between atoms: C_15  and  C_16
REMARK    5  A    between atoms: N_18  and  C_19
REMARK    6  A    between atoms: C_22  and  S_25
REMARK    7  A    between atoms: S_25  and  C_26
REMARK                            x       y       z     vdW  Elec       q    Type
REMARK                         _______ _______ _______ _____ _____    ______ ____
ROOT
ATOM      1  C   UNL     1       7.255   7.734  -2.562  0.00  0.00    -0.011 C 
ATOM      2  C   UNL     1       6.977   6.269  -2.220  0.00  0.00    +0.006 C 
ATOM      3  C   UNL     1       6.857   6.115  -0.701  0.00  0.00    +0.035 C 
ATOM      4  C   UNL     1       5.726   6.998  -0.187  0.00  0.00    +0.113 C 
ATOM      5  C   UNL     1       5.979   8.460  -0.539  0.00  0.00    +0.035 C 
ATOM      6  C   UNL     1       6.102   8.605  -2.059  0.00  0.00    +0.006 C 
ATOM      7  C   UNL     1       4.402   6.541  -0.755  0.00  0.00    +0.247 C 
ATOM      8  O   UNL     1       4.079   6.500  -1.923  0.00  0.00    -0.273 OA
ATOM      9  N   UNL     1       3.655   6.188   0.312  0.00  0.00    -0.215 N 
ATOM     10  C   UNL     1       4.321   6.364   1.460  0.00  0.00    +0.310 C 
ATOM     11  O   UNL     1       3.855   6.121   2.556  0.00  0.00    -0.252 OA
ATOM     12  N   UNL     1       5.566   6.838   1.264  0.00  0.00    -0.285 N 
ATOM     13  H   UNL     1       6.226   7.038   1.946  0.00  0.00    +0.151 HD
ENDROOT
BRANCH   1  15
ATOM     14  C   UNL     1       7.785   9.326  -4.413  0.00  0.00    +0.004 C 
ATOM     15  C   UNL     1       7.385   7.888  -4.079  0.00  0.00    -0.000 C 
ENDBRANCH   1  15
BRANCH   9  16
ATOM     16  C   UNL     1       2.284   5.680   0.225  0.00  0.00    +0.214 C 
BRANCH  16  17
ATOM     17  C   UNL     1       2.311   4.178   0.104  0.00  0.00    +0.235 C 
ATOM     18  O   UNL     1       3.372   3.590   0.091  0.00  0.00    -0.274 OA
ATOM     19  N   UNL     1       1.157   3.488   0.009  0.00  0.00    -0.284 N 
ATOM     20  H   UNL     1       0.313   3.962  -0.058  0.00  0.00    +0.155 HD
BRANCH  19  21
ATOM     21  C   UNL     1       1.176   2.087   0.008  0.00  0.00    +0.033 A 
ATOM     22  C   UNL     1       2.135   1.405   0.746  0.00  0.00    +0.024 A 
ATOM     23  C   UNL     1       2.153   0.025   0.745  0.00  0.00    +0.017 A 
ATOM     24  C   UNL     1       1.213  -0.682   0.006  0.00  0.00    +0.013 A 
ATOM     25  C   UNL     1       0.254   0.001  -0.732  0.00  0.00    +0.017 A 
ATOM     26  C   UNL     1       0.236   1.381  -0.731  0.00  0.00    +0.024 A 
BRANCH  24  27
ATOM     27  S   UNL     1       1.237  -2.444   0.004  0.00  0.00    -0.056 S 
BRANCH  27  28
ATOM     28  C   UNL     1      -0.147  -2.901  -1.077  0.00  0.00    +0.404 C 
ATOM     29  F   UNL     1      -1.338  -2.390  -0.550  0.00  0.00    -0.197 F 
ATOM     30  F   UNL     1       0.064  -2.369  -2.354  0.00  0.00    -0.197 F 
ENDBRANCH  27  28
ENDBRANCH  24  27
ENDBRANCH  19  21
ENDBRANCH  16  17
ENDBRANCH   9  16
TORSDOF 6
