REMARK  Name = ZINC40401542
REMARK  11 active torsions:
REMARK  status: ('A' for Active; 'I' for Inactive)
REMARK    1  A    between atoms: C_1  and  C_2
REMARK    2  A    between atoms: C_2  and  C_3
REMARK    3  A    between atoms: C_3  and  C_4
REMARK    4  A    between atoms: C_4  and  N_5
REMARK    5  A    between atoms: N_5  and  C_6
REMARK    6  A    between atoms: N_5  and  S_28
REMARK    7  A    between atoms: C_6  and  C_7
REMARK    8  A    between atoms: C_18  and  C_21
REMARK    9  A    between atoms: C_24  and  C_27
REMARK   10  A    between atoms: S_28  and  C_31
REMARK   11  A    between atoms: C_34  and  C_37
REMARK                            x       y       z     vdW  Elec       q    Type
REMARK                         _______ _______ _______ _____ _____    ______ ____
ROOT
ATOM      1  C   UNL     1       3.230  -4.139  -1.802  0.00  0.00    +0.231 C 
ATOM      2  O   UNL     1       2.391  -4.820  -1.252  0.00  0.00    -0.274 OA
ATOM      3  N   UNL     1       4.533  -4.471  -1.714  0.00  0.00    -0.297 N 
ATOM      4  C   UNL     1       5.561  -3.652  -2.371  0.00  0.00    +0.126 C 
ATOM      5  C   UNL     1       6.593  -3.225  -1.320  0.00  0.00    +0.125 C 
ATOM      6  N   UNL     1       7.012  -4.414  -0.564  0.00  0.00    -0.311 N 
ATOM      7  C   UNL     1       5.984  -5.233   0.094  0.00  0.00    +0.125 C 
ATOM      8  C   UNL     1       4.952  -5.657  -0.952  0.00  0.00    +0.126 C 
ATOM      9  C   UNL     1       8.355  -4.757  -0.472  0.00  0.00    +0.144 A 
ATOM     10  C   UNL     1       9.336  -3.864  -0.907  0.00  0.00    +0.047 A 
ATOM     11  C   UNL     1      10.660  -4.249  -0.796  0.00  0.00    +0.033 A 
ATOM     12  C   UNL     1      10.934  -5.509  -0.253  0.00  0.00    +0.093 A 
ATOM     13  N   UNL     1       9.935  -6.291   0.134  0.00  0.00    -0.147 NA
ATOM     14  N   UNL     1       8.708  -5.930   0.034  0.00  0.00    -0.134 NA
ENDROOT
BRANCH  12  15
ATOM     15  C   UNL     1      12.337  -5.970  -0.113  0.00  0.00    +0.002 A 
ATOM     16  C   UNL     1      13.387  -5.146  -0.514  0.00  0.00    +0.010 A 
ATOM     17  C   UNL     1      14.690  -5.580  -0.381  0.00  0.00    +0.004 A 
ATOM     18  C   UNL     1      14.955  -6.829   0.151  0.00  0.00    -0.050 A 
ATOM     19  C   UNL     1      13.917  -7.650   0.551  0.00  0.00    +0.004 A 
ATOM     20  C   UNL     1      12.610  -7.225   0.428  0.00  0.00    +0.010 A 
ATOM     21  C   UNL     1      16.381  -7.296   0.294  0.00  0.00    +0.044 C 
ENDBRANCH  12  15
BRANCH   1  22
ATOM     22  C   UNL     1       2.815  -2.920  -2.587  0.00  0.00    +0.205 C 
BRANCH  22  23
ATOM     23  N   UNL     1       1.358  -2.776  -2.531  0.00  0.00    -0.168 NA
BRANCH  23  24
ATOM     24  S   UNL     1       0.418  -3.392  -3.748  0.00  0.00    +0.061 S 
ATOM     25  O   UNL     1       1.173  -4.430  -4.358  0.00  0.00    -0.153 OA
ATOM     26  O   UNL     1      -0.871  -3.613  -3.193  0.00  0.00    -0.153 OA
BRANCH  24  27
ATOM     27  C   UNL     1       0.236  -2.124  -4.957  0.00  0.00    +0.106 A 
ATOM     28  C   UNL     1      -0.815  -1.230  -4.869  0.00  0.00    +0.029 A 
ATOM     29  C   UNL     1      -0.959  -0.236  -5.818  0.00  0.00    +0.005 A 
ATOM     30  C   UNL     1      -0.051  -0.134  -6.855  0.00  0.00    -0.050 A 
ATOM     31  C   UNL     1       1.000  -1.027  -6.944  0.00  0.00    +0.005 A 
ATOM     32  C   UNL     1       1.146  -2.019  -5.992  0.00  0.00    +0.029 A 
ATOM     33  C   UNL     1      -0.208   0.950  -7.891  0.00  0.00    +0.044 C 
ENDBRANCH  24  27
ENDBRANCH  23  24
BRANCH  23  34
ATOM     34  C   UNL     1       0.733  -2.088  -1.399  0.00  0.00    +0.110 C 
BRANCH  34  35
ATOM     35  C   UNL     1       0.725  -0.580  -1.661  0.00  0.00    +0.017 C 
BRANCH  35  37
ATOM     36  C   UNL     1       0.063   1.646  -0.740  0.00  0.00    +0.004 C 
ATOM     37  C   UNL     1       0.071   0.139  -0.479  0.00  0.00    -0.002 C 
ENDBRANCH  35  37
ENDBRANCH  34  35
ENDBRANCH  23  34
ENDBRANCH  22  23
ENDBRANCH   1  22
TORSDOF 8
