REMARK  Name = ZINC59719367
REMARK  14 active torsions:
REMARK  status: ('A' for Active; 'I' for Inactive)
REMARK    1  A    between atoms: C_1  and  C_2
REMARK    2  A    between atoms: C_2  and  O_3
REMARK    3  A    between atoms: O_3  and  C_4
REMARK    4  A    between atoms: C_7  and  N_10
REMARK    5  A    between atoms: C_11  and  C_26
REMARK    6  A    between atoms: N_13  and  C_19
REMARK    7  A    between atoms: C_15  and  C_16
REMARK    8  A    between atoms: C_16  and  C_18
REMARK    9  A    between atoms: C_22  and  C_25
REMARK   10  A    between atoms: C_29  and  O_34
REMARK   11  A    between atoms: C_30  and  O_32
REMARK   12  A    between atoms: O_32  and  C_33
REMARK   13  A    between atoms: O_34  and  C_35
REMARK   14  A    between atoms: C_35  and  C_36
REMARK                            x       y       z     vdW  Elec       q    Type
REMARK                         _______ _______ _______ _____ _____    ______ ____
ROOT
ATOM      1  N   UNL     1      -1.941  -6.091  -0.346  0.00  0.00    -0.256 N 
ATOM      2  C   UNL     1      -3.245  -6.768  -0.252  0.00  0.00    +0.221 C 
ATOM      3  N   UNL     1      -2.914  -8.125   0.214  0.00  0.00    -0.197 N 
ATOM      4  N   UNL     1      -1.522  -8.167   0.358  0.00  0.00    -0.158 NA
ATOM      5  C   UNL     1      -0.977  -7.030   0.039  0.00  0.00    +0.188 C 
ENDROOT
BRANCH   3   6
ATOM      6  C   UNL     1      -3.811  -9.164   0.463  0.00  0.00    +0.054 A 
ATOM      7  C   UNL     1      -5.180  -8.932   0.404  0.00  0.00    +0.025 A 
ATOM      8  C   UNL     1      -6.064  -9.963   0.651  0.00  0.00    +0.005 A 
ATOM      9  C   UNL     1      -5.590 -11.225   0.957  0.00  0.00    -0.050 A 
ATOM     10  C   UNL     1      -4.228 -11.460   1.016  0.00  0.00    +0.005 A 
ATOM     11  C   UNL     1      -3.337 -10.436   0.764  0.00  0.00    +0.025 A 
ATOM     12  C   UNL     1      -6.559 -12.348   1.226  0.00  0.00    +0.044 C 
ENDBRANCH   3   6
BRANCH   1  16
ATOM     13  C   UNL     1      -1.252  -2.159  -1.541  0.00  0.00    +0.121 A 
ATOM     14  C   UNL     1      -1.529  -2.440  -0.212  0.00  0.00    +0.047 A 
ATOM     15  C   UNL     1      -1.758  -3.743   0.185  0.00  0.00    +0.027 A 
ATOM     16  C   UNL     1      -1.710  -4.771  -0.747  0.00  0.00    +0.038 A 
ATOM     17  C   UNL     1      -1.432  -4.488  -2.078  0.00  0.00    +0.027 A 
ATOM     18  C   UNL     1      -1.209  -3.184  -2.474  0.00  0.00    +0.047 A 
BRANCH  13  19
ATOM     19  O   UNL     1      -1.027  -0.875  -1.931  0.00  0.00    -0.492 OA
BRANCH  19  21
ATOM     20  C   UNL     1      -0.810   1.500  -1.542  0.00  0.00    +0.048 C 
ATOM     21  C   UNL     1      -1.087   0.131  -0.918  0.00  0.00    +0.225 C 
ENDBRANCH  19  21
ENDBRANCH  13  19
ENDBRANCH   1  16
BRANCH   2  22
ATOM     22  C   UNL     1      -3.912  -6.819  -1.602  0.00  0.00    -0.003 A 
ATOM     23  C   UNL     1      -5.121  -6.177  -1.799  0.00  0.00    +0.011 A 
ATOM     24  C   UNL     1      -5.737  -6.220  -3.036  0.00  0.00    +0.050 A 
ATOM     25  C   UNL     1      -5.142  -6.907  -4.082  0.00  0.00    +0.163 A 
ATOM     26  C   UNL     1      -3.925  -7.553  -3.884  0.00  0.00    +0.162 A 
ATOM     27  C   UNL     1      -3.311  -7.501  -2.643  0.00  0.00    +0.056 A 
BRANCH  26  28
ATOM     28  O   UNL     1      -3.338  -8.228  -4.908  0.00  0.00    -0.491 OA
ATOM     29  C   UNL     1      -2.090  -8.867  -4.632  0.00  0.00    +0.277 C 
ENDBRANCH  26  28
BRANCH  25  30
ATOM     30  O   UNL     1      -5.747  -6.951  -5.299  0.00  0.00    -0.479 OA
BRANCH  30  31
ATOM     31  C   UNL     1      -6.994  -6.266  -5.429  0.00  0.00    +0.324 C 
BRANCH  31  32
ATOM     32  C   UNL     1      -7.510  -6.424  -6.836  0.00  0.00    +0.248 C 
ATOM     33  O   UNL     1      -6.872  -7.060  -7.648  0.00  0.00    -0.272 OA
ATOM     34  N   UNL     1      -8.680  -5.858  -7.192  0.00  0.00    -0.327 N 
ATOM     35  H   UNL     1      -9.190  -5.349  -6.543  0.00  0.00    +0.145 HD
ATOM     36  H   UNL     1      -9.012  -5.959  -8.098  0.00  0.00    +0.145 HD
ENDBRANCH  31  32
ENDBRANCH  30  31
ENDBRANCH  25  30
ENDBRANCH   2  22
BRANCH   5  37
ATOM     37  C   UNL     1       0.414  -6.773   0.079  0.00  0.00    +0.194 C 
ATOM     38  O   UNL     1       0.836  -5.667  -0.191  0.00  0.00    -0.289 OA
ATOM     39  C   UNL     1       1.373  -7.873   0.458  0.00  0.00    +0.095 C 
ENDBRANCH   5  37
TORSDOF 10
