REMARK  Name = ZINC38607045
REMARK  13 active torsions:
REMARK  status: ('A' for Active; 'I' for Inactive)
REMARK    1  A    between atoms: C_1  and  C_2
REMARK    2  A    between atoms: C_2  and  C_3
REMARK    3  A    between atoms: C_2  and  S_4
REMARK    4  A    between atoms: S_4  and  C_7
REMARK    5  A    between atoms: C_10  and  C_13
REMARK    6  A    between atoms: C_13  and  C_14
REMARK    7  A    between atoms: N_16  and  C_17
REMARK    8  A    between atoms: C_17  and  C_18
REMARK    9  A    between atoms: C_18  and  C_20
REMARK   10  A    between atoms: C_18  and  N_25
REMARK   11  A    between atoms: N_28  and  C_31
REMARK   12  A    between atoms: C_34  and  O_37
REMARK   13  A    between atoms: O_37  and  C_38
REMARK                            x       y       z     vdW  Elec       q    Type
REMARK                         _______ _______ _______ _____ _____    ______ ____
ROOT
ATOM      1  C   UNL     1      -3.099   4.468  -8.688  0.00  0.00    +0.017 C 
ENDROOT
BRANCH   1   2
ATOM      2  N   UNL     1      -3.764   3.621  -9.687  0.00  0.00    +0.389 N 
ATOM      3  C   UNL     1      -2.767   2.766 -10.343  0.00  0.00    -0.059 C 
ATOM      4  C   UNL     1      -3.473   1.803 -11.302  0.00  0.00    +0.086 C 
ATOM      5  N   UNL     1      -4.301   2.591 -12.229  0.00  0.00    -0.333 N 
ATOM      6  C   UNL     1      -5.215   3.593 -11.661  0.00  0.00    +0.086 C 
ATOM      7  C   UNL     1      -4.427   4.472 -10.684  0.00  0.00    -0.059 C 
ATOM      8  H   UNL     1      -4.453   3.042  -9.230  0.00  0.00    -0.081 HD
BRANCH   5   9
ATOM      9  C   UNL     1      -4.220   2.393 -13.612  0.00  0.00    +0.030 A 
ATOM     10  C   UNL     1      -3.442   1.361 -14.121  0.00  0.00    +0.027 A 
ATOM     11  C   UNL     1      -3.363   1.167 -15.486  0.00  0.00    +0.047 A 
ATOM     12  C   UNL     1      -4.060   2.001 -16.348  0.00  0.00    +0.120 A 
ATOM     13  C   UNL     1      -4.837   3.031 -15.840  0.00  0.00    +0.047 A 
ATOM     14  C   UNL     1      -4.922   3.224 -14.475  0.00  0.00    +0.027 A 
BRANCH  12  15
ATOM     15  O   UNL     1      -3.982   1.808 -17.692  0.00  0.00    -0.495 OA
ATOM     16  C   UNL     1      -4.726   2.704 -18.520  0.00  0.00    +0.277 C 
ENDBRANCH  12  15
ENDBRANCH   5   9
ENDBRANCH   1   2
BRANCH   1  17
ATOM     17  C   UNL     1      -2.141   5.403  -9.380  0.00  0.00    +0.093 A 
ATOM     18  C   UNL     1      -2.060   6.732  -9.186  0.00  0.00    +0.043 A 
ATOM     19  C   UNL     1      -1.033   7.207 -10.033  0.00  0.00    +0.041 A 
ATOM     20  C   UNL     1      -0.548   6.141 -10.694  0.00  0.00    +0.195 A 
ATOM     21  O   UNL     1      -1.219   5.050 -10.290  0.00  0.00    -0.469 OA
ENDBRANCH   1  17
BRANCH   1  22
ATOM     22  C   UNL     1      -2.330   3.586  -7.702  0.00  0.00    +0.096 C 
BRANCH  22  25
ATOM     23  C   UNL     1      -2.774   1.673  -6.260  0.00  0.00    +0.217 C 
ATOM     24  O   UNL     1      -1.585   1.609  -6.029  0.00  0.00    -0.275 OA
ATOM     25  N   UNL     1      -3.249   2.627  -7.085  0.00  0.00    -0.316 N 
ATOM     26  H   UNL     1      -4.200   2.679  -7.270  0.00  0.00    +0.149 HD
BRANCH  23  27
ATOM     27  C   UNL     1      -3.719   0.686  -5.625  0.00  0.00    +0.130 C 
BRANCH  27  31
ATOM     28  C   UNL     1      -1.515  -2.017  -3.159  0.00  0.00    +0.088 A 
ATOM     29  C   UNL     1      -2.012  -0.843  -2.625  0.00  0.00    +0.027 A 
ATOM     30  C   UNL     1      -2.725   0.032  -3.423  0.00  0.00    +0.006 A 
ATOM     31  C   UNL     1      -2.941  -0.267  -4.755  0.00  0.00    -0.039 A 
ATOM     32  C   UNL     1      -2.443  -1.441  -5.290  0.00  0.00    +0.006 A 
ATOM     33  C   UNL     1      -1.726  -2.313  -4.493  0.00  0.00    +0.027 A 
BRANCH  28  34
ATOM     34  S   UNL     1      -0.606  -3.132  -2.142  0.00  0.00    -0.001 S 
ATOM     35  O   UNL     1      -0.780  -4.403  -2.752  0.00  0.00    -0.169 OA
ATOM     36  O   UNL     1      -1.080  -2.889  -0.825  0.00  0.00    -0.169 OA
BRANCH  34  38
ATOM     37  C   UNL     1       1.253  -1.153  -1.806  0.00  0.00    +0.032 C 
ATOM     38  C   UNL     1       1.121  -2.598  -2.292  0.00  0.00    +0.130 C 
ATOM     39  C   UNL     1       2.012  -3.505  -1.441  0.00  0.00    +0.032 C 
ENDBRANCH  34  38
ENDBRANCH  28  34
ENDBRANCH  27  31
ENDBRANCH  23  27
ENDBRANCH  22  25
ENDBRANCH   1  22
TORSDOF 10
