REMARK  Name = ZINC14023273
REMARK  7 active torsions:
REMARK  status: ('A' for Active; 'I' for Inactive)
REMARK    1  A    between atoms: C_1  and  C_2
REMARK    2  A    between atoms: C_2  and  N_60
REMARK    3  A    between atoms: C_8  and  N_13
REMARK    4  A    between atoms: C_9  and  C_10
REMARK    5  A    between atoms: C_14  and  C_16
REMARK    6  A    between atoms: N_21  and  S_23
REMARK    7  A    between atoms: S_23  and  C_26
REMARK                            x       y       z     vdW  Elec       q    Type
REMARK                         _______ _______ _______ _____ _____    ______ ____
ROOT
ATOM      1  N   UNL     1       3.017  -2.630   3.777  0.00  0.00    -0.279 N 
ATOM      2  C   UNL     1       2.628  -3.919   3.826  0.00  0.00    +0.222 C 
ATOM      3  O   UNL     1       1.742  -4.313   3.098  0.00  0.00    -0.275 OA
ATOM      4  H   UNL     1       3.726  -2.314   4.359  0.00  0.00    +0.155 HD
ENDROOT
BRANCH   1  10
ATOM      5  C   UNL     1       1.349   2.010   0.000  0.00  0.00    -0.074 C 
ATOM      6  C   UNL     1       2.020   1.769   1.355  0.00  0.00    +0.018 C 
ATOM      7  C   UNL     1       1.870   0.293   1.704  0.00  0.00    -0.027 A 
ATOM      8  C   UNL     1       0.949  -0.465   1.065  0.00  0.00    -0.021 A 
ATOM      9  S   UNL     1       1.127  -2.078   1.768  0.00  0.00    -0.079 S 
ATOM     10  C   UNL     1       2.403  -1.753   2.895  0.00  0.00    +0.084 A 
ATOM     11  C   UNL     1       2.662  -0.403   2.700  0.00  0.00    +0.068 A 
ATOM     12  C   UNL     1       0.002  -0.004   0.002  0.00  0.00    -0.035 C 
ATOM     13  N   UNL     1      -0.029   1.478   0.034  0.00  0.00    +0.383 N 
ATOM     14  H   UNL     1      -0.484   1.785   0.902  0.00  0.00    -0.081 HD
BRANCH  11  15
ATOM     15  C   UNL     1       3.697   0.293   3.471  0.00  0.00    +0.244 C 
ATOM     16  O   UNL     1       4.839   0.339   3.055  0.00  0.00    -0.270 OA
ATOM     17  N   UNL     1       3.382   0.881   4.642  0.00  0.00    -0.325 N 
ATOM     18  H   UNL     1       2.472   0.845   4.974  0.00  0.00    +0.145 HD
ATOM     19  H   UNL     1       4.067   1.342   5.153  0.00  0.00    +0.145 HD
ENDBRANCH  11  15
BRANCH  13  21
ATOM     20  C   UNL     1      -2.269   1.608  -0.945  0.00  0.00    -0.017 C 
ATOM     21  C   UNL     1      -0.798   1.993  -1.120  0.00  0.00    -0.082 C 
ENDBRANCH  13  21
ENDBRANCH   1  10
BRANCH   2  22
ATOM     22  C   UNL     1       3.296  -4.871   4.785  0.00  0.00    +0.091 C 
ATOM     23  C   UNL     1       4.791  -4.951   4.468  0.00  0.00    +0.015 C 
ATOM     24  C   UNL     1       5.475  -5.893   5.461  0.00  0.00    +0.018 C 
ATOM     25  C   UNL     1       4.876  -7.296   5.324  0.00  0.00    +0.109 C 
ATOM     26  N   UNL     1       3.418  -7.206   5.484  0.00  0.00    -0.176 NA
ATOM     27  C   UNL     1       2.672  -6.263   4.640  0.00  0.00    +0.122 C 
BRANCH  26  28
ATOM     28  S   UNL     1       2.631  -8.149   6.595  0.00  0.00    +0.061 S 
ATOM     29  O   UNL     1       3.589  -8.496   7.585  0.00  0.00    -0.153 OA
ATOM     30  O   UNL     1       1.418  -7.479   6.910  0.00  0.00    -0.153 OA
BRANCH  28  31
ATOM     31  C   UNL     1       2.182  -9.646   5.782  0.00  0.00    +0.106 A 
ATOM     32  C   UNL     1       0.960  -9.746   5.144  0.00  0.00    +0.031 A 
ATOM     33  C   UNL     1       0.609 -10.918   4.502  0.00  0.00    +0.040 A 
ATOM     34  C   UNL     1       1.477 -11.997   4.507  0.00  0.00    +0.124 A 
ATOM     35  C   UNL     1       2.699 -11.898   5.151  0.00  0.00    +0.040 A 
ATOM     36  C   UNL     1       3.050 -10.723   5.788  0.00  0.00    +0.031 A 
ATOM     37  F   UNL     1       1.133 -13.145   3.883  0.00  0.00    -0.205 F 
ENDBRANCH  28  31
ENDBRANCH  26  28
ENDBRANCH   2  22
TORSDOF 6
