REMARK  Name = ZINC65137084
REMARK  6 active torsions:
REMARK  status: ('A' for Active; 'I' for Inactive)
REMARK    1  A    between atoms: C_3  and  C_25
REMARK    2  A    between atoms: C_5  and  C_7
REMARK    3  A    between atoms: C_9  and  C_13
REMARK    4  A    between atoms: C_13  and  N_14
REMARK    5  A    between atoms: N_14  and  S_15
REMARK    6  A    between atoms: S_15  and  C_18
REMARK                            x       y       z     vdW  Elec       q    Type
REMARK                         _______ _______ _______ _____ _____    ______ ____
ROOT
ATOM      1  C   UNL     1       1.236  -2.169  -0.022  0.00  0.00    +0.134 C 
ATOM      2  N   UNL     1       0.314  -2.908  -0.557  0.00  0.00    -0.341 N 
ATOM      3  C   UNL     1       0.674  -4.319  -0.370  0.00  0.00    +0.258 C 
ATOM      4  O   UNL     1       1.921  -4.304   0.341  0.00  0.00    -0.247 OA
ATOM      5  N   UNL     1       2.234  -2.934   0.530  0.00  0.00    -0.247 N 
ATOM      6  H   UNL     1       3.023  -2.592   0.979  0.00  0.00    +0.196 HD
ATOM      7  H   UNL     1      -0.481  -2.582  -1.006  0.00  0.00    +0.164 HD
ENDROOT
BRANCH   1  12
ATOM      8  C   UNL     1      -0.017   1.377   0.010  0.00  0.00    +0.001 A 
ATOM      9  C   UNL     1       1.166   2.089   0.002  0.00  0.00    +0.010 A 
ATOM     10  C   UNL     1       2.389   1.417  -0.014  0.00  0.00    +0.000 A 
ATOM     11  C   UNL     1       2.414   0.024  -0.021  0.00  0.00    +0.021 A 
ATOM     12  C   UNL     1       1.218  -0.688  -0.013  0.00  0.00    +0.017 A 
ATOM     13  C   UNL     1       0.002  -0.004   0.002  0.00  0.00    +0.011 A 
BRANCH  10  14
ATOM     14  C   UNL     1       3.656   2.181  -0.023  0.00  0.00    +0.066 A 
ATOM     15  C   UNL     1       3.780   3.542  -0.011  0.00  0.00    +0.049 A 
ATOM     16  C   UNL     1       5.142   3.847  -0.026  0.00  0.00    +0.135 A 
ATOM     17  N   UNL     1       5.820   2.728  -0.045  0.00  0.00    -0.182 NA
ATOM     18  N   UNL     1       4.915   1.659  -0.037  0.00  0.00    -0.277 N 
ATOM     19  H   UNL     1       5.143   0.716  -0.044  0.00  0.00    +0.189 HD
ENDBRANCH  10  14
ENDBRANCH   1  12
BRANCH   3  20
ATOM     20  C   UNL     1       0.844  -5.006  -1.726  0.00  0.00    +0.162 C 
BRANCH  20  21
ATOM     21  N   UNL     1       1.905  -4.338  -2.483  0.00  0.00    -0.186 NA
ATOM     22  H   UNL     1       2.222  -3.464  -2.206  0.00  0.00    +0.148 HD
BRANCH  21  23
ATOM     23  S   UNL     1       2.563  -5.074  -3.812  0.00  0.00    +0.059 S 
ATOM     24  O   UNL     1       3.533  -4.176  -4.336  0.00  0.00    -0.153 OA
ATOM     25  O   UNL     1       2.887  -6.402  -3.423  0.00  0.00    -0.153 OA
BRANCH  23  26
ATOM     26  C   UNL     1       1.289  -5.201  -5.023  0.00  0.00    +0.105 A 
ATOM     27  C   UNL     1       0.476  -6.319  -5.054  0.00  0.00    +0.031 A 
ATOM     28  C   UNL     1      -0.524  -6.419  -6.003  0.00  0.00    +0.040 A 
ATOM     29  C   UNL     1      -0.712  -5.400  -6.922  0.00  0.00    +0.124 A 
ATOM     30  C   UNL     1       0.104  -4.282  -6.889  0.00  0.00    +0.040 A 
ATOM     31  C   UNL     1       1.100  -4.181  -5.936  0.00  0.00    +0.031 A 
ATOM     32  F   UNL     1      -1.689  -5.497  -7.849  0.00  0.00    -0.205 F 
ENDBRANCH  23  26
ENDBRANCH  21  23
ENDBRANCH  20  21
ENDBRANCH   3  20
TORSDOF 6
