REMARK  Name = ZINC39742384
REMARK  10 active torsions:
REMARK  status: ('A' for Active; 'I' for Inactive)
REMARK    1  A    between atoms: C_1  and  C_2
REMARK    2  A    between atoms: C_9  and  C_11
REMARK    3  A    between atoms: C_11  and  S_12
REMARK    4  A    between atoms: S_12  and  C_13
REMARK    5  A    between atoms: C_16  and  C_23
REMARK    6  A    between atoms: N_17  and  C_18
REMARK    7  A    between atoms: C_18  and  C_19
REMARK    8  A    between atoms: C_19  and  C_20
REMARK    9  A    between atoms: C_20  and  O_21
REMARK   10  A    between atoms: O_21  and  C_22
REMARK                            x       y       z     vdW  Elec       q    Type
REMARK                         _______ _______ _______ _____ _____    ______ ____
ROOT
ATOM      1  C   UNL     1      -0.353  -8.752  -2.391  0.00  0.00    +0.192 A 
ATOM      2  N   UNL     1      -0.347  -9.380  -1.236  0.00  0.00    -0.122 NA
ATOM      3  N   UNL     1      -0.435 -10.648  -1.421  0.00  0.00    -0.125 NA
ATOM      4  C   UNL     1      -0.503 -10.909  -2.709  0.00  0.00    +0.200 A 
ATOM      5  N   UNL     1      -0.459  -9.700  -3.368  0.00  0.00    -0.300 N 
ENDROOT
BRANCH   4   6
ATOM      6  C   UNL     1      -0.612 -12.239  -3.327  0.00  0.00    +0.173 A 
ATOM      7  C   UNL     1      -0.952 -13.380  -2.673  0.00  0.00    +0.061 A 
ATOM      8  C   UNL     1      -0.933 -14.444  -3.677  0.00  0.00    +0.021 A 
ATOM      9  C   UNL     1      -1.184 -15.818  -3.645  0.00  0.00    +0.011 A 
ATOM     10  C   UNL     1      -1.077 -16.553  -4.792  0.00  0.00    +0.001 A 
ATOM     11  C   UNL     1      -0.720 -15.944  -5.987  0.00  0.00    +0.004 A 
ATOM     12  C   UNL     1      -0.468 -14.589  -6.039  0.00  0.00    +0.047 A 
ATOM     13  C   UNL     1      -0.571 -13.822  -4.886  0.00  0.00    +0.136 A 
ATOM     14  O   UNL     1      -0.396 -12.509  -4.630  0.00  0.00    -0.452 OA
ENDBRANCH   4   6
BRANCH   1  15
ATOM     15  S   UNL     1      -0.253  -7.009  -2.633  0.00  0.00    -0.077 S 
BRANCH  15  16
ATOM     16  C   UNL     1      -0.133  -6.339  -0.951  0.00  0.00    +0.173 C 
BRANCH  16  25
ATOM     17  C   UNL     1      -0.024   1.496  -0.185  0.00  0.00    +0.045 C 
ATOM     18  C   UNL     1      -0.002  -0.007  -0.065  0.00  0.00    -0.032 A 
ATOM     19  C   UNL     1       0.012  -0.610   1.186  0.00  0.00    +0.008 A 
ATOM     20  C   UNL     1       0.032  -1.992   1.251  0.00  0.00    +0.044 A 
ATOM     21  C   UNL     1       0.037  -2.725   0.070  0.00  0.00    +0.125 A 
ATOM     22  N   UNL     1       0.024  -2.113  -1.103  0.00  0.00    -0.240 NA
ATOM     23  C   UNL     1      -0.001  -0.797  -1.197  0.00  0.00    +0.116 A 
ATOM     24  N   UNL     1       0.058  -4.118   0.121  0.00  0.00    -0.270 N 
ATOM     25  C   UNL     1      -0.040  -4.836  -1.015  0.00  0.00    +0.229 C 
ATOM     26  O   UNL     1      -0.053  -4.273  -2.089  0.00  0.00    -0.275 OA
ATOM     27  H   UNL     1       0.142  -4.571   0.975  0.00  0.00    +0.156 HD
ENDBRANCH  16  25
ENDBRANCH  15  16
ENDBRANCH   1  15
BRANCH   5  28
ATOM     28  C   UNL     1      -0.510  -9.478  -4.815  0.00  0.00    +0.128 C 
BRANCH  28  29
ATOM     29  C   UNL     1       0.910  -9.494  -5.384  0.00  0.00    +0.050 C 
BRANCH  29  30
ATOM     30  C   UNL     1       0.856  -9.262  -6.896  0.00  0.00    +0.161 C 
BRANCH  30  31
ATOM     31  O   UNL     1       2.182  -9.277  -7.428  0.00  0.00    -0.383 OA
ATOM     32  C   UNL     1       2.244  -9.068  -8.840  0.00  0.00    +0.193 C 
ENDBRANCH  30  31
ENDBRANCH  29  30
ENDBRANCH  28  29
ENDBRANCH   5  28
TORSDOF 8
