REMARK  Name = ZINC22876815
REMARK  10 active torsions:
REMARK  status: ('A' for Active; 'I' for Inactive)
REMARK    1  A    between atoms: C_1  and  C_2
REMARK    2  A    between atoms: C_4  and  C_7
REMARK    3  A    between atoms: C_7  and  S_8
REMARK    4  A    between atoms: S_8  and  C_9
REMARK    5  A    between atoms: C_12  and  C_15
REMARK    6  A    between atoms: C_15  and  N_17
REMARK    7  A    between atoms: C_20  and  C_23
REMARK    8  A    between atoms: C_23  and  N_24
REMARK    9  A    between atoms: C_26  and  C_33
REMARK   10  A    between atoms: C_29  and  C_32
REMARK                            x       y       z     vdW  Elec       q    Type
REMARK                         _______ _______ _______ _____ _____    ______ ____
ROOT
ATOM      1  N   UNL     1      -7.699  -7.757  -2.229  0.00  0.00    -0.152 NA
ATOM      2  C   UNL     1      -8.723  -8.598  -2.101  0.00  0.00    +0.163 A 
ATOM      3  N   UNL     1      -9.450  -9.200  -3.083  0.00  0.00    -0.341 N 
ATOM      4  C   UNL     1     -10.465 -10.034  -2.728  0.00  0.00    +0.008 A 
ATOM      5  C   UNL     1     -10.685 -10.211  -1.421  0.00  0.00    +0.067 A 
ATOM      6  S   UNL     1      -9.426  -9.182  -0.690  0.00  0.00    -0.061 S 
ATOM      7  H   UNL     1      -9.248  -9.037  -4.017  0.00  0.00    +0.167 HD
ENDROOT
BRANCH   1   8
ATOM      8  C   UNL     1      -7.098  -7.266  -1.141  0.00  0.00    +0.269 C 
ATOM      9  O   UNL     1      -7.487  -7.590  -0.031  0.00  0.00    -0.268 OA
BRANCH   8  13
ATOM     10  C   UNL     1      -3.830  -4.581  -1.547  0.00  0.00    +0.008 A 
ATOM     11  C   UNL     1      -4.274  -4.949  -0.280  0.00  0.00    +0.015 A 
ATOM     12  C   UNL     1      -5.332  -5.818  -0.146  0.00  0.00    +0.014 A 
ATOM     13  C   UNL     1      -5.961  -6.332  -1.282  0.00  0.00    +0.039 A 
ATOM     14  C   UNL     1      -5.514  -5.961  -2.553  0.00  0.00    +0.014 A 
ATOM     15  C   UNL     1      -4.459  -5.087  -2.682  0.00  0.00    +0.015 A 
BRANCH  10  16
ATOM     16  S   UNL     1      -2.474  -3.468  -1.716  0.00  0.00    -0.119 S 
BRANCH  16  17
ATOM     17  C   UNL     1      -1.999  -3.093  -0.006  0.00  0.00    +0.130 C 
BRANCH  17  21
ATOM     18  C   UNL     1      -0.018   1.503   0.010  0.00  0.00    +0.073 C 
ATOM     19  C   UNL     1       0.002  -0.004   0.002  0.00  0.00    +0.076 A 
ATOM     20  N   UNL     1      -1.013  -0.832   0.002  0.00  0.00    -0.248 NA
ATOM     21  C   UNL     1      -0.834  -2.137  -0.006  0.00  0.00    +0.059 A 
ATOM     22  C   UNL     1       0.449  -2.582  -0.014  0.00  0.00    +0.071 A 
ATOM     23  S   UNL     1       1.335  -1.032  -0.017  0.00  0.00    -0.081 S 
ENDBRANCH  17  21
ENDBRANCH  16  17
ENDBRANCH  10  16
ENDBRANCH   8  13
ENDBRANCH   1   8
BRANCH   4  24
ATOM     24  C   UNL     1     -11.306 -10.729  -3.767  0.00  0.00    -0.024 C 
BRANCH  24  25
ATOM     25  N   UNL     1     -12.065  -9.731  -4.531  0.00  0.00    +0.384 N 
ATOM     26  C   UNL     1     -13.014  -9.052  -3.640  0.00  0.00    -0.075 C 
ATOM     27  C   UNL     1     -13.750  -7.955  -4.413  0.00  0.00    -0.031 C 
ATOM     28  C   UNL     1     -14.508  -8.585  -5.585  0.00  0.00    +0.003 C 
ATOM     29  C   UNL     1     -13.519  -9.352  -6.467  0.00  0.00    -0.031 C 
ATOM     30  C   UNL     1     -12.792 -10.397  -5.619  0.00  0.00    -0.075 C 
ATOM     31  C   UNL     1     -14.277 -10.049  -7.598  0.00  0.00    +0.005 C 
ATOM     32  C   UNL     1     -12.738  -6.939  -4.945  0.00  0.00    +0.005 C 
ATOM     33  H   UNL     1     -11.428  -9.052  -4.920  0.00  0.00    -0.081 HD
ENDBRANCH  24  25
ENDBRANCH   4  24
TORSDOF 7
