REMARK  Name = ZINC14551929
REMARK  8 active torsions:
REMARK  status: ('A' for Active; 'I' for Inactive)
REMARK    1  A    between atoms: C_1  and  C_2
REMARK    2  A    between atoms: C_4  and  C_36
REMARK    3  A    between atoms: C_6  and  N_8
REMARK    4  A    between atoms: N_8  and  S_9
REMARK    5  A    between atoms: S_9  and  C_12
REMARK    6  A    between atoms: C_25  and  C_28
REMARK    7  A    between atoms: C_31  and  S_34
REMARK    8  A    between atoms: S_34  and  C_35
REMARK                            x       y       z     vdW  Elec       q    Type
REMARK                         _______ _______ _______ _____ _____    ______ ____
ROOT
ATOM      1  C   UNL     1       3.087  -2.341  -2.527  0.00  0.00    +0.109 A 
ATOM      2  C   UNL     1       1.777  -2.782  -2.479  0.00  0.00    +0.030 A 
ATOM      3  C   UNL     1       0.769  -2.020  -3.033  0.00  0.00    +0.025 A 
ATOM      4  C   UNL     1       1.062  -0.807  -3.644  0.00  0.00    +0.031 A 
ATOM      5  C   UNL     1       2.392  -0.374  -3.700  0.00  0.00    -0.018 A 
ATOM      6  C   UNL     1       3.390  -1.139  -3.137  0.00  0.00    +0.034 A 
ATOM      7  C   UNL     1       2.666   0.902  -4.396  0.00  0.00    +0.049 C 
ATOM      8  C   UNL     1       3.845   1.740  -4.062  0.00  0.00    -0.023 C 
ATOM      9  C   UNL     1       3.533   3.014  -4.269  0.00  0.00    -0.030 C 
ATOM     10  C   UNL     1       2.080   3.127  -4.735  0.00  0.00    +0.033 C 
ATOM     11  C   UNL     1       1.464   1.858  -4.132  0.00  0.00    +0.029 C 
ATOM     12  C   UNL     1       0.287   1.242  -4.868  0.00  0.00    +0.105 C 
ATOM     13  N   UNL     1       0.021  -0.044  -4.186  0.00  0.00    -0.336 N 
ATOM     14  H   UNL     1      -0.892  -0.363  -4.114  0.00  0.00    +0.147 HD
ENDROOT
BRANCH  12  15
ATOM     15  C   UNL     1      -0.917   2.143  -4.771  0.00  0.00    -0.027 A 
ATOM     16  C   UNL     1      -1.692   2.136  -3.625  0.00  0.00    +0.006 A 
ATOM     17  C   UNL     1      -2.793   2.964  -3.530  0.00  0.00    +0.015 A 
ATOM     18  C   UNL     1      -3.129   3.796  -4.592  0.00  0.00    +0.008 A 
ATOM     19  C   UNL     1      -2.350   3.796  -5.743  0.00  0.00    +0.015 A 
ATOM     20  C   UNL     1      -1.247   2.970  -5.829  0.00  0.00    +0.006 A 
BRANCH  18  21
ATOM     21  S   UNL     1      -4.537   4.848  -4.478  0.00  0.00    -0.129 S 
ATOM     22  C   UNL     1      -5.212   4.502  -2.831  0.00  0.00    +0.090 C 
ENDBRANCH  18  21
ENDBRANCH  12  15
BRANCH   1  23
ATOM     23  S   UNL     1       4.370  -3.313  -1.810  0.00  0.00    +0.072 S 
ATOM     24  O   UNL     1       5.382  -2.407  -1.393  0.00  0.00    -0.150 OA
ATOM     25  O   UNL     1       3.741  -4.218  -0.912  0.00  0.00    -0.150 OA
BRANCH  23  26
ATOM     26  N   UNL     1       5.027  -4.230  -3.023  0.00  0.00    -0.216 N 
ATOM     27  H   UNL     1       5.957  -4.111  -3.271  0.00  0.00    +0.174 HD
BRANCH  26  33
ATOM     28  C   UNL     1       2.797  -8.609  -3.059  0.00  0.00    +0.044 C 
ATOM     29  C   UNL     1       3.145  -7.306  -3.730  0.00  0.00    -0.048 A 
ATOM     30  C   UNL     1       2.686  -7.043  -5.008  0.00  0.00    +0.006 A 
ATOM     31  C   UNL     1       3.002  -5.848  -5.628  0.00  0.00    -0.048 A 
ATOM     32  C   UNL     1       3.778  -4.912  -4.972  0.00  0.00    +0.028 A 
ATOM     33  C   UNL     1       4.241  -5.173  -3.689  0.00  0.00    +0.049 A 
ATOM     34  C   UNL     1       3.926  -6.377  -3.071  0.00  0.00    +0.028 A 
ATOM     35  C   UNL     1       2.500  -5.566  -7.021  0.00  0.00    +0.044 C 
ENDBRANCH  26  33
ENDBRANCH  23  26
ENDBRANCH   1  23
TORSDOF 5
