REMARK  Name = ZINC09640786
REMARK  7 active torsions:
REMARK  status: ('A' for Active; 'I' for Inactive)
REMARK    1  A    between atoms: C_1  and  C_2
REMARK    2  A    between atoms: C_7  and  O_8
REMARK    3  A    between atoms: O_8  and  C_9
REMARK    4  A    between atoms: C_9  and  C_10
REMARK    5  A    between atoms: C_10  and  S_11
REMARK    6  A    between atoms: S_11  and  C_12
REMARK    7  A    between atoms: C_14  and  C_23
REMARK                            x       y       z     vdW  Elec       q    Type
REMARK                         _______ _______ _______ _____ _____    ______ ____
ROOT
ATOM      1  C   UNL     1      -3.663   5.882   0.066  0.00  0.00    +0.192 A 
ATOM      2  N   UNL     1      -2.525   5.205   0.052  0.00  0.00    -0.202 NA
ATOM      3  C   UNL     1      -2.525   3.869   0.046  0.00  0.00    +0.166 A 
ATOM      4  N   UNL     1      -3.660   3.183   0.048  0.00  0.00    -0.208 NA
ATOM      5  C   UNL     1      -4.832   3.825   0.067  0.00  0.00    +0.162 A 
ATOM      6  N   UNL     1      -4.848   5.205   0.073  0.00  0.00    -0.210 N 
ATOM      7  N   UNL     1      -6.183   5.619   0.088  0.00  0.00    -0.256 N 
ATOM      8  H   UNL     1      -6.492   6.538   0.096  0.00  0.00    +0.191 HD
ATOM      9  C   UNL     1      -6.969   4.525   0.091  0.00  0.00    +0.267 A 
ATOM     10  O   UNL     1      -8.189   4.523   0.103  0.00  0.00    -0.266 OA
ATOM     11  C   UNL     1      -6.152   3.393   0.077  0.00  0.00    +0.119 A 
ENDROOT
BRANCH   3  12
ATOM     12  C   UNL     1      -1.235   3.143   0.030  0.00  0.00    +0.038 A 
ATOM     13  C   UNL     1      -1.217   1.747   0.017  0.00  0.00    +0.013 A 
ATOM     14  C   UNL     1      -0.013   1.076   0.008  0.00  0.00    +0.001 A 
ATOM     15  C   UNL     1       1.178   1.782   0.000  0.00  0.00    +0.001 A 
ATOM     16  C   UNL     1       1.168   3.165   0.007  0.00  0.00    +0.021 A 
ATOM     17  C   UNL     1      -0.032   3.850   0.022  0.00  0.00    +0.052 A 
ATOM     18 CL   UNL     1      -0.043   5.586   0.030  0.00  0.00    -0.083 Cl
ENDBRANCH   3  12
BRANCH   1  19
ATOM     19  S   UNL     1      -3.647   7.644   0.073  0.00  0.00    -0.083 S 
BRANCH  19  20
ATOM     20  C   UNL     1      -1.861   7.942   0.058  0.00  0.00    +0.118 C 
BRANCH  20  21
ATOM     21  C   UNL     1      -1.596   9.449   0.062  0.00  0.00    +0.240 C 
BRANCH  21  22
ATOM     22  O   UNL     1      -0.186   9.684   0.050  0.00  0.00    -0.491 OA
BRANCH  22  29
ATOM     23  C   UNL     1       2.596  10.172   0.025  0.00  0.00    +0.047 C 
ATOM     24  C   UNL     1       1.577  11.282   0.040  0.00  0.00    -0.009 A 
ATOM     25  C   UNL     1       1.990  12.600   0.042  0.00  0.00    +0.007 A 
ATOM     26  C   UNL     1       1.056  13.619   0.055  0.00  0.00    +0.000 A 
ATOM     27  C   UNL     1      -0.295  13.321   0.066  0.00  0.00    +0.004 A 
ATOM     28  C   UNL     1      -0.713  12.005   0.059  0.00  0.00    +0.046 A 
ATOM     29  C   UNL     1       0.223  10.980   0.051  0.00  0.00    +0.123 A 
ENDBRANCH  22  29
ENDBRANCH  21  22
ENDBRANCH  20  21
ENDBRANCH  19  20
ENDBRANCH   1  19
TORSDOF 6
