REMARK  Name = ZINC41255200
REMARK  8 active torsions:
REMARK  status: ('A' for Active; 'I' for Inactive)
REMARK    1  A    between atoms: C_1  and  C_2
REMARK    2  A    between atoms: C_2  and  C_3
REMARK    3  A    between atoms: C_2  and  C_4
REMARK    4  A    between atoms: C_7  and  C_10
REMARK    5  A    between atoms: N_15  and  C_17
REMARK    6  A    between atoms: C_17  and  C_18
REMARK    7  A    between atoms: C_18  and  C_19
REMARK    8  A    between atoms: N_21  and  C_22
REMARK                            x       y       z     vdW  Elec       q    Type
REMARK                         _______ _______ _______ _____ _____    ______ ____
ROOT
ATOM      1  C   UNL     1       2.788  -1.913   4.667  0.00  0.00    +0.092 A 
ATOM      2  C   UNL     1       2.121  -2.750   5.592  0.00  0.00    +0.035 A 
ATOM      3  C   UNL     1       2.813  -3.183   6.685  0.00  0.00    +0.074 A 
ATOM      4  C   UNL     1       4.156  -2.769   6.825  0.00  0.00    +0.267 A 
ATOM      5  O   UNL     1       4.815  -3.132   7.786  0.00  0.00    -0.266 OA
ATOM      6  N   UNL     1       4.704  -1.970   5.890  0.00  0.00    -0.228 N 
ATOM      7  N   UNL     1       4.040  -1.575   4.864  0.00  0.00    -0.168 NA
ENDROOT
BRANCH   1  11
ATOM      8  C   UNL     1       0.731  -0.503   1.223  0.00  0.00    -0.045 A 
ATOM      9  C   UNL     1       2.051  -0.146   1.431  0.00  0.00    +0.004 A 
ATOM     10  C   UNL     1       2.724  -0.601   2.548  0.00  0.00    +0.010 A 
ATOM     11  C   UNL     1       2.070  -1.421   3.466  0.00  0.00    +0.002 A 
ATOM     12  C   UNL     1       0.740  -1.777   3.251  0.00  0.00    +0.010 A 
ATOM     13  C   UNL     1       0.076  -1.312   2.134  0.00  0.00    +0.004 A 
BRANCH   8  15
ATOM     14  C   UNL     1      -0.019   1.526   0.010  0.00  0.00    +0.012 C 
ATOM     15  C   UNL     1       0.002  -0.004   0.002  0.00  0.00    +0.013 C 
ATOM     16  C   UNL     1       0.718  -0.497  -1.257  0.00  0.00    +0.012 C 
ENDBRANCH   8  15
ENDBRANCH   1  11
BRANCH   6  17
ATOM     17  C   UNL     1       6.098  -1.545   6.044  0.00  0.00    +0.156 C 
BRANCH  17  18
ATOM     18  C   UNL     1       7.018  -2.559   5.361  0.00  0.00    +0.119 C 
BRANCH  18  19
ATOM     19  C   UNL     1       8.452  -2.122   5.519  0.00  0.00    +0.215 C 
ATOM     20  O   UNL     1       8.712  -1.100   6.119  0.00  0.00    -0.276 OA
ATOM     21  N   UNL     1       9.445  -2.866   4.994  0.00  0.00    -0.312 N 
ATOM     22  H   UNL     1       9.237  -3.683   4.514  0.00  0.00    +0.149 HD
BRANCH  21  23
ATOM     23  C   UNL     1      10.839  -2.441   5.147  0.00  0.00    +0.073 C 
ATOM     24  C   UNL     1      11.195  -1.448   4.039  0.00  0.00    +0.022 C 
ATOM     25  C   UNL     1      12.482  -0.709   4.410  0.00  0.00    +0.002 C 
ATOM     26  C   UNL     1      12.424  -0.291   5.881  0.00  0.00    +0.000 C 
ATOM     27  C   UNL     1      13.475  -1.070   6.674  0.00  0.00    +0.000 C 
ATOM     28  C   UNL     1      12.986  -2.503   6.896  0.00  0.00    +0.000 C 
ATOM     29  C   UNL     1      13.140  -3.301   5.599  0.00  0.00    +0.002 C 
ATOM     30  C   UNL     1      11.757  -3.661   5.054  0.00  0.00    +0.022 C 
ENDBRANCH  21  23
ENDBRANCH  18  19
ENDBRANCH  17  18
ENDBRANCH   6  17
TORSDOF 6
