REMARK  Name = ZINC00390119
REMARK  6 active torsions:
REMARK  status: ('A' for Active; 'I' for Inactive)
REMARK    1  A    between atoms: C_1  and  C_2
REMARK    2  A    between atoms: C_10  and  C_14
REMARK    3  A    between atoms: C_14  and  C_15
REMARK    4  A    between atoms: C_14  and  C_16
REMARK    5  A    between atoms: C_14  and  C_17
REMARK    6  A    between atoms: N_20  and  N_21
REMARK                            x       y       z     vdW  Elec       q    Type
REMARK                         _______ _______ _______ _____ _____    ______ ____
ROOT
ATOM      1  C   UNL     1      -1.669  -8.190   1.432  0.00  0.00    +0.088 C 
ATOM      2  C   UNL     1      -1.290  -6.740   1.278  0.00  0.00    +0.128 A 
ATOM      3  N   UNL     1      -2.193  -5.901   0.820  0.00  0.00    -0.225 NA
ATOM      4  C   UNL     1      -1.834  -4.627   0.693  0.00  0.00    +0.116 A 
ATOM      5  C   UNL     1      -0.552  -4.133   1.020  0.00  0.00    +0.077 A 
ATOM      6  C   UNL     1      -0.341  -2.712   0.816  0.00  0.00    -0.023 A 
ATOM      7  C   UNL     1      -1.391  -2.006   0.334  0.00  0.00    -0.004 A 
ATOM      8  S   UNL     1      -2.696  -3.192   0.134  0.00  0.00    -0.073 S 
ATOM      9  C   UNL     1      -1.437  -0.539   0.034  0.00  0.00    +0.046 C 
ATOM     10  C   UNL     1       0.002  -0.004   0.002  0.00  0.00    -0.000 C 
ATOM     11  C   UNL     1       0.742  -0.515   1.242  0.00  0.00    +0.009 C 
ATOM     12  C   UNL     1       0.985  -2.019   1.119  0.00  0.00    +0.037 C 
ATOM     13  C   UNL     1       0.404  -5.083   1.517  0.00  0.00    +0.279 A 
ATOM     14  O   UNL     1       1.537  -4.760   1.828  0.00  0.00    -0.265 OA
ATOM     15  N   UNL     1      -0.035  -6.360   1.618  0.00  0.00    -0.219 N 
ENDROOT
BRANCH  10  16
ATOM     16  C   UNL     1      -0.019   1.526   0.010  0.00  0.00    -0.035 C 
ATOM     17  C   UNL     1       1.417   2.055  -0.000  0.00  0.00    +0.011 C 
ATOM     18  C   UNL     1      -0.759   2.033  -1.229  0.00  0.00    +0.011 C 
ATOM     19  C   UNL     1      -0.735   2.019   1.269  0.00  0.00    +0.011 C 
ENDBRANCH  10  16
BRANCH  15  20
ATOM     20  N   UNL     1       0.829  -7.310   2.085  0.00  0.00    -0.294 N 
ATOM     21  H   UNL     1       1.727  -6.906   2.303  0.00  0.00    +0.163 HD
ATOM     22  H   UNL     1       0.443  -7.787   2.886  0.00  0.00    +0.163 HD
ENDBRANCH  15  20
TORSDOF 2
