REMARK  Name = ZINC09688155
REMARK  5 active torsions:
REMARK  status: ('A' for Active; 'I' for Inactive)
REMARK    1  A    between atoms: C_1  and  C_2
REMARK    2  A    between atoms: C_3  and  C_14
REMARK    3  A    between atoms: C_5  and  C_7
REMARK    4  A    between atoms: C_14  and  S_15
REMARK    5  A    between atoms: S_15  and  C_16
REMARK                            x       y       z     vdW  Elec       q    Type
REMARK                         _______ _______ _______ _____ _____    ______ ____
ROOT
ATOM      1  C   UNL     1      -4.559  -1.344   0.014  0.00  0.00    +0.088 C 
ATOM      2  C   UNL     1      -3.950   0.034   0.020  0.00  0.00    +0.127 A 
ATOM      3  C   UNL     1      -4.618   1.202   0.029  0.00  0.00    +0.093 A 
ATOM      4  N   UNL     1      -3.714   2.193   0.031  0.00  0.00    -0.213 NA
ATOM      5  C   UNL     1      -2.512   1.664   0.022  0.00  0.00    +0.229 A 
ATOM      6  O   UNL     1      -2.634   0.326   0.009  0.00  0.00    -0.440 OA
ENDROOT
BRANCH   5   7
ATOM      7  C   UNL     1      -1.239   2.415   0.021  0.00  0.00    +0.055 A 
ATOM      8  C   UNL     1      -1.249   3.811   0.034  0.00  0.00    +0.014 A 
ATOM      9  C   UNL     1      -0.057   4.506   0.026  0.00  0.00    +0.001 A 
ATOM     10  C   UNL     1       1.146   3.823   0.011  0.00  0.00    +0.001 A 
ATOM     11  C   UNL     1       1.164   2.440   0.004  0.00  0.00    +0.021 A 
ATOM     12  C   UNL     1      -0.021   1.732   0.012  0.00  0.00    +0.053 A 
ATOM     13 CL   UNL     1       0.002  -0.004   0.002  0.00  0.00    -0.083 Cl
ENDBRANCH   5   7
BRANCH   3  14
ATOM     14  C   UNL     1      -6.116   1.367   0.038  0.00  0.00    +0.137 C 
BRANCH  14  15
ATOM     15  S   UNL     1      -6.724   1.442  -1.666  0.00  0.00    -0.061 S 
BRANCH  15  16
ATOM     16  C   UNL     1      -8.450   1.632  -1.366  0.00  0.00    +0.260 A 
ATOM     17  N   UNL     1      -9.005   1.687  -0.180  0.00  0.00    -0.184 NA
ATOM     18  C   UNL     1     -10.347   1.837  -0.331  0.00  0.00    +0.199 A 
ATOM     19  C   UNL     1     -10.591   1.871  -1.714  0.00  0.00    +0.175 A 
ATOM     20  O   UNL     1      -9.390   1.746  -2.321  0.00  0.00    -0.429 OA
ATOM     21  C   UNL     1     -11.891   2.017  -2.170  0.00  0.00    +0.051 A 
ATOM     22  C   UNL     1     -12.908   2.125  -1.233  0.00  0.00    +0.023 A 
ATOM     23  C   UNL     1     -12.599   2.084   0.115  0.00  0.00    +0.113 A 
ATOM     24  N   UNL     1     -11.356   1.945   0.528  0.00  0.00    -0.233 NA
ENDBRANCH  15  16
ENDBRANCH  14  15
ENDBRANCH   3  14
TORSDOF 4
