REMARK  Name = ZINC35694814
REMARK  13 active torsions:
REMARK  status: ('A' for Active; 'I' for Inactive)
REMARK    1  A    between atoms: C_1  and  C_2
REMARK    2  A    between atoms: C_5  and  C_8
REMARK    3  A    between atoms: N_10  and  C_30
REMARK    4  A    between atoms: N_13  and  C_14
REMARK    5  A    between atoms: C_14  and  C_16
REMARK    6  A    between atoms: C_16  and  N_17
REMARK    7  A    between atoms: N_17  and  C_18
REMARK    8  A    between atoms: C_18  and  C_19
REMARK    9  A    between atoms: C_19  and  N_20
REMARK   10  A    between atoms: N_20  and  C_21
REMARK   11  A    between atoms: N_20  and  C_22
REMARK   12  A    between atoms: C_23  and  C_25
REMARK   13  A    between atoms: C_33  and  C_36
REMARK                            x       y       z     vdW  Elec       q    Type
REMARK                         _______ _______ _______ _____ _____    ______ ____
ROOT
ATOM      1  C   UNL     1      -0.751  -4.450   0.034  0.00  0.00    +0.066 A 
ATOM      2  C   UNL     1      -0.667  -5.263   1.102  0.00  0.00    +0.120 A 
ATOM      3  N   UNL     1      -0.432  -6.544   0.646  0.00  0.00    -0.287 N 
ATOM      4  C   UNL     1      -0.373  -6.507  -0.712  0.00  0.00    +0.205 A 
ATOM      5  N   UNL     1      -0.573  -5.223  -1.107  0.00  0.00    -0.326 N 
ATOM      6  N   UNL     1      -0.160  -7.549  -1.516  0.00  0.00    -0.145 NA
ATOM      7  H   UNL     1      -0.587  -4.903  -2.022  0.00  0.00    +0.169 HD
ENDROOT
BRANCH   1  12
ATOM      8  C   UNL     1      -1.702   1.225   0.165  0.00  0.00    +0.044 C 
ATOM      9  C   UNL     1      -1.452  -0.261   0.130  0.00  0.00    -0.050 A 
ATOM     10  C   UNL     1      -1.292  -0.904  -1.084  0.00  0.00    +0.004 A 
ATOM     11  C   UNL     1      -1.063  -2.264  -1.122  0.00  0.00    +0.010 A 
ATOM     12  C   UNL     1      -0.995  -2.991   0.068  0.00  0.00    -0.000 A 
ATOM     13  C   UNL     1      -1.157  -2.336   1.289  0.00  0.00    +0.010 A 
ATOM     14  C   UNL     1      -1.380  -0.974   1.313  0.00  0.00    +0.004 A 
ENDBRANCH   1  12
BRANCH   3  15
ATOM     15  C   UNL     1      -0.281  -7.685   1.444  0.00  0.00    +0.049 A 
ATOM     16  C   UNL     1      -0.041  -8.920   0.855  0.00  0.00    +0.026 A 
ATOM     17  C   UNL     1       0.108 -10.043   1.645  0.00  0.00    +0.005 A 
ATOM     18  C   UNL     1       0.018  -9.939   3.021  0.00  0.00    -0.050 A 
ATOM     19  C   UNL     1      -0.221  -8.711   3.611  0.00  0.00    +0.005 A 
ATOM     20  C   UNL     1      -0.366  -7.583   2.827  0.00  0.00    +0.026 A 
ATOM     21  C   UNL     1       0.181 -11.167   3.880  0.00  0.00    +0.044 C 
ENDBRANCH   3  15
BRANCH   6  22
ATOM     22  C   UNL     1      -0.125  -7.377  -2.832  0.00  0.00    +0.256 C 
ATOM     23  O   UNL     1      -0.286  -6.268  -3.304  0.00  0.00    -0.272 OA
BRANCH  22  24
ATOM     24  C   UNL     1       0.115  -8.555  -3.740  0.00  0.00    +0.205 C 
BRANCH  24  25
ATOM     25  N   UNL     1       0.108  -8.106  -5.135  0.00  0.00    -0.290 N 
ATOM     26  C   UNL     1      -1.057  -8.008  -5.805  0.00  0.00    +0.254 C 
ATOM     27  O   UNL     1      -1.055  -7.731  -6.990  0.00  0.00    -0.269 OA
BRANCH  26  28
ATOM     28  C   UNL     1      -2.326  -8.233  -5.107  0.00  0.00    +0.074 A 
ATOM     29  C   UNL     1      -3.610  -8.295  -5.626  0.00  0.00    +0.021 A 
ATOM     30  C   UNL     1      -4.612  -8.522  -4.713  0.00  0.00    +0.008 A 
ATOM     31  C   UNL     1      -4.292  -8.666  -3.404  0.00  0.00    +0.046 A 
ATOM     32  S   UNL     1      -2.619  -8.507  -3.370  0.00  0.00    -0.092 S 
ENDBRANCH  26  28
BRANCH  25  33
ATOM     33  C   UNL     1       1.367  -7.764  -5.800  0.00  0.00    +0.090 C 
BRANCH  33  34
ATOM     34  C   UNL     1       1.944  -9.012  -6.473  0.00  0.00    -0.060 C 
BRANCH  34  35
ATOM     35  N   UNL     1       3.207  -8.669  -7.140  0.00  0.00    +0.377 N 
ATOM     36  C   UNL     1       3.820  -9.889  -7.683  0.00  0.00    -0.097 C 
ATOM     37  C   UNL     1       2.942  -7.726  -8.234  0.00  0.00    -0.097 C 
ATOM     38  H   UNL     1       3.835  -8.245  -6.474  0.00  0.00    -0.083 HD
ENDBRANCH  34  35
ENDBRANCH  33  34
ENDBRANCH  25  33
ENDBRANCH  24  25
ENDBRANCH  22  24
ENDBRANCH   6  22
TORSDOF 9
