REMARK  Name = ZINC43465490
REMARK  9 active torsions:
REMARK  status: ('A' for Active; 'I' for Inactive)
REMARK    1  A    between atoms: C_3  and  O_35
REMARK    2  A    between atoms: C_6  and  C_7
REMARK    3  A    between atoms: C_16  and  O_34
REMARK    4  A    between atoms: C_17  and  C_18
REMARK    5  A    between atoms: C_20  and  O_33
REMARK    6  A    between atoms: C_22  and  O_32
REMARK    7  A    between atoms: C_24  and  O_31
REMARK    8  A    between atoms: C_26  and  C_29
REMARK    9  A    between atoms: C_29  and  O_30
REMARK                            x       y       z     vdW  Elec       q    Type
REMARK                         _______ _______ _______ _____ _____    ______ ____
ROOT
ATOM      1  C   UNL     1      -1.271  -0.765   0.011  0.00  0.00    +0.064 A 
ATOM      2  C   UNL     1      -2.131  -0.698  -1.040  0.00  0.00    +0.208 A 
ATOM      3  O   UNL     1      -3.279  -1.379  -1.077  0.00  0.00    -0.462 OA
ATOM      4  C   UNL     1      -3.813  -1.931   0.029  0.00  0.00    +0.148 A 
ATOM      5  C   UNL     1      -3.037  -2.087   1.192  0.00  0.00    +0.065 A 
ATOM      6  C   UNL     1      -1.637  -1.619   1.157  0.00  0.00    +0.200 A 
ATOM      7  O   UNL     1      -0.832  -1.916   2.023  0.00  0.00    -0.286 OA
ATOM      8  C   UNL     1      -3.582  -2.668   2.335  0.00  0.00    +0.019 A 
ATOM      9  C   UNL     1      -4.884  -3.082   2.328  0.00  0.00    +0.047 A 
ATOM     10  C   UNL     1      -5.665  -2.927   1.185  0.00  0.00    +0.126 A 
ATOM     11  C   UNL     1      -5.135  -2.355   0.041  0.00  0.00    +0.068 A 
ENDROOT
BRANCH   1  17
ATOM     12  C   UNL     1      -0.017   1.390   0.010  0.00  0.00    +0.012 A 
ATOM     13  C   UNL     1       1.169   2.094   0.002  0.00  0.00    +0.046 A 
ATOM     14  C   UNL     1       2.380   1.416  -0.013  0.00  0.00    +0.117 A 
ATOM     15  C   UNL     1       2.403   0.029  -0.021  0.00  0.00    +0.046 A 
ATOM     16  C   UNL     1       1.220  -0.682  -0.014  0.00  0.00    +0.012 A 
ATOM     17  C   UNL     1       0.002  -0.004   0.002  0.00  0.00    -0.011 A 
BRANCH  14  18
ATOM     18  O   UNL     1       3.547   2.113  -0.021  0.00  0.00    -0.507 OA
ATOM     19  H   UNL     1       3.893   2.310   0.861  0.00  0.00    +0.292 HD
ENDBRANCH  14  18
ENDBRANCH   1  17
BRANCH  11  20
ATOM     20  C   UNL     1      -5.991  -2.194  -1.189  0.00  0.00    +0.187 C 
ATOM     21  C   UNL     1      -6.970  -1.035  -0.981  0.00  0.00    +0.179 C 
ATOM     22  C   UNL     1      -7.877  -0.916  -2.210  0.00  0.00    +0.177 C 
ATOM     23  C   UNL     1      -8.595  -2.250  -2.433  0.00  0.00    +0.176 C 
ATOM     24  C   UNL     1      -7.553  -3.362  -2.585  0.00  0.00    +0.175 C 
ATOM     25  O   UNL     1      -6.724  -3.398  -1.421  0.00  0.00    -0.361 OA
BRANCH  23  26
ATOM     26  O   UNL     1      -9.389  -2.173  -3.618  0.00  0.00    -0.386 OA
ATOM     27  H   UNL     1     -10.068  -1.485  -3.592  0.00  0.00    +0.210 HD
ENDBRANCH  23  26
BRANCH  22  28
ATOM     28  O   UNL     1      -8.840   0.117  -1.995  0.00  0.00    -0.386 OA
ATOM     29  H   UNL     1      -9.449   0.248  -2.735  0.00  0.00    +0.210 HD
ENDBRANCH  22  28
BRANCH  21  30
ATOM     30  O   UNL     1      -7.767  -1.285   0.179  0.00  0.00    -0.386 OA
ATOM     31  H   UNL     1      -8.411  -0.590   0.371  0.00  0.00    +0.210 HD
ENDBRANCH  21  30
BRANCH  24  32
ATOM     32  C   UNL     1      -8.263  -4.707  -2.748  0.00  0.00    +0.190 C 
BRANCH  32  33
ATOM     33  O   UNL     1      -7.296  -5.728  -3.006  0.00  0.00    -0.392 OA
ATOM     34  H   UNL     1      -7.676  -6.610  -3.120  0.00  0.00    +0.210 HD
ENDBRANCH  32  33
ENDBRANCH  24  32
ENDBRANCH  11  20
BRANCH  10  35
ATOM     35  O   UNL     1      -6.958  -3.341   1.193  0.00  0.00    -0.506 OA
ATOM     36  H   UNL     1      -7.586  -2.662   1.477  0.00  0.00    +0.292 HD
ENDBRANCH  10  35
TORSDOF 9
