REMARK  Name = ZINC16759505
REMARK  8 active torsions:
REMARK  status: ('A' for Active; 'I' for Inactive)
REMARK    1  A    between atoms: C_4  and  C_7
REMARK    2  A    between atoms: C_7  and  N_8
REMARK    3  A    between atoms: C_9  and  C_27
REMARK    4  A    between atoms: C_12  and  S_13
REMARK    5  A    between atoms: S_13  and  C_14
REMARK    6  A    between atoms: C_14  and  C_15
REMARK    7  A    between atoms: C_18  and  C_24
REMARK    8  A    between atoms: C_20  and  N_21
REMARK                            x       y       z     vdW  Elec       q    Type
REMARK                         _______ _______ _______ _____ _____    ______ ____
ROOT
ATOM      1  N   UNL     1      -3.349   0.332   1.481  0.00  0.00    -0.298 N 
ATOM      2  C   UNL     1      -4.017   1.094   2.411  0.00  0.00    +0.168 A 
ATOM      3  N   UNL     1      -3.778   0.563   3.587  0.00  0.00    -0.128 NA
ATOM      4  N   UNL     1      -3.018  -0.465   3.459  0.00  0.00    -0.122 NA
ATOM      5  C   UNL     1      -2.729  -0.657   2.191  0.00  0.00    +0.192 A 
ENDROOT
BRANCH   2   6
ATOM      6  C   UNL     1      -4.846   2.287   2.137  0.00  0.00    +0.054 A 
ATOM      7  C   UNL     1      -5.798   2.259   1.116  0.00  0.00    +0.014 A 
ATOM      8  C   UNL     1      -6.569   3.375   0.866  0.00  0.00    +0.001 A 
ATOM      9  C   UNL     1      -6.402   4.521   1.623  0.00  0.00    +0.003 A 
ATOM     10  C   UNL     1      -5.461   4.557   2.636  0.00  0.00    +0.039 A 
ATOM     11  C   UNL     1      -4.685   3.445   2.902  0.00  0.00    +0.134 A 
ATOM     12  F   UNL     1      -3.770   3.479   3.896  0.00  0.00    -0.205 F 
ENDBRANCH   2   6
BRANCH   1  13
ATOM     13  C   UNL     1      -3.315   0.534   0.030  0.00  0.00    +0.161 C 
BRANCH  13  17
ATOM     14  C   UNL     1       0.026   2.991  -0.993  0.00  0.00    +0.000 A 
ATOM     15  C   UNL     1       0.182   1.621  -0.890  0.00  0.00    +0.000 A 
ATOM     16  C   UNL     1      -0.899   0.826  -0.555  0.00  0.00    +0.005 A 
ATOM     17  C   UNL     1      -2.135   1.401  -0.329  0.00  0.00    -0.028 A 
ATOM     18  C   UNL     1      -2.289   2.771  -0.426  0.00  0.00    +0.005 A 
ATOM     19  C   UNL     1      -1.209   3.566  -0.761  0.00  0.00    +0.000 A 
ENDBRANCH  13  17
ENDBRANCH   1  13
BRANCH   5  20
ATOM     20  S   UNL     1      -1.725  -1.946   1.532  0.00  0.00    -0.081 S 
BRANCH  20  21
ATOM     21  C   UNL     1      -1.290  -2.817   3.057  0.00  0.00    +0.114 C 
BRANCH  21  22
ATOM     22  C   UNL     1      -0.407  -3.994   2.729  0.00  0.00    -0.007 A 
ATOM     23  C   UNL     1       0.967  -3.878   2.846  0.00  0.00    +0.007 A 
ATOM     24  C   UNL     1       1.780  -4.952   2.549  0.00  0.00    +0.013 A 
ATOM     25  C   UNL     1       1.214  -6.157   2.128  0.00  0.00    +0.039 A 
ATOM     26  C   UNL     1      -0.172  -6.267   2.012  0.00  0.00    +0.046 A 
ATOM     27  C   UNL     1      -0.975  -5.187   2.318  0.00  0.00    +0.131 A 
BRANCH  25  28
ATOM     28  C   UNL     1       2.080  -7.312   1.807  0.00  0.00    +0.242 C 
ATOM     29  O   UNL     1       1.584  -8.360   1.441  0.00  0.00    -0.270 OA
ATOM     30  N   UNL     1       3.418  -7.202   1.920  0.00  0.00    -0.325 N 
ATOM     31  H   UNL     1       3.814  -6.366   2.212  0.00  0.00    +0.145 HD
ATOM     32  H   UNL     1       3.986  -7.960   1.709  0.00  0.00    +0.145 HD
ENDBRANCH  25  28
BRANCH  27  33
ATOM     33  N   UNL     1      -2.446  -5.303   2.201  0.00  0.00    +0.057 N 
ATOM     34  O   UNL     1      -2.954  -6.384   1.962  0.00  0.00    -0.126 OA
ATOM     35  O   UNL     1      -3.148  -4.318   2.345  0.00  0.00    -0.126 OA
ENDBRANCH  27  33
ENDBRANCH  21  22
ENDBRANCH  20  21
ENDBRANCH   5  20
TORSDOF 8
