REMARK  Name = ZINC35872557
REMARK  9 active torsions:
REMARK  status: ('A' for Active; 'I' for Inactive)
REMARK    1  A    between atoms: C_4  and  C_7
REMARK    2  A    between atoms: C_7  and  N_8
REMARK    3  A    between atoms: C_10  and  C_20
REMARK    4  A    between atoms: C_15  and  N_17
REMARK    5  A    between atoms: C_20  and  C_22
REMARK    6  A    between atoms: C_20  and  C_32
REMARK    7  A    between atoms: C_22  and  C_23
REMARK    8  A    between atoms: N_25  and  C_26
REMARK    9  A    between atoms: C_26  and  C_27
REMARK                            x       y       z     vdW  Elec       q    Type
REMARK                         _______ _______ _______ _____ _____    ______ ____
ROOT
ATOM      1  N   UNL     1       4.152  -0.952   1.338  0.00  0.00    -0.342 N 
ATOM      2  C   UNL     1       5.008  -0.152   2.043  0.00  0.00    +0.091 A 
ATOM      3  C   UNL     1       5.204  -0.660   3.271  0.00  0.00    -0.014 A 
ATOM      4  C   UNL     1       4.407  -1.886   3.358  0.00  0.00    +0.006 A 
ATOM      5  C   UNL     1       3.761  -2.020   2.115  0.00  0.00    +0.050 A 
ATOM      6  C   UNL     1       2.919  -3.105   1.898  0.00  0.00    +0.028 A 
ATOM      7  C   UNL     1       2.724  -4.031   2.899  0.00  0.00    +0.035 A 
ATOM      8  C   UNL     1       3.361  -3.893   4.125  0.00  0.00    +0.127 A 
ATOM      9  C   UNL     1       4.199  -2.839   4.357  0.00  0.00    +0.043 A 
ENDROOT
BRANCH   8  10
ATOM     10  N   UNL     1       3.138  -4.901   5.186  0.00  0.00    +0.056 N 
ATOM     11  O   UNL     1       2.402  -5.839   4.984  0.00  0.00    -0.126 OA
ATOM     12  O   UNL     1       3.690  -4.785   6.255  0.00  0.00    -0.126 OA
ENDBRANCH   8  10
BRANCH   1  13
ATOM     13  C   UNL     1       3.711  -0.707  -0.038  0.00  0.00    +0.157 C 
BRANCH  13  17
ATOM     14  C   UNL     1      -0.017   1.378   0.010  0.00  0.00    +0.000 A 
ATOM     15  C   UNL     1       1.171   2.086   0.002  0.00  0.00    +0.000 A 
ATOM     16  C   UNL     1       2.377   1.411  -0.013  0.00  0.00    +0.005 A 
ATOM     17  C   UNL     1       2.396   0.029  -0.020  0.00  0.00    -0.028 A 
ATOM     18  C   UNL     1       1.208  -0.679  -0.012  0.00  0.00    +0.005 A 
ATOM     19  C   UNL     1       0.002  -0.004   0.002  0.00  0.00    +0.000 A 
ENDBRANCH  13  17
ENDBRANCH   1  13
BRANCH   3  20
ATOM     20  C   UNL     1       6.077  -0.079   4.353  0.00  0.00    +0.060 C 
BRANCH  20  21
ATOM     21  C   UNL     1       7.499   0.001   3.861  0.00  0.00    -0.039 A 
ATOM     22  C   UNL     1       7.804   0.762   2.748  0.00  0.00    +0.007 A 
ATOM     23  C   UNL     1       9.108   0.837   2.297  0.00  0.00    +0.038 A 
ATOM     24  C   UNL     1      10.110   0.149   2.960  0.00  0.00    +0.123 A 
ATOM     25  C   UNL     1       9.804  -0.613   4.075  0.00  0.00    +0.038 A 
ATOM     26  C   UNL     1       8.500  -0.682   4.527  0.00  0.00    +0.007 A 
ATOM     27  F   UNL     1      11.385   0.221   2.519  0.00  0.00    -0.205 F 
ENDBRANCH  20  21
BRANCH  20  28
ATOM     28  C   UNL     1       5.581   1.323   4.710  0.00  0.00    +0.108 C 
BRANCH  28  29
ATOM     29  C   UNL     1       6.376   1.855   5.875  0.00  0.00    +0.214 C 
ATOM     30  O   UNL     1       7.253   1.179   6.370  0.00  0.00    -0.276 OA
ATOM     31  N   UNL     1       6.113   3.083   6.366  0.00  0.00    -0.308 N 
ATOM     32  H   UNL     1       5.412   3.623   5.970  0.00  0.00    +0.149 HD
BRANCH  31  33
ATOM     33  C   UNL     1       6.885   3.600   7.498  0.00  0.00    +0.178 C 
BRANCH  33  34
ATOM     34  C   UNL     1       6.397   4.981   7.851  0.00  0.00    +0.122 A 
ATOM     35  C   UNL     1       5.421   5.270   8.730  0.00  0.00    +0.046 A 
ATOM     36  C   UNL     1       5.291   6.678   8.750  0.00  0.00    +0.041 A 
ATOM     37  C   UNL     1       6.195   7.165   7.881  0.00  0.00    +0.195 A 
ATOM     38  O   UNL     1       6.866   6.133   7.344  0.00  0.00    -0.466 OA
ENDBRANCH  33  34
ENDBRANCH  31  33
ENDBRANCH  28  29
ENDBRANCH  20  28
ENDBRANCH   3  20
TORSDOF 9
