REMARK  Name = ZINC12447901
REMARK  6 active torsions:
REMARK  status: ('A' for Active; 'I' for Inactive)
REMARK    1  A    between atoms: C_1  and  N_2
REMARK    2  A    between atoms: C_9  and  C_11
REMARK    3  A    between atoms: C_11  and  N_12
REMARK    4  A    between atoms: C_13  and  C_15
REMARK    5  A    between atoms: C_15  and  C_16
REMARK    6  A    between atoms: C_23  and  N_61
REMARK                            x       y       z     vdW  Elec       q    Type
REMARK                         _______ _______ _______ _____ _____    ______ ____
ROOT
ATOM      1  C   UNL     1       3.696   2.384  -0.077  0.00  0.00    +0.028 C 
ATOM      2  C   UNL     1       5.034   1.746   0.167  0.00  0.00    +0.200 C 
ATOM      3  O   UNL     1       5.225   1.182   1.224  0.00  0.00    -0.278 OA
ATOM      4  N   UNL     1       6.023   1.774  -0.732  0.00  0.00    -0.318 N 
ATOM      5  C   UNL     1       5.884   2.394  -2.046  0.00  0.00    +0.085 C 
ATOM      6  C   UNL     1       4.688   3.349  -2.051  0.00  0.00    -0.058 C 
ATOM      7  H   UNL     1       6.871   1.363  -0.501  0.00  0.00    +0.149 HD
ATOM      8  N   UNL     1       3.520   2.619  -1.522  0.00  0.00    +0.391 N 
ATOM      9  H   UNL     1       3.444   1.714  -2.002  0.00  0.00    -0.080 HD
ENDROOT
BRANCH   8  10
ATOM     10  C   UNL     1       2.284   3.397  -1.763  0.00  0.00    -0.059 C 
ATOM     11  C   UNL     1       1.056   2.462  -1.759  0.00  0.00    +0.020 C 
ATOM     12  C   UNL     1       0.126   3.030  -2.815  0.00  0.00    -0.046 A 
ATOM     13  C   UNL     1      -1.224   2.810  -3.032  0.00  0.00    +0.004 A 
ATOM     14  C   UNL     1      -1.874   3.448  -4.070  0.00  0.00    +0.000 A 
ATOM     15  C   UNL     1      -1.176   4.311  -4.894  0.00  0.00    +0.000 A 
ATOM     16  C   UNL     1       0.170   4.533  -4.679  0.00  0.00    +0.004 A 
ATOM     17  C   UNL     1       0.824   3.893  -3.639  0.00  0.00    -0.046 A 
ATOM     18  C   UNL     1       2.271   3.963  -3.199  0.00  0.00    +0.020 C 
ENDBRANCH   8  10
BRANCH   1  19
ATOM     19  C   UNL     1       2.589   1.448   0.414  0.00  0.00    +0.089 C 
BRANCH  19  21
ATOM     20  N   UNL     1       1.649  -0.751  -0.217  0.00  0.00    -0.311 N 
ATOM     21  C   UNL     1       2.602   0.183  -0.406  0.00  0.00    +0.212 C 
ATOM     22  O   UNL     1       3.470   0.006  -1.234  0.00  0.00    -0.276 OA
ATOM     23  H   UNL     1       0.998  -0.644   0.494  0.00  0.00    +0.149 HD
BRANCH  20  24
ATOM     24  C   UNL     1       1.599  -1.932  -1.083  0.00  0.00    +0.139 C 
BRANCH  24  33
ATOM     25  C   UNL     1      -4.135  -4.465   0.488  0.00  0.00    +0.129 C 
ATOM     26  N   UNL     1      -2.844  -5.151   0.347  0.00  0.00    -0.332 N 
ATOM     27  C   UNL     1      -2.392  -5.702   1.643  0.00  0.00    +0.109 C 
ATOM     28  C   UNL     1      -0.852  -5.625   1.524  0.00  0.00    +0.056 C 
ATOM     29  C   UNL     1      -0.647  -4.500   0.530  0.00  0.00    -0.025 A 
ATOM     30  C   UNL     1      -1.857  -4.272  -0.115  0.00  0.00    +0.033 A 
ATOM     31  C   UNL     1      -1.931  -3.269  -1.080  0.00  0.00    +0.024 A 
ATOM     32  C   UNL     1      -0.816  -2.517  -1.387  0.00  0.00    +0.007 A 
ATOM     33  C   UNL     1       0.383  -2.754  -0.742  0.00  0.00    -0.030 A 
ATOM     34  C   UNL     1       0.467  -3.752   0.213  0.00  0.00    +0.010 A 
ENDBRANCH  24  33
ENDBRANCH  20  24
ENDBRANCH  19  21
ENDBRANCH   1  19
TORSDOF 5
