REMARK  Name = ZINC36718273
REMARK  16 active torsions:
REMARK  status: ('A' for Active; 'I' for Inactive)
REMARK    1  A    between atoms: C_1  and  C_2
REMARK    2  A    between atoms: C_5  and  S_8
REMARK    3  A    between atoms: S_8  and  C_11
REMARK    4  A    between atoms: C_11  and  C_12
REMARK    5  A    between atoms: C_12  and  C_13
REMARK    6  A    between atoms: C_13  and  C_14
REMARK    7  A    between atoms: N_16  and  C_17
REMARK    8  A    between atoms: C_17  and  C_18
REMARK    9  A    between atoms: C_18  and  C_19
REMARK   10  A    between atoms: C_19  and  N_20
REMARK   11  A    between atoms: N_20  and  C_21
REMARK   12  A    between atoms: N_20  and  C_22
REMARK   13  A    between atoms: C_26  and  O_34
REMARK   14  A    between atoms: C_29  and  O_32
REMARK   15  A    between atoms: O_32  and  C_33
REMARK   16  A    between atoms: O_34  and  C_35
REMARK                            x       y       z     vdW  Elec       q    Type
REMARK                         _______ _______ _______ _____ _____    ______ ____
ROOT
ATOM      1  C   UNL     1       3.587  -8.372  -0.063  0.00  0.00    +0.221 C 
ATOM      2  O   UNL     1       2.597  -9.073  -0.062  0.00  0.00    -0.275 OA
ATOM      3  N   UNL     1       4.811  -8.934  -0.073  0.00  0.00    -0.250 N 
ATOM      4  C   UNL     1       4.940 -10.315  -0.081  0.00  0.00    +0.168 A 
ATOM      5  N   UNL     1       6.034 -11.040  -0.086  0.00  0.00    -0.221 NA
ATOM      6  C   UNL     1       6.009 -12.391  -0.093  0.00  0.00    +0.125 A 
ATOM      7  C   UNL     1       7.110 -13.286  -0.099  0.00  0.00    +0.147 A 
ATOM      8  C   UNL     1       6.910 -14.645  -0.107  0.00  0.00    +0.051 A 
ATOM      9  C   UNL     1       5.633 -15.190  -0.110  0.00  0.00    +0.050 A 
ATOM     10  C   UNL     1       4.535 -14.344  -0.104  0.00  0.00    +0.136 A 
ATOM     11  C   UNL     1       4.727 -12.980  -0.096  0.00  0.00    +0.086 A 
ATOM     12  S   UNL     1       3.658 -11.560  -0.081  0.00  0.00    -0.048 S 
ENDROOT
BRANCH  10  13
ATOM     13  O   UNL     1       3.275 -14.857  -0.107  0.00  0.00    -0.494 OA
ATOM     14  C   UNL     1       3.155 -16.281  -0.116  0.00  0.00    +0.277 C 
ENDBRANCH  10  13
BRANCH   7  15
ATOM     15  O   UNL     1       8.378 -12.793  -0.097  0.00  0.00    -0.493 OA
ATOM     16  C   UNL     1       9.444 -13.745  -0.103  0.00  0.00    +0.277 C 
ENDBRANCH   7  15
BRANCH   1  17
ATOM     17  C   UNL     1       3.447  -6.871  -0.054  0.00  0.00    +0.098 C 
BRANCH  17  18
ATOM     18  C   UNL     1       1.964  -6.497  -0.044  0.00  0.00    +0.032 C 
BRANCH  18  19
ATOM     19  C   UNL     1       1.822  -4.974  -0.035  0.00  0.00    +0.172 C 
BRANCH  19  20
ATOM     20  S   UNL     1       0.063  -4.530  -0.023  0.00  0.00    -0.003 S 
ATOM     21  O   UNL     1      -0.528  -4.907   1.213  0.00  0.00    -0.169 OA
ATOM     22  O   UNL     1      -0.542  -4.894  -1.256  0.00  0.00    -0.169 OA
BRANCH  20  27
ATOM     23  C   UNL     1      -0.018   1.503   0.010  0.00  0.00    +0.044 C 
ATOM     24  C   UNL     1       0.002  -0.004   0.002  0.00  0.00    -0.050 A 
ATOM     25  C   UNL     1       0.006  -0.689  -1.199  0.00  0.00    +0.005 A 
ATOM     26  C   UNL     1       0.025  -2.071  -1.206  0.00  0.00    +0.027 A 
ATOM     27  C   UNL     1       0.040  -2.768  -0.013  0.00  0.00    +0.088 A 
ATOM     28  C   UNL     1       0.037  -2.084   1.188  0.00  0.00    +0.027 A 
ATOM     29  C   UNL     1       0.023  -0.702   1.195  0.00  0.00    +0.005 A 
ENDBRANCH  20  27
ENDBRANCH  19  20
ENDBRANCH  18  19
ENDBRANCH  17  18
ENDBRANCH   1  17
BRANCH   3  30
ATOM     30  C   UNL     1       6.007  -8.087  -0.075  0.00  0.00    +0.114 C 
BRANCH  30  31
ATOM     31  C   UNL     1       6.431  -7.800   1.367  0.00  0.00    +0.001 C 
BRANCH  31  32
ATOM     32  C   UNL     1       7.679  -6.916   1.364  0.00  0.00    -0.078 C 
BRANCH  32  33
ATOM     33  N   UNL     1       8.086  -6.640   2.749  0.00  0.00    +0.376 N 
ATOM     34  C   UNL     1       8.499  -7.893   3.396  0.00  0.00    -0.097 C 
ATOM     35  C   UNL     1       9.211  -5.695   2.749  0.00  0.00    -0.097 C 
ATOM     36  H   UNL     1       7.310  -6.240   3.254  0.00  0.00    -0.083 HD
ENDBRANCH  32  33
ENDBRANCH  31  32
ENDBRANCH  30  31
ENDBRANCH   3  30
TORSDOF 11
