REMARK  Name = ZINC19632175
REMARK  10 active torsions:
REMARK  status: ('A' for Active; 'I' for Inactive)
REMARK    1  A    between atoms: C_1  and  C_2
REMARK    2  A    between atoms: C_3  and  C_24
REMARK    3  A    between atoms: C_4  and  C_21
REMARK    4  A    between atoms: C_5  and  N_7
REMARK    5  A    between atoms: C_8  and  C_10
REMARK    6  A    between atoms: C_16  and  C_18
REMARK    7  A    between atoms: C_27  and  C_30
REMARK    8  A    between atoms: C_30  and  C_31
REMARK    9  A    between atoms: C_30  and  C_32
REMARK   10  A    between atoms: C_30  and  C_33
REMARK                            x       y       z     vdW  Elec       q    Type
REMARK                         _______ _______ _______ _____ _____    ______ ____
ROOT
ATOM      1  C   UNL     1       1.831  -4.024   5.629  0.00  0.00    +0.052 C 
ATOM      2  C   UNL     1       2.461  -3.373   4.424  0.00  0.00    -0.003 A 
ATOM      3  C   UNL     1       3.607  -3.717   3.784  0.00  0.00    +0.006 A 
ATOM      4  C   UNL     1       3.978  -2.914   2.635  0.00  0.00    +0.073 A 
ATOM      5  C   UNL     1       3.133  -1.864   2.307  0.00  0.00    +0.085 A 
ATOM      6  S   UNL     1       1.879  -1.969   3.497  0.00  0.00    -0.077 S 
ENDROOT
BRANCH   3   7
ATOM      7  C   UNL     1       4.436  -4.862   4.233  0.00  0.00    -0.016 A 
ATOM      8  C   UNL     1       5.725  -4.645   4.717  0.00  0.00    +0.009 A 
ATOM      9  C   UNL     1       6.489  -5.714   5.138  0.00  0.00    +0.005 A 
ATOM     10  C   UNL     1       5.983  -6.999   5.071  0.00  0.00    -0.042 A 
ATOM     11  C   UNL     1       4.706  -7.221   4.586  0.00  0.00    +0.005 A 
ATOM     12  C   UNL     1       3.930  -6.160   4.167  0.00  0.00    +0.009 A 
BRANCH  10  13
ATOM     13  C   UNL     1       6.825  -8.163   5.526  0.00  0.00    -0.013 C 
ATOM     14  C   UNL     1       7.034  -9.130   4.359  0.00  0.00    +0.015 C 
ATOM     15  C   UNL     1       8.183  -7.650   6.012  0.00  0.00    +0.015 C 
ATOM     16  C   UNL     1       6.115  -8.889   6.670  0.00  0.00    +0.015 C 
ENDBRANCH  10  13
ENDBRANCH   3   7
BRANCH   4  17
ATOM     17  C   UNL     1       5.190  -3.194   1.861  0.00  0.00    +0.244 C 
ATOM     18  O   UNL     1       6.245  -2.670   2.170  0.00  0.00    -0.270 OA
ATOM     19  N   UNL     1       5.138  -4.032   0.807  0.00  0.00    -0.325 N 
ATOM     20  H   UNL     1       6.048  -4.242   0.226  0.00  0.00    +0.145 HD
ATOM     21  H   UNL     1       4.185  -4.505   0.528  0.00  0.00    +0.145 HD
ENDBRANCH   4  17
BRANCH   5  22
ATOM     22  N   UNL     1       3.258  -0.952   1.271  0.00  0.00    -0.279 N 
ATOM     23  C   UNL     1       2.326   0.007   1.100  0.00  0.00    +0.222 C 
ATOM     24  O   UNL     1       1.378   0.072   1.854  0.00  0.00    -0.275 OA
ATOM     25  H   UNL     1       4.118  -1.011   0.587  0.00  0.00    +0.155 HD
BRANCH  23  26
ATOM     26  C   UNL     1       2.462   0.998  -0.027  0.00  0.00    +0.093 C 
ATOM     27  C   UNL     1       3.756   1.798   0.145  0.00  0.00    +0.040 C 
ATOM     28  C   UNL     1       3.777   2.958  -0.807  0.00  0.00    -0.030 C 
ATOM     29  C   UNL     1       2.729   3.419  -1.411  0.00  0.00    -0.030 C 
ATOM     30  C   UNL     1       1.346   2.856  -1.249  0.00  0.00    +0.042 C 
ATOM     31  C   UNL     1       1.280   1.975   0.000  0.00  0.00    +0.118 C 
BRANCH  31  32
ATOM     32  C   UNL     1      -0.014   1.204   0.009  0.00  0.00    +0.360 C 
ATOM     33  O   UNL     1       0.002  -0.004   0.002  0.00  0.00    -0.246 OA
ATOM     34  O   UNL     1      -1.186   1.859   0.018  0.00  0.00    -0.246 OA
ENDBRANCH  31  32
ENDBRANCH  23  26
ENDBRANCH   5  22
TORSDOF 6
