REMARK  Name = ZINC11618454
REMARK  8 active torsions:
REMARK  status: ('A' for Active; 'I' for Inactive)
REMARK    1  A    between atoms: C_1  and  C_2
REMARK    2  A    between atoms: C_5  and  N_9
REMARK    3  A    between atoms: C_7  and  C_8
REMARK    4  A    between atoms: C_10  and  S_14
REMARK    5  A    between atoms: S_14  and  C_15
REMARK    6  A    between atoms: C_15  and  C_17
REMARK    7  A    between atoms: C_15  and  C_18
REMARK    8  A    between atoms: N_20  and  C_21
REMARK                            x       y       z     vdW  Elec       q    Type
REMARK                         _______ _______ _______ _____ _____    ______ ____
ROOT
ATOM      1  C   UNL     1      -2.132   7.259  -0.950  0.00  0.00    +0.137 C 
ATOM      2  C   UNL     1      -0.838   7.790  -1.569  0.00  0.00    +0.029 C 
ENDROOT
BRANCH   1   3
ATOM      3  C   UNL     1      -2.112   5.752  -0.958  0.00  0.00    +0.227 C 
ATOM      4  O   UNL     1      -2.637   5.143  -1.866  0.00  0.00    -0.275 OA
ATOM      5  N   UNL     1      -1.510   5.081   0.044  0.00  0.00    -0.309 N 
ATOM      6  H   UNL     1      -1.089   5.567   0.770  0.00  0.00    +0.149 HD
BRANCH   5   7
ATOM      7  C   UNL     1      -1.490   3.616   0.036  0.00  0.00    +0.035 C 
ATOM      8  C   UNL     1      -0.773   3.123  -1.223  0.00  0.00    +0.029 C 
ATOM      9  C   UNL     1      -0.753   1.593  -1.232  0.00  0.00    -0.008 C 
ATOM     10  C   UNL     1      -0.013   1.086   0.008  0.00  0.00    +0.007 C 
ATOM     11  C   UNL     1      -0.729   1.579   1.267  0.00  0.00    -0.008 C 
ATOM     12  C   UNL     1      -0.750   3.109   1.275  0.00  0.00    +0.029 C 
ATOM     13  C   UNL     1      -2.164   1.050   1.278  0.00  0.00    +0.007 C 
ATOM     14  C   UNL     1      -2.904   1.556   0.038  0.00  0.00    -0.008 C 
ATOM     15  C   UNL     1      -2.188   1.063  -1.221  0.00  0.00    +0.007 C 
ATOM     16  C   UNL     1      -2.925   3.086   0.047  0.00  0.00    +0.029 C 
ENDBRANCH   5   7
ENDBRANCH   1   3
BRANCH   1  17
ATOM     17  S   UNL     1      -3.547   7.848  -1.912  0.00  0.00    -0.072 S 
BRANCH  17  19
ATOM     18  N   UNL     1      -4.241  10.545  -2.100  0.00  0.00    -0.187 N 
ATOM     19  C   UNL     1      -3.419   9.580  -1.615  0.00  0.00    +0.215 A 
ATOM     20  N   UNL     1      -2.512  10.182  -0.876  0.00  0.00    -0.101 NA
ATOM     21  N   UNL     1      -2.704  11.452  -0.873  0.00  0.00    -0.022 NA
ATOM     22  N   UNL     1      -3.733  11.752  -1.588  0.00  0.00    -0.038 NA
BRANCH  18  27
ATOM     23  C   UNL     1      -8.754   9.855  -5.472  0.00  0.00    +0.044 C 
ATOM     24  C   UNL     1      -7.556  10.038  -4.577  0.00  0.00    -0.047 A 
ATOM     25  C   UNL     1      -6.452   9.217  -4.724  0.00  0.00    +0.006 A 
ATOM     26  C   UNL     1      -5.353   9.383  -3.905  0.00  0.00    +0.028 A 
ATOM     27  C   UNL     1      -5.356  10.375  -2.933  0.00  0.00    +0.070 A 
ATOM     28  C   UNL     1      -6.467  11.193  -2.784  0.00  0.00    +0.031 A 
ATOM     29  C   UNL     1      -7.561  11.027  -3.610  0.00  0.00    -0.046 A 
ATOM     30  C   UNL     1      -8.766  11.919  -3.453  0.00  0.00    +0.044 C 
ENDBRANCH  18  27
ENDBRANCH  17  19
ENDBRANCH   1  17
TORSDOF 5
