REMARK  Name = ZINC06276589
REMARK  6 active torsions:
REMARK  status: ('A' for Active; 'I' for Inactive)
REMARK    1  A    between atoms: C_3  and  N_11
REMARK    2  A    between atoms: C_6  and  N_7
REMARK    3  A    between atoms: N_7  and  C_8
REMARK    4  A    between atoms: C_8  and  N_10
REMARK    5  A    between atoms: C_12  and  C_13
REMARK    6  A    between atoms: C_18  and  O_19
REMARK                            x       y       z     vdW  Elec       q    Type
REMARK                         _______ _______ _______ _____ _____    ______ ____
ROOT
ATOM      1  C   UNL     1      -1.251   3.036  -0.026  0.00  0.00    +0.025 A 
ATOM      2  C   UNL     1      -2.452   3.712   0.005  0.00  0.00    +0.029 A 
ATOM      3  C   UNL     1      -3.649   3.000   0.117  0.00  0.00    +0.064 A 
ATOM      4  C   UNL     1      -3.624   1.605   0.193  0.00  0.00    +0.029 A 
ATOM      5  C   UNL     1      -2.420   0.937   0.156  0.00  0.00    +0.025 A 
ATOM      6  C   UNL     1      -1.231   1.648   0.044  0.00  0.00    +0.033 A 
ENDROOT
BRANCH   6   7
ATOM      7  N   UNL     1      -0.011   0.966   0.007  0.00  0.00    -0.297 N 
ATOM      8  H   UNL     1       0.141   0.213   0.599  0.00  0.00    +0.154 HD
BRANCH   7   9
ATOM      9  C   UNL     1       0.951   1.351  -0.854  0.00  0.00    +0.132 C 
ATOM     10  S   UNL     1       0.632   2.585  -1.998  0.00  0.00    -0.019 S 
BRANCH   9  11
ATOM     11  N   UNL     1       2.164   0.766  -0.815  0.00  0.00    -0.340 N 
ATOM     12  H   UNL     1       2.345   0.067  -0.167  0.00  0.00    +0.144 HD
ATOM     13  H   UNL     1       2.857   1.043  -1.435  0.00  0.00    +0.144 HD
ENDBRANCH   9  11
ENDBRANCH   7   9
ENDBRANCH   6   7
BRANCH   3  14
ATOM     14  N   UNL     1      -4.843   3.668   0.153  0.00  0.00    -0.255 NA
ATOM     15  C   UNL     1      -4.976   4.726   0.904  0.00  0.00    +0.123 C 
BRANCH  15  16
ATOM     16  C   UNL     1      -6.259   5.443   0.943  0.00  0.00    +0.036 A 
ATOM     17  C   UNL     1      -6.407   6.578   1.746  0.00  0.00    +0.028 A 
ATOM     18  C   UNL     1      -7.612   7.245   1.777  0.00  0.00    +0.019 A 
ATOM     19  C   UNL     1      -8.680   6.796   1.016  0.00  0.00    +0.019 A 
ATOM     20  C   UNL     1      -8.547   5.677   0.217  0.00  0.00    +0.047 A 
ATOM     21  C   UNL     1      -7.341   4.997   0.169  0.00  0.00    +0.125 A 
ATOM     22 BR   UNL     1      -7.811   8.780   2.865  0.00  0.00    -0.050 Br
BRANCH  21  23
ATOM     23  O   UNL     1      -7.208   3.900  -0.620  0.00  0.00    -0.506 OA
ATOM     24  H   UNL     1      -7.436   3.069  -0.180  0.00  0.00    +0.292 HD
ENDBRANCH  21  23
ENDBRANCH  15  16
ENDBRANCH   3  14
TORSDOF 6
