REMARK  Name = ZINC59912708
REMARK  10 active torsions:
REMARK  status: ('A' for Active; 'I' for Inactive)
REMARK    1  A    between atoms: C_1  and  C_2
REMARK    2  A    between atoms: C_2  and  C_24
REMARK    3  A    between atoms: C_4  and  N_10
REMARK    4  A    between atoms: C_6  and  C_8
REMARK    5  A    between atoms: C_6  and  C_9
REMARK    6  A    between atoms: C_11  and  C_13
REMARK    7  A    between atoms: C_13  and  S_14
REMARK    8  A    between atoms: S_14  and  C_15
REMARK    9  A    between atoms: C_18  and  C_21
REMARK   10  A    between atoms: N_19  and  N_20
REMARK                            x       y       z     vdW  Elec       q    Type
REMARK                         _______ _______ _______ _____ _____    ______ ____
ROOT
ATOM      1  N   UNL     1      -3.540  -0.922   1.007  0.00  0.00    -0.312 N 
ATOM      2  C   UNL     1      -4.546  -0.473   1.784  0.00  0.00    +0.224 C 
ATOM      3  O   UNL     1      -4.333   0.384   2.615  0.00  0.00    -0.275 OA
ATOM      4  H   UNL     1      -3.710  -1.608   0.342  0.00  0.00    +0.149 HD
ENDROOT
BRANCH   1   8
ATOM      5  C   UNL     1      -0.019   1.528   0.010  0.00  0.00    -0.010 C 
ATOM      6  C   UNL     1       0.002  -0.004   0.002  0.00  0.00    -0.072 C 
ATOM      7  C   UNL     1      -1.419  -0.538  -0.145  0.00  0.00    +0.009 C 
ATOM      8  C   UNL     1      -2.188  -0.373   1.166  0.00  0.00    +0.070 C 
ATOM      9  C   UNL     1      -1.451  -1.155   2.253  0.00  0.00    +0.009 C 
ATOM     10  C   UNL     1      -0.030  -0.627   2.418  0.00  0.00    -0.072 C 
ATOM     11  N   UNL     1       0.697  -0.529   1.164  0.00  0.00    +0.386 N 
ATOM     12  C   UNL     1       0.730  -1.621   3.326  0.00  0.00    -0.010 C 
ATOM     13  C   UNL     1      -0.059   0.719   3.151  0.00  0.00    -0.010 C 
ATOM     14  C   UNL     1       0.791  -0.440  -1.254  0.00  0.00    -0.010 C 
ATOM     15  H   UNL     1       1.056  -1.460   0.929  0.00  0.00    -0.084 HD
ATOM     16  H   UNL     1       1.534   0.040   1.322  0.00  0.00    -0.084 HD
ENDBRANCH   1   8
BRANCH   2  17
ATOM     17  C   UNL     1      -5.934  -1.037   1.621  0.00  0.00    +0.173 C 
BRANCH  17  18
ATOM     18  S   UNL     1      -7.054  -0.236   2.801  0.00  0.00    -0.075 S 
BRANCH  18  19
ATOM     19  C   UNL     1      -8.614  -0.994   2.488  0.00  0.00    +0.209 A 
ATOM     20  N   UNL     1      -8.865  -1.926   1.599  0.00  0.00    -0.121 NA
ATOM     21  N   UNL     1     -10.109  -2.247   1.642  0.00  0.00    -0.132 NA
ATOM     22  C   UNL     1     -10.721  -1.545   2.553  0.00  0.00    +0.154 A 
ATOM     23  N   UNL     1      -9.790  -0.725   3.129  0.00  0.00    -0.228 N 
BRANCH  23  24
ATOM     24  N   UNL     1      -9.994   0.176   4.134  0.00  0.00    -0.295 N 
ATOM     25  H   UNL     1     -10.244   1.081   3.764  0.00  0.00    +0.163 HD
ATOM     26  H   UNL     1     -10.694  -0.155   4.781  0.00  0.00    +0.163 HD
ENDBRANCH  23  24
BRANCH  22  27
ATOM     27  C   UNL     1     -12.183  -1.625   2.910  0.00  0.00    +0.059 C 
ATOM     28  C   UNL     1     -13.001  -2.757   2.286  0.00  0.00    +0.012 C 
ATOM     29  C   UNL     1     -13.198  -1.317   1.808  0.00  0.00    +0.012 C 
ENDBRANCH  22  27
ENDBRANCH  18  19
ENDBRANCH  17  18
ENDBRANCH   2  17
TORSDOF 6
