REMARK  Name = ZINC34831337
REMARK  15 active torsions:
REMARK  status: ('A' for Active; 'I' for Inactive)
REMARK    1  A    between atoms: C_1  and  C_2
REMARK    2  A    between atoms: C_2  and  C_3
REMARK    3  A    between atoms: C_3  and  C_5
REMARK    4  A    between atoms: C_3  and  C_11
REMARK    5  A    between atoms: N_13  and  C_14
REMARK    6  A    between atoms: N_13  and  C_36
REMARK    7  A    between atoms: C_14  and  C_15
REMARK    8  A    between atoms: C_16  and  C_35
REMARK    9  A    between atoms: N_18  and  C_28
REMARK   10  A    between atoms: C_19  and  N_20
REMARK   11  A    between atoms: N_23  and  C_26
REMARK   12  A    between atoms: C_26  and  C_27
REMARK   13  A    between atoms: C_36  and  C_37
REMARK   14  A    between atoms: C_37  and  C_38
REMARK   15  A    between atoms: C_37  and  C_39
REMARK                            x       y       z     vdW  Elec       q    Type
REMARK                         _______ _______ _______ _____ _____    ______ ____
ROOT
ATOM      1  C   UNL     1      -1.408  -3.873  -0.850  0.00  0.00    +0.032 A 
ATOM      2  C   UNL     1      -2.273  -2.917  -0.310  0.00  0.00    +0.067 A 
ATOM      3  N   UNL     1      -2.968  -2.389  -1.285  0.00  0.00    -0.170 NA
ATOM      4  N   UNL     1      -2.572  -2.989  -2.487  0.00  0.00    -0.218 N 
ATOM      5  C   UNL     1      -1.604  -3.900  -2.197  0.00  0.00    +0.130 A 
ATOM      6  C   UNL     1      -2.387  -2.556   1.149  0.00  0.00    +0.068 C 
ENDROOT
BRANCH   5   7
ATOM      7  N   UNL     1      -0.937  -4.712  -3.110  0.00  0.00    -0.318 N 
ATOM      8  C   UNL     1      -1.430  -6.062  -3.422  0.00  0.00    +0.088 C 
ATOM      9  C   UNL     1      -1.515  -6.209  -4.945  0.00  0.00    -0.060 C 
ATOM     10  N   UNL     1      -0.212  -5.887  -5.540  0.00  0.00    +0.382 N 
ATOM     11  C   UNL     1       0.114  -4.476  -5.297  0.00  0.00    -0.060 C 
ATOM     12  C   UNL     1       0.277  -4.242  -3.795  0.00  0.00    +0.088 C 
ATOM     13  H   UNL     1       0.499  -6.471  -5.127  0.00  0.00    -0.082 HD
BRANCH  10  14
ATOM     14  C   UNL     1      -0.262  -6.133  -6.987  0.00  0.00    -0.082 C 
ATOM     15  C   UNL     1       1.127  -5.918  -7.590  0.00  0.00    -0.017 C 
ENDBRANCH  10  14
ENDBRANCH   5   7
BRANCH   4  16
ATOM     16  C   UNL     1      -3.079  -2.699  -3.761  0.00  0.00    +0.070 A 
ATOM     17  C   UNL     1      -2.225  -2.272  -4.769  0.00  0.00    +0.028 A 
ATOM     18  C   UNL     1      -2.726  -1.988  -6.024  0.00  0.00    +0.005 A 
ATOM     19  C   UNL     1      -4.078  -2.127  -6.279  0.00  0.00    +0.038 A 
ATOM     20  C   UNL     1      -4.933  -2.553  -5.277  0.00  0.00    +0.125 A 
ATOM     21  C   UNL     1      -4.435  -2.844  -4.019  0.00  0.00    +0.066 A 
ATOM     22  F   UNL     1      -6.254  -2.688  -5.528  0.00  0.00    -0.205 F 
ENDBRANCH   4  16
BRANCH   1  23
ATOM     23  C   UNL     1      -0.429  -4.719  -0.079  0.00  0.00    +0.148 C 
BRANCH  23  26
ATOM     24  C   UNL     1       0.925  -3.235   1.300  0.00  0.00    +0.223 C 
ATOM     25  O   UNL     1       0.086  -3.321   2.172  0.00  0.00    -0.275 OA
ATOM     26  N   UNL     1       0.794  -3.950   0.166  0.00  0.00    -0.296 N 
BRANCH  24  27
ATOM     27  C   UNL     1       2.114  -2.328   1.486  0.00  0.00    +0.105 C 
BRANCH  27  28
ATOM     28  C   UNL     1       2.261  -1.986   2.947  0.00  0.00    -0.036 A 
ATOM     29  C   UNL     1       1.236  -1.340   3.612  0.00  0.00    +0.004 A 
ATOM     30  C   UNL     1       1.371  -1.026   4.951  0.00  0.00    +0.000 A 
ATOM     31  C   UNL     1       2.531  -1.358   5.626  0.00  0.00    +0.000 A 
ATOM     32  C   UNL     1       3.556  -2.005   4.960  0.00  0.00    +0.000 A 
ATOM     33  C   UNL     1       3.419  -2.322   3.622  0.00  0.00    +0.004 A 
ENDBRANCH  27  28
BRANCH  27  35
ATOM     34  C   UNL     1       3.191  -0.212   0.708  0.00  0.00    +0.005 C 
ATOM     35  C   UNL     1       1.908  -1.044   0.680  0.00  0.00    +0.014 C 
ENDBRANCH  27  35
ENDBRANCH  24  27
BRANCH  26  36
ATOM     36  C   UNL     1       1.875  -3.960  -0.823  0.00  0.00    +0.111 C 
BRANCH  36  37
ATOM     37  C   UNL     1       2.740  -5.205  -0.621  0.00  0.00    +0.000 C 
ATOM     38  C   UNL     1       3.770  -5.299  -1.749  0.00  0.00    +0.009 C 
ATOM     39  C   UNL     1       3.464  -5.112   0.723  0.00  0.00    +0.009 C 
ENDBRANCH  36  37
ENDBRANCH  26  36
ENDBRANCH  23  26
ENDBRANCH   1  23
TORSDOF 10
