REMARK  Name = ZINC40347905
REMARK  4 active torsions:
REMARK  status: ('A' for Active; 'I' for Inactive)
REMARK    1  A    between atoms: C_1  and  C_2
REMARK    2  A    between atoms: N_11  and  S_12
REMARK    3  A    between atoms: S_12  and  C_15
REMARK    4  A    between atoms: C_20  and  N_21
REMARK                            x       y       z     vdW  Elec       q    Type
REMARK                         _______ _______ _______ _____ _____    ______ ____
ROOT
ATOM      1  S   UNL     1      -0.071  -1.178   2.320  0.00  0.00    +0.063 S 
ATOM      2  O   UNL     1       0.733  -1.101   3.489  0.00  0.00    -0.153 OA
ATOM      3  O   UNL     1      -1.354  -0.572   2.237  0.00  0.00    -0.153 OA
ENDROOT
BRANCH   1  13
ATOM      4  C   UNL     1       0.162   1.393  -0.261  0.00  0.00    +0.031 C 
ATOM      5  C   UNL     1       0.188  -0.134  -0.172  0.00  0.00    +0.107 C 
ATOM      6  C   UNL     1       1.006  -0.705  -1.329  0.00  0.00    -0.019 A 
ATOM      7  C   UNL     1       0.551  -0.734  -2.646  0.00  0.00    +0.013 A 
ATOM      8  C   UNL     1       1.332  -1.252  -3.621  0.00  0.00    +0.046 A 
ATOM      9  S   UNL     1       2.787  -1.739  -2.706  0.00  0.00    -0.101 S 
ATOM     10  C   UNL     1       2.245  -1.220  -1.099  0.00  0.00    -0.004 A 
ATOM     11  C   UNL     1       2.970  -1.323   0.203  0.00  0.00    +0.060 C 
ATOM     12  C   UNL     1       2.288  -0.397   1.221  0.00  0.00    +0.115 C 
ATOM     13  N   UNL     1       0.831  -0.548   1.082  0.00  0.00    -0.169 NA
ENDBRANCH   1  13
BRANCH   1  14
ATOM     14  C   UNL     1      -0.301  -2.891   1.978  0.00  0.00    +0.129 A 
ATOM     15  C   UNL     1      -1.559  -3.373   1.674  0.00  0.00    +0.068 A 
ATOM     16  C   UNL     1      -1.740  -4.719   1.405  0.00  0.00    +0.125 A 
ATOM     17  C   UNL     1      -0.660  -5.585   1.441  0.00  0.00    +0.040 A 
ATOM     18  C   UNL     1       0.600  -5.108   1.745  0.00  0.00    +0.027 A 
ATOM     19  C   UNL     1       0.784  -3.757   2.009  0.00  0.00    +0.051 A 
ATOM     20  F   UNL     1      -2.971  -5.188   1.108  0.00  0.00    -0.205 F 
BRANCH  19  21
ATOM     21  N   UNL     1       2.060  -3.271   2.311  0.00  0.00    -0.356 N 
ATOM     22  H   UNL     1       2.172  -2.353   2.606  0.00  0.00    +0.142 HD
ATOM     23  H   UNL     1       2.833  -3.851   2.226  0.00  0.00    +0.142 HD
ENDBRANCH  19  21
ENDBRANCH   1  14
TORSDOF 3
