REMARK  Name = ZINC39948179
REMARK  10 active torsions:
REMARK  status: ('A' for Active; 'I' for Inactive)
REMARK    1  A    between atoms: C_1  and  C_2
REMARK    2  A    between atoms: C_2  and  C_3
REMARK    3  A    between atoms: C_3  and  N_4
REMARK    4  A    between atoms: N_4  and  C_5
REMARK    5  A    between atoms: C_5  and  C_6
REMARK    6  A    between atoms: C_9  and  C_11
REMARK    7  A    between atoms: C_11  and  S_12
REMARK    8  A    between atoms: S_12  and  C_13
REMARK    9  A    between atoms: C_17  and  C_26
REMARK   10  A    between atoms: N_18  and  C_19
REMARK                            x       y       z     vdW  Elec       q    Type
REMARK                         _______ _______ _______ _____ _____    ______ ____
ROOT
ATOM      1  C   UNL     1      -1.337  -6.259  -2.469  0.00  0.00    +0.241 C 
ATOM      2  N   UNL     1      -0.204  -6.889  -1.770  0.00  0.00    -0.237 N 
ATOM      3  N   UNL     1      -0.746  -7.889  -0.954  0.00  0.00    -0.169 NA
ATOM      4  C   UNL     1      -2.047  -7.943  -1.070  0.00  0.00    +0.151 C 
ATOM      5  N   UNL     1      -2.519  -6.986  -1.977  0.00  0.00    -0.254 N 
ATOM      6  H   UNL     1       0.733  -6.657  -1.859  0.00  0.00    +0.171 HD
ENDROOT
BRANCH   4   7
ATOM      7  C   UNL     1      -2.866  -8.845  -0.374  0.00  0.00    +0.022 C 
ATOM      8  C   UNL     1      -2.457  -9.885   0.461  0.00  0.00    +0.006 A 
ATOM      9  C   UNL     1      -1.183 -10.343   0.858  0.00  0.00    +0.010 A 
ATOM     10  C   UNL     1      -1.080 -11.402   1.702  0.00  0.00    +0.001 A 
ATOM     11  C   UNL     1      -2.211 -12.058   2.193  0.00  0.00    +0.002 A 
ATOM     12  C   UNL     1      -3.466 -11.671   1.854  0.00  0.00    +0.026 A 
ATOM     13  C   UNL     1      -3.652 -10.572   0.977  0.00  0.00    +0.043 A 
ATOM     14  N   UNL     1      -4.747 -10.010   0.503  0.00  0.00    -0.380 N 
ATOM     15  C   UNL     1      -4.378  -8.890  -0.369  0.00  0.00    +0.152 C 
ATOM     16  H   UNL     1      -5.654 -10.291   0.703  0.00  0.00    +0.160 HD
ENDBRANCH   4   7
BRANCH   5  17
ATOM     17  C   UNL     1      -3.849  -6.763  -2.343  0.00  0.00    +0.038 A 
ATOM     18  C   UNL     1      -4.652  -5.927  -1.576  0.00  0.00    +0.025 A 
ATOM     19  C   UNL     1      -5.966  -5.708  -1.940  0.00  0.00    +0.022 A 
ATOM     20  C   UNL     1      -6.484  -6.321  -3.068  0.00  0.00    +0.041 A 
ATOM     21  C   UNL     1      -5.687  -7.154  -3.834  0.00  0.00    +0.022 A 
ATOM     22  C   UNL     1      -4.370  -7.371  -3.478  0.00  0.00    +0.025 A 
ATOM     23 CL   UNL     1      -8.136  -6.044  -3.523  0.00  0.00    -0.084 Cl
ENDBRANCH   5  17
BRANCH   1  24
ATOM     24  S   UNL     1      -1.449  -4.500  -2.039  0.00  0.00    -0.108 S 
BRANCH  24  25
ATOM     25  C   UNL     1      -1.589  -4.499  -0.230  0.00  0.00    +0.168 C 
BRANCH  25  27
ATOM     26  N   UNL     1      -1.803  -2.831   1.584  0.00  0.00    -0.301 N 
ATOM     27  C   UNL     1      -1.690  -3.079   0.264  0.00  0.00    +0.226 C 
ATOM     28  O   UNL     1      -1.671  -2.159  -0.526  0.00  0.00    -0.275 OA
BRANCH  26  29
ATOM     29  C   UNL     1      -1.902  -1.451   2.065  0.00  0.00    +0.107 C 
BRANCH  29  31
ATOM     30  C   UNL     1      -0.603   0.535   2.845  0.00  0.00    +0.005 C 
ATOM     31  C   UNL     1      -0.500  -0.906   2.343  0.00  0.00    +0.016 C 
ENDBRANCH  29  31
ENDBRANCH  26  29
BRANCH  26  32
ATOM     32  C   UNL     1      -1.827  -3.943   2.538  0.00  0.00    +0.111 C 
BRANCH  32  33
ATOM     33  C   UNL     1      -3.272  -4.394   2.760  0.00  0.00    +0.006 C 
ATOM     34  C   UNL     1      -3.855  -4.234   4.166  0.00  0.00    +0.005 C 
ATOM     35  C   UNL     1      -3.501  -5.626   3.638  0.00  0.00    +0.005 C 
ENDBRANCH  32  33
ENDBRANCH  26  32
ENDBRANCH  25  27
ENDBRANCH  24  25
ENDBRANCH   1  24
TORSDOF 9
