REMARK  Name = ZINC02104216
REMARK  6 active torsions:
REMARK  status: ('A' for Active; 'I' for Inactive)
REMARK    1  A    between atoms: C_8  and  C_11
REMARK    2  A    between atoms: C_11  and  C_12
REMARK    3  A    between atoms: C_12  and  N_52
REMARK    4  A    between atoms: C_13  and  C_14
REMARK    5  A    between atoms: C_13  and  N_52
REMARK    6  A    between atoms: N_16  and  C_17
REMARK                            x       y       z     vdW  Elec       q    Type
REMARK                         _______ _______ _______ _____ _____    ______ ____
ROOT
ATOM      1  C   UNL     1      -4.935   3.748  -2.100  0.00  0.00    +0.200 C 
ATOM      2  O   UNL     1      -4.494   4.095  -3.175  0.00  0.00    -0.278 OA
ATOM      3  N   UNL     1      -4.230   2.902  -1.324  0.00  0.00    -0.286 N 
ATOM      4  H   UNL     1      -4.613   2.568  -0.498  0.00  0.00    +0.155 HD
ENDROOT
BRANCH   3   5
ATOM      5  C   UNL     1      -2.952   2.507  -1.707  0.00  0.00    +0.047 A 
ATOM      6  C   UNL     1      -1.812   3.228  -1.286  0.00  0.00    +0.022 A 
ATOM      7  C   UNL     1      -1.923   4.362  -0.469  0.00  0.00    +0.012 A 
ATOM      8  C   UNL     1      -0.798   5.027  -0.084  0.00  0.00    +0.001 A 
ATOM      9  C   UNL     1       0.462   4.595  -0.493  0.00  0.00    +0.002 A 
ATOM     10  C   UNL     1       0.604   3.499  -1.287  0.00  0.00    +0.028 A 
ATOM     11  C   UNL     1      -0.534   2.786  -1.704  0.00  0.00    +0.073 A 
ATOM     12  N   UNL     1      -0.424   1.706  -2.482  0.00  0.00    -0.251 NA
ATOM     13  C   UNL     1      -1.475   1.021  -2.884  0.00  0.00    +0.047 A 
ATOM     14  C   UNL     1      -2.762   1.396  -2.513  0.00  0.00    -0.004 A 
ATOM     15  C   UNL     1      -3.768   0.438  -3.111  0.00  0.00    +0.039 C 
ATOM     16  C   UNL     1      -2.949  -0.808  -3.518  0.00  0.00    +0.011 C 
ATOM     17  C   UNL     1      -1.544  -0.215  -3.758  0.00  0.00    +0.056 C 
ENDBRANCH   3   5
BRANCH   1  18
ATOM     18  C   UNL     1      -6.272   4.263  -1.632  0.00  0.00    +0.015 C 
BRANCH  18  19
ATOM     19  N   UNL     1      -6.829   5.164  -2.659  0.00  0.00    +0.385 N 
ATOM     20  H   UNL     1      -6.185   5.949  -2.807  0.00  0.00    -0.085 HD
ATOM     21  H   UNL     1      -6.944   4.646  -3.538  0.00  0.00    -0.085 HD
BRANCH  19  22
ATOM     22  C   UNL     1      -8.140   5.684  -2.227  0.00  0.00    -0.076 C 
BRANCH  22  23
ATOM     23  C   UNL     1      -8.693   6.613  -3.310  0.00  0.00    +0.034 C 
BRANCH  23  31
ATOM     24  C   UNL     1     -14.333   8.301  -1.770  0.00  0.00    +0.001 A 
ATOM     25  C   UNL     1     -13.677   9.424  -1.282  0.00  0.00    +0.002 A 
ATOM     26  C   UNL     1     -12.309   9.541  -1.390  0.00  0.00    +0.026 A 
ATOM     27  C   UNL     1     -11.574   8.525  -1.994  0.00  0.00    +0.047 A 
ATOM     28  C   UNL     1     -12.243   7.390  -2.486  0.00  0.00    -0.000 A 
ATOM     29  C   UNL     1     -13.631   7.292  -2.366  0.00  0.00    +0.010 A 
ATOM     30  C   UNL     1     -11.207   6.525  -3.056  0.00  0.00    +0.031 A 
ATOM     31  C   UNL     1     -10.033   7.149  -2.876  0.00  0.00    +0.015 A 
ATOM     32  N   UNL     1     -10.233   8.347  -2.246  0.00  0.00    -0.358 N 
ATOM     33  H   UNL     1      -9.533   8.978  -2.013  0.00  0.00    +0.166 HD
ENDBRANCH  23  31
ENDBRANCH  22  23
ENDBRANCH  19  22
ENDBRANCH  18  19
ENDBRANCH   1  18
TORSDOF 6
