REMARK  Name = ZINC16133960
REMARK  10 active torsions:
REMARK  status: ('A' for Active; 'I' for Inactive)
REMARK    1  A    between atoms: C_1  and  C_2
REMARK    2  A    between atoms: C_5  and  C_8
REMARK    3  A    between atoms: N_9  and  C_10
REMARK    4  A    between atoms: C_11  and  O_35
REMARK    5  A    between atoms: C_14  and  S_16
REMARK    6  A    between atoms: S_16  and  C_19
REMARK    7  A    between atoms: C_21  and  N_26
REMARK    8  A    between atoms: C_22  and  O_25
REMARK    9  A    between atoms: C_27  and  C_28
REMARK   10  A    between atoms: C_31  and  C_34
REMARK                            x       y       z     vdW  Elec       q    Type
REMARK                         _______ _______ _______ _____ _____    ______ ____
ROOT
ATOM      1  S   UNL     1       1.880  -9.203  -1.009  0.00  0.00    +0.025 S 
ATOM      2  O   UNL     1       2.918  -8.314  -1.398  0.00  0.00    -0.164 OA
ATOM      3  O   UNL     1       2.142 -10.484  -0.452  0.00  0.00    -0.164 OA
ENDROOT
BRANCH   1   8
ATOM      4  C   UNL     1       0.092  -6.271   1.096  0.00  0.00    +0.107 A 
ATOM      5  C   UNL     1      -0.677  -6.991   2.020  0.00  0.00    +0.142 A 
ATOM      6  C   UNL     1      -0.652  -8.376   2.004  0.00  0.00    +0.049 A 
ATOM      7  C   UNL     1       0.129  -9.044   1.079  0.00  0.00    +0.031 A 
ATOM      8  C   UNL     1       0.890  -8.337   0.164  0.00  0.00    +0.096 A 
ATOM      9  C   UNL     1       0.872  -6.958   0.163  0.00  0.00    +0.058 A 
BRANCH   4  11
ATOM     10  C   UNL     1       0.060  -4.246  -0.021  0.00  0.00    +0.119 C 
ATOM     11  N   UNL     1       0.074  -4.904   1.103  0.00  0.00    -0.251 NA
BRANCH  10  16
ATOM     12  C   UNL     1      -0.018   1.503   0.010  0.00  0.00    +0.044 C 
ATOM     13  C   UNL     1       0.002  -0.004   0.002  0.00  0.00    -0.050 A 
ATOM     14  C   UNL     1       0.006  -0.686  -1.202  0.00  0.00    +0.004 A 
ATOM     15  C   UNL     1       0.024  -2.065  -1.218  0.00  0.00    +0.009 A 
ATOM     16  C   UNL     1       0.040  -2.774  -0.013  0.00  0.00    -0.007 A 
ATOM     17  C   UNL     1       0.037  -2.078   1.199  0.00  0.00    +0.009 A 
ATOM     18  C   UNL     1       0.023  -0.699   1.199  0.00  0.00    +0.004 A 
ENDBRANCH  10  16
ENDBRANCH   4  11
BRANCH   5  19
ATOM     19  O   UNL     1      -1.443  -6.334   2.929  0.00  0.00    -0.505 OA
ATOM     20  H   UNL     1      -2.342  -6.149   2.625  0.00  0.00    +0.292 HD
ENDBRANCH   5  19
ENDBRANCH   1   8
BRANCH   1  21
ATOM     21  C   UNL     1       0.882  -9.469  -2.437  0.00  0.00    +0.096 A 
ATOM     22  C   UNL     1       0.117 -10.613  -2.536  0.00  0.00    +0.058 A 
ATOM     23  C   UNL     1      -0.674 -10.825  -3.667  0.00  0.00    +0.107 A 
ATOM     24  C   UNL     1      -0.683  -9.871  -4.695  0.00  0.00    +0.142 A 
ATOM     25  C   UNL     1       0.091  -8.729  -4.579  0.00  0.00    +0.049 A 
ATOM     26  C   UNL     1       0.866  -8.528  -3.451  0.00  0.00    +0.031 A 
BRANCH  24  27
ATOM     27  O   UNL     1      -1.448 -10.067  -5.800  0.00  0.00    -0.505 OA
ATOM     28  H   UNL     1      -2.343  -9.708  -5.728  0.00  0.00    +0.292 HD
ENDBRANCH  24  27
BRANCH  23  29
ATOM     29  N   UNL     1      -1.435 -11.956  -3.772  0.00  0.00    -0.251 NA
ATOM     30  C   UNL     1      -2.063 -12.418  -2.728  0.00  0.00    +0.119 C 
BRANCH  30  31
ATOM     31  C   UNL     1      -2.883 -13.636  -2.842  0.00  0.00    -0.007 A 
ATOM     32  C   UNL     1      -2.984 -14.303  -4.066  0.00  0.00    +0.009 A 
ATOM     33  C   UNL     1      -3.753 -15.444  -4.164  0.00  0.00    +0.004 A 
ATOM     34  C   UNL     1      -4.424 -15.928  -3.054  0.00  0.00    -0.050 A 
ATOM     35  C   UNL     1      -4.329 -15.272  -1.839  0.00  0.00    +0.004 A 
ATOM     36  C   UNL     1      -3.559 -14.134  -1.724  0.00  0.00    +0.009 A 
ATOM     37  C   UNL     1      -5.263 -17.174  -3.170  0.00  0.00    +0.044 C 
ENDBRANCH  30  31
ENDBRANCH  23  29
ENDBRANCH   1  21
TORSDOF 8
