REMARK  Name = ZINC03064734
REMARK  4 active torsions:
REMARK  status: ('A' for Active; 'I' for Inactive)
REMARK    1  A    between atoms: C_6  and  N_7
REMARK    2  A    between atoms: C_9  and  C_11
REMARK    3  A    between atoms: C_11  and  C_12
REMARK    4  A    between atoms: C_16  and  N_21
REMARK                            x       y       z     vdW  Elec       q    Type
REMARK                         _______ _______ _______ _____ _____    ______ ____
ROOT
ATOM      1  C   UNL     1       6.175  -0.126  -0.059  0.00  0.00    +0.125 C 
ENDROOT
BRANCH   1   9
ATOM      2  C   UNL     1      -0.017   1.390   0.010  0.00  0.00    +0.024 A 
ATOM      3  C   UNL     1       1.176   2.086   0.002  0.00  0.00    +0.019 A 
ATOM      4  C   UNL     1       2.364   1.395  -0.013  0.00  0.00    +0.039 A 
ATOM      5  C   UNL     1       2.421  -0.017  -0.021  0.00  0.00    +0.080 A 
ATOM      6  C   UNL     1       1.189  -0.703  -0.013  0.00  0.00    +0.051 A 
ATOM      7  C   UNL     1       0.002  -0.004   0.002  0.00  0.00    +0.027 A 
ATOM      8  N   UNL     1       3.680  -0.502  -0.036  0.00  0.00    -0.244 NA
ATOM      9  C   UNL     1       4.723   0.276  -0.042  0.00  0.00    +0.086 A 
ATOM     10  S   UNL     1       4.083   1.833  -0.028  0.00  0.00    -0.072 S 
BRANCH   7  11
ATOM     11  N   UNL     1      -1.208  -0.707   0.010  0.00  0.00    -0.358 N 
ATOM     12  H   UNL     1      -2.049  -0.224   0.021  0.00  0.00    +0.142 HD
ATOM     13  H   UNL     1      -1.206  -1.677   0.005  0.00  0.00    +0.142 HD
ENDBRANCH   7  11
ENDBRANCH   1   9
BRANCH   1  14
ATOM     14  C   UNL     1       6.645  -0.252  -1.485  0.00  0.00    +0.086 A 
ATOM     15  N   UNL     1       7.173   0.671  -2.236  0.00  0.00    -0.244 NA
ATOM     16  C   UNL     1       7.556   0.431  -3.507  0.00  0.00    +0.080 A 
ATOM     17  C   UNL     1       8.137   1.300  -4.454  0.00  0.00    +0.051 A 
ATOM     18  C   UNL     1       8.455   0.845  -5.714  0.00  0.00    +0.027 A 
ATOM     19  C   UNL     1       8.213  -0.476  -6.089  0.00  0.00    +0.024 A 
ATOM     20  C   UNL     1       7.644  -1.347  -5.180  0.00  0.00    +0.019 A 
ATOM     21  C   UNL     1       7.325  -0.900  -3.921  0.00  0.00    +0.039 A 
ATOM     22  S   UNL     1       6.613  -1.620  -2.465  0.00  0.00    -0.072 S 
BRANCH  18  23
ATOM     23  N   UNL     1       9.031   1.725  -6.637  0.00  0.00    -0.358 N 
ATOM     24  H   UNL     1       9.203   2.646  -6.386  0.00  0.00    +0.142 HD
ATOM     25  H   UNL     1       9.258   1.415  -7.527  0.00  0.00    +0.142 HD
ENDBRANCH  18  23
ENDBRANCH   1  14
TORSDOF 4
