REMARK  Name = ZINC22854735
REMARK  11 active torsions:
REMARK  status: ('A' for Active; 'I' for Inactive)
REMARK    1  A    between atoms: C_1  and  C_2
REMARK    2  A    between atoms: C_2  and  C_3
REMARK    3  A    between atoms: C_8  and  O_35
REMARK    4  A    between atoms: C_9  and  C_11
REMARK    5  A    between atoms: C_11  and  C_13
REMARK    6  A    between atoms: C_11  and  N_22
REMARK    7  A    between atoms: C_16  and  O_19
REMARK    8  A    between atoms: O_19  and  C_20
REMARK    9  A    between atoms: C_20  and  C_21
REMARK   10  A    between atoms: N_25  and  C_28
REMARK   11  A    between atoms: C_28  and  C_29
REMARK                            x       y       z     vdW  Elec       q    Type
REMARK                         _______ _______ _______ _____ _____    ______ ____
ROOT
ATOM      1  C   UNL     1       4.172  -2.393  -5.702  0.00  0.00    +0.129 C 
ENDROOT
BRANCH   1   8
ATOM      2  C   UNL     1       0.395   0.094  -1.816  0.00  0.00    +0.152 A 
ATOM      3  N   UNL     1      -0.077  -0.220  -3.020  0.00  0.00    -0.205 NA
ATOM      4  C   UNL     1       0.880  -0.750  -3.733  0.00  0.00    +0.199 A 
ATOM      5  N   UNL     1       2.025  -0.796  -2.999  0.00  0.00    -0.173 N 
ATOM      6  N   UNL     1       1.659  -0.227  -1.751  0.00  0.00    -0.147 NA
ATOM      7  C   UNL     1       3.138  -1.329  -3.602  0.00  0.00    +0.228 A 
ATOM      8  C   UNL     1       3.082  -1.779  -4.861  0.00  0.00    +0.076 A 
ATOM      9  S   UNL     1       1.376  -1.461  -5.284  0.00  0.00    -0.047 S 
BRANCH   2  11
ATOM     10  C   UNL     1      -0.314   2.250  -0.817  0.00  0.00    +0.012 C 
ATOM     11  C   UNL     1      -0.402   0.727  -0.704  0.00  0.00    +0.075 C 
ENDBRANCH   2  11
BRANCH   7  12
ATOM     12  O   UNL     1       4.309  -1.400  -2.914  0.00  0.00    -0.492 OA
ATOM     13  H   UNL     1       4.257  -1.053  -2.013  0.00  0.00    +0.294 HD
ENDBRANCH   7  12
ENDBRANCH   1   8
BRANCH   1  14
ATOM     14  N   UNL     1       4.293  -1.650  -6.964  0.00  0.00    -0.295 NA
ATOM     15  C   UNL     1       4.516  -0.219  -6.713  0.00  0.00    +0.067 C 
ATOM     16  C   UNL     1       4.577   0.526  -8.049  0.00  0.00    -0.063 C 
ATOM     17  N   UNL     1       5.668  -0.021  -8.865  0.00  0.00    +0.384 N 
ATOM     18  C   UNL     1       5.420  -1.444  -9.128  0.00  0.00    -0.063 C 
ATOM     19  C   UNL     1       5.366  -2.206  -7.801  0.00  0.00    +0.067 C 
ATOM     20  H   UNL     1       6.542   0.083  -8.371  0.00  0.00    -0.081 HD
BRANCH  17  21
ATOM     21  C   UNL     1       5.738   0.707 -10.139  0.00  0.00    -0.043 C 
BRANCH  21  22
ATOM     22  C   UNL     1       6.933   0.230 -10.925  0.00  0.00    -0.064 A 
ATOM     23  C   UNL     1       8.158   0.849 -10.764  0.00  0.00    +0.002 A 
ATOM     24  C   UNL     1       9.253   0.412 -11.485  0.00  0.00    +0.000 A 
ATOM     25  C   UNL     1       9.124  -0.645 -12.367  0.00  0.00    +0.000 A 
ATOM     26  C   UNL     1       7.898  -1.264 -12.527  0.00  0.00    +0.000 A 
ATOM     27  C   UNL     1       6.804  -0.830 -11.803  0.00  0.00    +0.002 A 
ENDBRANCH  21  22
ENDBRANCH  17  21
ENDBRANCH   1  14
BRANCH   1  28
ATOM     28  C   UNL     1       3.830  -3.830  -5.997  0.00  0.00    -0.025 A 
ATOM     29  C   UNL     1       2.849  -4.131  -6.924  0.00  0.00    +0.009 A 
ATOM     30  C   UNL     1       2.534  -5.448  -7.195  0.00  0.00    +0.046 A 
ATOM     31  C   UNL     1       3.203  -6.470  -6.537  0.00  0.00    +0.121 A 
ATOM     32  C   UNL     1       4.187  -6.166  -5.608  0.00  0.00    +0.046 A 
ATOM     33  C   UNL     1       4.503  -4.847  -5.344  0.00  0.00    +0.009 A 
BRANCH  31  34
ATOM     34  O   UNL     1       2.895  -7.767  -6.802  0.00  0.00    -0.492 OA
BRANCH  34  35
ATOM     35  C   UNL     1       3.624  -8.766  -6.087  0.00  0.00    +0.225 C 
ATOM     36  C   UNL     1       3.141 -10.154  -6.515  0.00  0.00    +0.048 C 
ENDBRANCH  34  35
ENDBRANCH  31  34
ENDBRANCH   1  28
TORSDOF 9
