REMARK  Name = ZINC40761157
REMARK  4 active torsions:
REMARK  status: ('A' for Active; 'I' for Inactive)
REMARK    1  A    between atoms: C_12  and  N_33
REMARK    2  A    between atoms: C_13  and  N_17
REMARK    3  A    between atoms: N_20  and  C_23
REMARK    4  A    between atoms: C_23  and  C_24
REMARK                            x       y       z     vdW  Elec       q    Type
REMARK                         _______ _______ _______ _____ _____    ______ ____
ROOT
ATOM      1  C   UNL     1       3.167   2.299   3.615  0.00  0.00    +0.002 A 
ATOM      2  C   UNL     1       3.080   2.668   2.281  0.00  0.00    +0.001 A 
ATOM      3  C   UNL     1       3.417   1.752   1.301  0.00  0.00    +0.017 A 
ATOM      4  C   UNL     1       3.832   0.495   1.663  0.00  0.00    +0.041 A 
ATOM      5  C   UNL     1       3.932   0.083   3.011  0.00  0.00    +0.080 A 
ATOM      6  C   UNL     1       3.580   1.045   3.986  0.00  0.00    +0.029 A 
ATOM      7  N   UNL     1       4.355  -1.185   3.206  0.00  0.00    -0.225 NA
ATOM      8  C   UNL     1       4.654  -1.990   2.212  0.00  0.00    +0.165 A 
ATOM      9  S   UNL     1       4.347  -0.960   0.783  0.00  0.00    -0.052 S 
ATOM     10  N   UNL     1       5.094  -3.298   2.259  0.00  0.00    -0.277 N 
ATOM     11  C   UNL     1       5.360  -3.986   1.078  0.00  0.00    +0.150 A 
ATOM     12  C   UNL     1       5.799  -5.310   1.113  0.00  0.00    +0.106 A 
ATOM     13  C   UNL     1       6.050  -5.953  -0.101  0.00  0.00    +0.147 A 
ATOM     14  N   UNL     1       5.862  -5.284  -1.236  0.00  0.00    -0.219 NA
ATOM     15  C   UNL     1       5.446  -4.034  -1.224  0.00  0.00    +0.225 A 
ATOM     16  N   UNL     1       5.193  -3.393  -0.101  0.00  0.00    -0.219 NA
ATOM     17  H   UNL     1       5.218  -3.738   3.114  0.00  0.00    +0.156 HD
ENDROOT
BRANCH  13  18
ATOM     18  N   UNL     1       6.490  -7.271  -0.124  0.00  0.00    -0.317 N 
ATOM     19  C   UNL     1       5.538  -8.384  -0.258  0.00  0.00    +0.088 C 
ATOM     20  C   UNL     1       6.021  -9.304  -1.384  0.00  0.00    -0.059 C 
ATOM     21  N   UNL     1       7.404  -9.719  -1.116  0.00  0.00    +0.384 N 
ATOM     22  C   UNL     1       8.292  -8.550  -1.152  0.00  0.00    -0.059 C 
ATOM     23  C   UNL     1       7.922  -7.593  -0.020  0.00  0.00    +0.088 C 
ATOM     24  H   UNL     1       7.454 -10.150  -0.205  0.00  0.00    -0.081 HD
BRANCH  21  25
ATOM     25  C   UNL     1       7.829 -10.687  -2.136  0.00  0.00    -0.043 C 
BRANCH  25  26
ATOM     26  C   UNL     1       9.202 -11.206  -1.795  0.00  0.00    -0.060 A 
ATOM     27  C   UNL     1      10.324 -10.553  -2.270  0.00  0.00    +0.005 A 
ATOM     28  C   UNL     1      11.585 -11.025  -1.959  0.00  0.00    +0.050 A 
ATOM     29  C   UNL     1      11.728 -12.155  -1.171  0.00  0.00    +0.166 A 
ATOM     30  C   UNL     1      10.598 -12.813  -0.692  0.00  0.00    +0.166 A 
ATOM     31  C   UNL     1       9.336 -12.331  -1.003  0.00  0.00    +0.051 A 
ATOM     32  O   UNL     1      10.999 -13.885   0.051  0.00  0.00    -0.453 OA
ATOM     33  C   UNL     1      12.373 -14.114  -0.314  0.00  0.00    +0.466 C 
ATOM     34  O   UNL     1      12.837 -12.815  -0.727  0.00  0.00    -0.453 OA
ENDBRANCH  25  26
ENDBRANCH  21  25
ENDBRANCH  13  18
BRANCH  12  35
ATOM     35  N   UNL     1       5.984  -5.977   2.334  0.00  0.00    -0.353 N 
ATOM     36  H   UNL     1       5.894  -5.493   3.170  0.00  0.00    +0.143 HD
ATOM     37  H   UNL     1       6.203  -6.922   2.342  0.00  0.00    +0.143 HD
ENDBRANCH  12  35
TORSDOF 4
