REMARK  Name = ZINC37987136
REMARK  5 active torsions:
REMARK  status: ('A' for Active; 'I' for Inactive)
REMARK    1  A    between atoms: C_1  and  N_2
REMARK    2  A    between atoms: C_3  and  N_19
REMARK    3  A    between atoms: C_4  and  N_11
REMARK    4  A    between atoms: N_11  and  C_12
REMARK    5  A    between atoms: C_12  and  C_13
REMARK                            x       y       z     vdW  Elec       q    Type
REMARK                         _______ _______ _______ _____ _____    ______ ____
ROOT
ATOM      1  C   UNL     1      -0.018   1.461   0.010  0.00  0.00    +0.155 C 
ATOM      2  N   UNL     1       0.002  -0.004   0.002  0.00  0.00    -0.284 N 
ATOM      3  C   UNL     1      -1.183  -0.705   0.004  0.00  0.00    +0.127 A 
ATOM      4  C   UNL     1      -1.153  -2.073  -0.004  0.00  0.00    +0.131 A 
ATOM      5  C   UNL     1       0.091  -2.728  -0.014  0.00  0.00    +0.277 A 
ATOM      6  O   UNL     1       0.142  -3.947  -0.022  0.00  0.00    -0.266 OA
ATOM      7  N   UNL     1       1.226  -2.002  -0.015  0.00  0.00    -0.273 N 
ATOM      8  H   UNL     1       2.085  -2.452  -0.023  0.00  0.00    +0.173 HD
ATOM      9  C   UNL     1       1.179  -0.657  -0.013  0.00  0.00    +0.331 A 
ATOM     10  O   UNL     1       2.216  -0.022  -0.019  0.00  0.00    -0.246 OA
ENDROOT
BRANCH   3  11
ATOM     11  N   UNL     1      -2.385  -0.035   0.014  0.00  0.00    -0.343 N 
ATOM     12  H   UNL     1      -2.401   0.934   0.020  0.00  0.00    +0.144 HD
ATOM     13  H   UNL     1      -3.218  -0.534   0.015  0.00  0.00    +0.144 HD
ENDBRANCH   3  11
BRANCH   4  14
ATOM     14  N   UNL     1      -2.356  -2.816  -0.002  0.00  0.00    -0.332 N 
ATOM     15  H   UNL     1      -3.211  -2.357   0.005  0.00  0.00    +0.147 HD
BRANCH  14  16
ATOM     16  C   UNL     1      -2.312  -4.281  -0.011  0.00  0.00    +0.144 C 
BRANCH  16  17
ATOM     17  C   UNL     1      -3.717  -4.825  -0.006  0.00  0.00    +0.008 A 
ATOM     18  C   UNL     1      -4.516  -5.133  -1.057  0.00  0.00    +0.014 A 
ATOM     19  C   UNL     1      -5.785  -5.626  -0.813  0.00  0.00    +0.023 A 
ATOM     20  C   UNL     1      -6.192  -5.786   0.471  0.00  0.00    +0.055 A 
ATOM     21  S   UNL     1      -4.758  -5.240   1.384  0.00  0.00    -0.085 S 
ATOM     22 BR   UNL     1      -7.846  -6.428   1.125  0.00  0.00    -0.043 Br
ENDBRANCH  16  17
ENDBRANCH  14  16
ENDBRANCH   4  14
TORSDOF 4
