REMARK  Name = ZINC17158487
REMARK  4 active torsions:
REMARK  status: ('A' for Active; 'I' for Inactive)
REMARK    1  A    between atoms: C_6  and  C_7
REMARK    2  A    between atoms: C_12  and  C_15
REMARK    3  A    between atoms: N_17  and  N_18
REMARK    4  A    between atoms: C_19  and  C_21
REMARK                            x       y       z     vdW  Elec       q    Type
REMARK                         _______ _______ _______ _____ _____    ______ ____
ROOT
ATOM      1  C   UNL     1       5.511   6.261  -1.832  0.00  0.00    +0.232 C 
ATOM      2  O   UNL     1       5.081   7.111  -2.583  0.00  0.00    -0.274 OA
ATOM      3  N   UNL     1       6.790   5.851  -1.940  0.00  0.00    -0.234 N 
ATOM      4  H   UNL     1       7.133   5.170  -1.340  0.00  0.00    +0.173 HD
ENDROOT
BRANCH   1  10
ATOM      5  C   UNL     1       1.171   3.564   0.009  0.00  0.00    +0.247 C 
ATOM      6  O   UNL     1       0.118   4.163  -0.085  0.00  0.00    -0.270 OA
ATOM      7  N   UNL     1       2.329   4.248   0.104  0.00  0.00    -0.297 N 
ATOM      8  C   UNL     1       3.618   3.542   0.096  0.00  0.00    +0.109 C 
ATOM      9  C   UNL     1       4.502   4.153  -1.002  0.00  0.00    +0.032 C 
ATOM     10  C   UNL     1       4.614   5.662  -0.779  0.00  0.00    +0.079 C 
ATOM     11  C   UNL     1       3.225   6.298  -0.871  0.00  0.00    +0.032 C 
ATOM     12  C   UNL     1       2.326   5.712   0.223  0.00  0.00    +0.109 C 
BRANCH   5  18
ATOM     13  C   UNL     1       0.359   1.372  -0.851  0.00  0.00    +0.014 A 
ATOM     14  C   UNL     1       0.374  -0.006  -0.836  0.00  0.00    +0.016 A 
ATOM     15  C   UNL     1       1.205  -0.683   0.042  0.00  0.00    +0.018 A 
ATOM     16  C   UNL     1       2.024   0.020   0.909  0.00  0.00    +0.016 A 
ATOM     17  C   UNL     1       2.018   1.399   0.904  0.00  0.00    +0.014 A 
ATOM     18  C   UNL     1       1.183   2.086   0.021  0.00  0.00    +0.037 A 
ATOM     19 BR   UNL     1       1.219  -2.574   0.057  0.00  0.00    -0.050 Br
ENDBRANCH   5  18
ENDBRANCH   1  10
BRANCH   3  20
ATOM     20  N   UNL     1       7.623   6.407  -2.919  0.00  0.00    -0.234 N 
ATOM     21  C   UNL     1       8.903   5.997  -3.027  0.00  0.00    +0.235 C 
ATOM     22  O   UNL     1       9.332   5.146  -2.277  0.00  0.00    -0.274 OA
ATOM     23  H   UNL     1       7.280   7.087  -3.519  0.00  0.00    +0.173 HD
BRANCH  21  24
ATOM     24  C   UNL     1       9.799   6.595  -4.080  0.00  0.00    +0.049 C 
ATOM     25  C   UNL     1       9.207   6.328  -5.466  0.00  0.00    +0.019 C 
ATOM     26  C   UNL     1      10.118   6.935  -6.535  0.00  0.00    -0.009 C 
ATOM     27  C   UNL     1      11.507   6.300  -6.443  0.00  0.00    +0.007 C 
ATOM     28  C   UNL     1      12.099   6.567  -5.058  0.00  0.00    -0.009 C 
ATOM     29  C   UNL     1      11.188   5.960  -3.988  0.00  0.00    +0.019 C 
ATOM     30  C   UNL     1      12.212   8.077  -4.834  0.00  0.00    +0.007 C 
ATOM     31  C   UNL     1      10.823   8.711  -4.926  0.00  0.00    -0.009 C 
ATOM     32  C   UNL     1      10.231   8.444  -6.311  0.00  0.00    +0.007 C 
ATOM     33  C   UNL     1       9.913   8.104  -3.857  0.00  0.00    +0.019 C 
ENDBRANCH  21  24
ENDBRANCH   3  20
TORSDOF 4
