REMARK  Name = ZINC05074368
REMARK  12 active torsions:
REMARK  status: ('A' for Active; 'I' for Inactive)
REMARK    1  A    between atoms: C_1  and  C_2
REMARK    2  A    between atoms: C_2  and  C_3
REMARK    3  A    between atoms: C_3  and  C_5
REMARK    4  A    between atoms: C_3  and  C_6
REMARK    5  A    between atoms: C_6  and  C_8
REMARK    6  A    between atoms: C_6  and  N_23
REMARK    7  A    between atoms: C_14  and  C_16
REMARK    8  A    between atoms: C_19  and  C_22
REMARK    9  A    between atoms: N_26  and  C_27
REMARK   10  A    between atoms: C_27  and  C_28
REMARK   11  A    between atoms: C_27  and  C_29
REMARK   12  A    between atoms: C_27  and  C_30
REMARK                            x       y       z     vdW  Elec       q    Type
REMARK                         _______ _______ _______ _____ _____    ______ ____
ROOT
ATOM      1  C   UNL     1      -1.982  -0.912   2.181  0.00  0.00    +0.239 C 
ATOM      2  O   UNL     1      -3.052  -0.891   2.752  0.00  0.00    -0.273 OA
ATOM      3  N   UNL     1      -0.886  -1.367   2.819  0.00  0.00    -0.262 N 
ATOM      4  C   UNL     1      -0.997  -1.902   4.096  0.00  0.00    +0.188 A 
ATOM      5  N   UNL     1      -2.070  -2.049   4.857  0.00  0.00    -0.125 NA
ATOM      6  N   UNL     1      -2.007  -2.563   6.008  0.00  0.00    -0.140 NA
ATOM      7  C   UNL     1      -0.843  -2.966   6.500  0.00  0.00    +0.134 A 
ATOM      8  S   UNL     1       0.236  -2.553   5.135  0.00  0.00    -0.030 S 
ATOM      9  H   UNL     1      -0.019  -1.322   2.386  0.00  0.00    +0.157 HD
ENDROOT
BRANCH   7  10
ATOM     10  C   UNL     1      -0.527  -3.582   7.807  0.00  0.00    +0.009 A 
ATOM     11  C   UNL     1       0.787  -3.937   8.115  0.00  0.00    +0.011 A 
ATOM     12  C   UNL     1       1.076  -4.506   9.338  0.00  0.00    +0.004 A 
ATOM     13  C   UNL     1       0.065  -4.737  10.253  0.00  0.00    -0.050 A 
ATOM     14  C   UNL     1      -1.241  -4.393   9.952  0.00  0.00    +0.004 A 
ATOM     15  C   UNL     1      -1.542  -3.817   8.735  0.00  0.00    +0.011 A 
ATOM     16  C   UNL     1       0.387  -5.365  11.585  0.00  0.00    +0.044 C 
ENDBRANCH   7  10
BRANCH   1  17
ATOM     17  C   UNL     1      -1.880  -0.428   0.757  0.00  0.00    +0.163 C 
BRANCH  17  18
ATOM     18  N   UNL     1      -3.208  -0.039   0.277  0.00  0.00    -0.288 N 
ATOM     19  C   UNL     1      -3.535  -0.218  -1.018  0.00  0.00    +0.301 C 
ATOM     20  O   UNL     1      -2.761  -0.780  -1.769  0.00  0.00    -0.253 OA
ATOM     21  N   UNL     1      -4.720   0.226  -1.482  0.00  0.00    -0.295 N 
ATOM     22  H   UNL     1      -3.851   0.348   0.890  0.00  0.00    +0.151 HD
ATOM     23  H   UNL     1      -5.338   0.674  -0.883  0.00  0.00    +0.151 HD
BRANCH  21  24
ATOM     24  C   UNL     1      -5.076   0.031  -2.889  0.00  0.00    +0.028 C 
ATOM     25  C   UNL     1      -5.091  -1.465  -3.209  0.00  0.00    +0.031 C 
ATOM     26  C   UNL     1      -6.463   0.622  -3.151  0.00  0.00    +0.031 C 
ATOM     27  C   UNL     1      -4.046   0.732  -3.777  0.00  0.00    +0.031 C 
ENDBRANCH  21  24
ENDBRANCH  17  18
BRANCH  17  28
ATOM     28  C   UNL     1      -0.940   0.778   0.695  0.00  0.00    +0.015 C 
ATOM     29  C   UNL     1      -0.673   1.141  -0.767  0.00  0.00    +0.010 C 
BRANCH  28  31
ATOM     30  C   UNL     1      -1.685   1.676   2.904  0.00  0.00    +0.004 C 
ATOM     31  C   UNL     1      -1.590   1.967   1.405  0.00  0.00    +0.002 C 
ENDBRANCH  28  31
ENDBRANCH  17  28
ENDBRANCH   1  17
TORSDOF 6
