REMARK  Name = ZINC12466406
REMARK  7 active torsions:
REMARK  status: ('A' for Active; 'I' for Inactive)
REMARK    1  A    between atoms: C_1  and  C_2
REMARK    2  A    between atoms: C_5  and  C_9
REMARK    3  A    between atoms: N_11  and  N_12
REMARK    4  A    between atoms: C_13  and  C_14
REMARK    5  A    between atoms: C_16  and  N_21
REMARK    6  A    between atoms: C_19  and  O_20
REMARK    7  A    between atoms: N_22  and  C_23
REMARK                            x       y       z     vdW  Elec       q    Type
REMARK                         _______ _______ _______ _____ _____    ______ ____
ROOT
ATOM      1  C   UNL     1       0.126  -8.463   2.242  0.00  0.00    +0.038 A 
ATOM      2  C   UNL     1       0.136  -9.169   3.443  0.00  0.00    +0.042 A 
ATOM      3  C   UNL     1       0.154 -10.565   3.425  0.00  0.00    +0.087 A 
ATOM      4  C   UNL     1       0.163 -11.248   2.203  0.00  0.00    +0.033 A 
ATOM      5  C   UNL     1       0.154 -10.547   1.016  0.00  0.00    +0.048 A 
ATOM      6  C   UNL     1       0.129  -9.160   1.024  0.00  0.00    +0.126 A 
ENDROOT
BRANCH   1   8
ATOM      7  N   UNL     1       0.092  -6.333   1.131  0.00  0.00    -0.187 NA
ATOM      8  C   UNL     1       0.107  -6.989   2.252  0.00  0.00    +0.142 C 
BRANCH   7  11
ATOM      9  C   UNL     1       0.059  -4.252  -0.023  0.00  0.00    +0.263 C 
ATOM     10  O   UNL     1       0.062  -4.853  -1.080  0.00  0.00    -0.268 OA
ATOM     11  N   UNL     1       0.074  -4.933   1.140  0.00  0.00    -0.203 N 
ATOM     12  H   UNL     1       0.072  -4.453   1.983  0.00  0.00    +0.178 HD
BRANCH   9  17
ATOM     13  C   UNL     1      -0.018   1.503   0.010  0.00  0.00    +0.045 C 
ATOM     14  C   UNL     1       0.002  -0.004   0.002  0.00  0.00    -0.032 A 
ATOM     15  C   UNL     1       0.006  -0.686  -1.202  0.00  0.00    +0.005 A 
ATOM     16  C   UNL     1       0.024  -2.065  -1.217  0.00  0.00    +0.013 A 
ATOM     17  C   UNL     1       0.040  -2.774  -0.014  0.00  0.00    +0.040 A 
ATOM     18  C   UNL     1       0.036  -2.081   1.198  0.00  0.00    +0.033 A 
ATOM     19  C   UNL     1       0.023  -0.700   1.199  0.00  0.00    +0.045 A 
ATOM     20 CL   UNL     1       0.026   0.166   2.704  0.00  0.00    -0.083 Cl
ENDBRANCH   9  17
ENDBRANCH   7  11
ENDBRANCH   1   8
BRANCH   6  21
ATOM     21  O   UNL     1       0.115  -8.476  -0.148  0.00  0.00    -0.506 OA
ATOM     22  H   UNL     1       0.994  -8.266  -0.492  0.00  0.00    +0.292 HD
ENDBRANCH   6  21
BRANCH   3  23
ATOM     23  N   UNL     1       0.164 -11.263   4.598  0.00  0.00    -0.149 NA
ATOM     24  N   UNL     1       0.181 -12.553   4.580  0.00  0.00    -0.149 NA
BRANCH  24  25
ATOM     25  C   UNL     1       0.191 -13.250   5.751  0.00  0.00    +0.094 A 
ATOM     26  C   UNL     1       0.177 -12.586   6.973  0.00  0.00    +0.030 A 
ATOM     27  C   UNL     1       0.187 -13.299   8.163  0.00  0.00    +0.003 A 
ATOM     28  C   UNL     1       0.211 -14.660   8.185  0.00  0.00    +0.008 A 
ATOM     29  C   UNL     1       0.226 -15.396   6.989  0.00  0.00    -0.016 A 
ATOM     30  C   UNL     1       0.210 -14.712   5.749  0.00  0.00    +0.009 A 
ATOM     31  C   UNL     1       0.220 -15.442   4.555  0.00  0.00    +0.010 A 
ATOM     32  C   UNL     1       0.239 -16.804   4.599  0.00  0.00    +0.001 A 
ATOM     33  C   UNL     1       0.248 -17.481   5.816  0.00  0.00    +0.001 A 
ATOM     34  C   UNL     1       0.251 -16.802   6.996  0.00  0.00    +0.008 A 
ENDBRANCH  24  25
ENDBRANCH   3  23
TORSDOF 6
