REMARK  Name = ZINC63514308
REMARK  12 active torsions:
REMARK  status: ('A' for Active; 'I' for Inactive)
REMARK    1  A    between atoms: C_1  and  C_2
REMARK    2  A    between atoms: C_2  and  O_3
REMARK    3  A    between atoms: O_3  and  C_4
REMARK    4  A    between atoms: C_7  and  O_28
REMARK    5  A    between atoms: C_8  and  S_10
REMARK    6  A    between atoms: S_10  and  N_13
REMARK    7  A    between atoms: N_13  and  C_14
REMARK    8  A    between atoms: C_14  and  C_15
REMARK    9  A    between atoms: C_15  and  C_16
REMARK   10  A    between atoms: C_24  and  C_26
REMARK   11  A    between atoms: O_28  and  C_29
REMARK   12  A    between atoms: C_29  and  C_30
REMARK                            x       y       z     vdW  Elec       q    Type
REMARK                         _______ _______ _______ _____ _____    ______ ____
ROOT
ATOM      1  N   UNL     1       1.916  -5.228   4.494  0.00  0.00    -0.190 NA
ATOM      2  H   UNL     1       1.552  -4.922   5.340  0.00  0.00    +0.148 HD
ENDROOT
BRANCH   1   3
ATOM      3  S   UNL     1       3.098  -4.351   3.736  0.00  0.00    +0.062 S 
ATOM      4  O   UNL     1       4.126  -5.269   3.391  0.00  0.00    -0.153 OA
ATOM      5  O   UNL     1       3.338  -3.208   4.545  0.00  0.00    -0.153 OA
BRANCH   3  10
ATOM      6  C   UNL     1       1.623  -1.952   0.865  0.00  0.00    +0.123 A 
ATOM      7  C   UNL     1       1.352  -2.840  -0.165  0.00  0.00    +0.049 A 
ATOM      8  C   UNL     1       1.614  -4.187  -0.003  0.00  0.00    +0.051 A 
ATOM      9  C   UNL     1       2.148  -4.650   1.190  0.00  0.00    +0.147 A 
ATOM     10  C   UNL     1       2.420  -3.762   2.220  0.00  0.00    +0.150 A 
ATOM     11  C   UNL     1       2.163  -2.415   2.056  0.00  0.00    +0.078 A 
BRANCH   6  12
ATOM     12  O   UNL     1       1.365  -0.626   0.705  0.00  0.00    -0.492 OA
BRANCH  12  14
ATOM     13  C   UNL     1       0.590   1.294  -0.540  0.00  0.00    +0.048 C 
ATOM     14  C   UNL     1       0.810  -0.220  -0.547  0.00  0.00    +0.225 C 
ENDBRANCH  12  14
ENDBRANCH   6  12
BRANCH   9  15
ATOM     15  O   UNL     1       2.406  -5.976   1.351  0.00  0.00    -0.490 OA
BRANCH  15  16
ATOM     16  C   UNL     1       2.164  -6.824   0.226  0.00  0.00    +0.226 C 
ATOM     17  C   UNL     1       2.631  -8.245   0.549  0.00  0.00    +0.048 C 
ENDBRANCH  15  16
ENDBRANCH   9  15
ENDBRANCH   3  10
ENDBRANCH   1   3
BRANCH   1  18
ATOM     18  C   UNL     1       1.418  -6.465   3.887  0.00  0.00    +0.110 C 
BRANCH  18  19
ATOM     19  C   UNL     1       0.152  -6.164   3.081  0.00  0.00    +0.050 C 
BRANCH  19  20
ATOM     20  C   UNL     1      -0.416  -7.450   2.540  0.00  0.00    -0.037 C 
ATOM     21  C   UNL     1       0.079  -8.696   2.718  0.00  0.00    +0.000 A 
ATOM     22  C   UNL     1       1.250  -9.207   3.440  0.00  0.00    +0.025 A 
ATOM     23  C   UNL     1       1.493 -10.538   3.438  0.00  0.00    +0.019 A 
ATOM     24  C   UNL     1       0.655 -11.440   2.764  0.00  0.00    +0.017 A 
ATOM     25  C   UNL     1      -0.438 -11.045   2.079  0.00  0.00    +0.027 A 
ATOM     26  C   UNL     1      -0.789  -9.668   2.015  0.00  0.00    +0.043 A 
ATOM     27  N   UNL     1      -1.782  -9.047   1.425  0.00  0.00    -0.378 N 
ATOM     28  C   UNL     1      -1.659  -7.610   1.693  0.00  0.00    +0.103 C 
ATOM     29  C   UNL     1      -2.885  -7.106   2.456  0.00  0.00    +0.035 C 
ATOM     30 BR   UNL     1       3.000 -11.201   4.368  0.00  0.00    -0.050 Br
ATOM     31  H   UNL     1      -2.482  -9.468   0.903  0.00  0.00    +0.160 HD
ENDBRANCH  19  20
ENDBRANCH  18  19
ENDBRANCH   1  18
TORSDOF 9
