REMARK  Name = ZINC39482831
REMARK  7 active torsions:
REMARK  status: ('A' for Active; 'I' for Inactive)
REMARK    1  A    between atoms: C_5  and  C_7
REMARK    2  A    between atoms: C_10  and  S_19
REMARK    3  A    between atoms: N_11  and  C_12
REMARK    4  A    between atoms: S_19  and  C_20
REMARK    5  A    between atoms: C_20  and  C_21
REMARK    6  A    between atoms: N_23  and  C_24
REMARK    7  A    between atoms: C_29  and  N_30
REMARK                            x       y       z     vdW  Elec       q    Type
REMARK                         _______ _______ _______ _____ _____    ______ ____
ROOT
ATOM      1  C   UNL     1       1.279  -2.165  -0.104  0.00  0.00    +0.171 A 
ATOM      2  N   UNL     1       2.346  -2.929  -0.118  0.00  0.00    -0.128 NA
ATOM      3  N   UNL     1       2.001  -4.167  -0.109  0.00  0.00    -0.122 NA
ATOM      4  C   UNL     1       0.691  -4.272  -0.089  0.00  0.00    +0.197 A 
ATOM      5  N   UNL     1       0.184  -3.001  -0.079  0.00  0.00    -0.267 N 
ENDROOT
BRANCH   1  10
ATOM      6  C   UNL     1       0.024   1.374  -0.090  0.00  0.00    +0.001 A 
ATOM      7  C   UNL     1       1.212   2.082  -0.116  0.00  0.00    +0.001 A 
ATOM      8  C   UNL     1       2.423   1.413  -0.138  0.00  0.00    +0.021 A 
ATOM      9  C   UNL     1       2.452   0.033  -0.134  0.00  0.00    +0.052 A 
ATOM     10  C   UNL     1       1.256  -0.687  -0.108  0.00  0.00    +0.038 A 
ATOM     11  C   UNL     1       0.038  -0.005  -0.085  0.00  0.00    +0.013 A 
ATOM     12 CL   UNL     1       3.972  -0.805  -0.163  0.00  0.00    -0.083 Cl
ENDBRANCH   1  10
BRANCH   5  13
ATOM     13  C   UNL     1      -1.168  -2.628  -0.053  0.00  0.00    +0.086 A 
ATOM     14  C   UNL     1      -1.864  -2.452  -1.240  0.00  0.00    +0.029 A 
ATOM     15  C   UNL     1      -3.196  -2.084  -1.211  0.00  0.00    +0.002 A 
ATOM     16  C   UNL     1      -3.836  -1.891  -0.001  0.00  0.00    +0.003 A 
ATOM     17  C   UNL     1      -3.146  -2.066   1.185  0.00  0.00    +0.040 A 
ATOM     18  C   UNL     1      -1.815  -2.439   1.163  0.00  0.00    +0.147 A 
ATOM     19  F   UNL     1      -1.142  -2.615   2.322  0.00  0.00    -0.203 F 
ENDBRANCH   5  13
BRANCH   4  20
ATOM     20  S   UNL     1      -0.238  -5.769  -0.072  0.00  0.00    -0.076 S 
BRANCH  20  21
ATOM     21  C   UNL     1       1.026  -7.070  -0.088  0.00  0.00    +0.173 C 
BRANCH  21  22
ATOM     22  C   UNL     1       0.357  -8.420  -0.074  0.00  0.00    +0.228 C 
ATOM     23  O   UNL     1      -0.853  -8.497  -0.057  0.00  0.00    -0.275 OA
ATOM     24  N   UNL     1       1.104  -9.542  -0.083  0.00  0.00    -0.283 N 
ATOM     25  H   UNL     1       2.068  -9.482  -0.163  0.00  0.00    +0.155 HD
BRANCH  24  26
ATOM     26  C   UNL     1       0.487 -10.794   0.024  0.00  0.00    +0.064 A 
ATOM     27  C   UNL     1      -0.753 -11.011  -0.564  0.00  0.00    +0.025 A 
ATOM     28  C   UNL     1      -1.359 -12.247  -0.457  0.00  0.00    +0.002 A 
ATOM     29  C   UNL     1      -0.733 -13.268   0.235  0.00  0.00    +0.002 A 
ATOM     30  C   UNL     1       0.501 -13.055   0.821  0.00  0.00    +0.034 A 
ATOM     31  C   UNL     1       1.116 -11.823   0.713  0.00  0.00    +0.147 A 
BRANCH  31  32
ATOM     32  N   UNL     1       2.440 -11.597   1.335  0.00  0.00    +0.058 N 
ATOM     33  O   UNL     1       3.030 -12.518   1.850  0.00  0.00    -0.126 OA
ATOM     34  O   UNL     1       2.930 -10.492   1.328  0.00  0.00    -0.126 OA
ENDBRANCH  31  32
ENDBRANCH  24  26
ENDBRANCH  21  22
ENDBRANCH  20  21
ENDBRANCH   4  20
TORSDOF 7
