REMARK  Name = ZINC20333472
REMARK  11 active torsions:
REMARK  status: ('A' for Active; 'I' for Inactive)
REMARK    1  A    between atoms: C_1  and  C_2
REMARK    2  A    between atoms: C_2  and  N_3
REMARK    3  A    between atoms: C_4  and  C_22
REMARK    4  A    between atoms: C_7  and  S_8
REMARK    5  A    between atoms: S_8  and  C_9
REMARK    6  A    between atoms: C_9  and  C_10
REMARK    7  A    between atoms: N_12  and  C_13
REMARK    8  A    between atoms: C_18  and  O_19
REMARK    9  A    between atoms: O_19  and  C_20
REMARK   10  A    between atoms: C_28  and  C_30
REMARK   11  A    between atoms: C_34  and  C_36
REMARK                            x       y       z     vdW  Elec       q    Type
REMARK                         _______ _______ _______ _____ _____    ______ ____
ROOT
ATOM      1  N   UNL     1       2.634   5.102   0.093  0.00  0.00    -0.305 N 
ATOM      2  C   UNL     1       2.041   6.334   0.056  0.00  0.00    +0.155 A 
ATOM      3  N   UNL     1       0.755   6.143  -0.030  0.00  0.00    -0.132 NA
ATOM      4  N   UNL     1       0.497   4.884  -0.055  0.00  0.00    -0.122 NA
ATOM      5  C   UNL     1       1.614   4.198   0.014  0.00  0.00    +0.192 A 
ENDROOT
BRANCH   2   6
ATOM      6  C   UNL     1       2.745   7.665   0.111  0.00  0.00    +0.144 C 
ATOM      7  C   UNL     1       2.718   8.331  -1.282  0.00  0.00    +0.032 C 
ATOM      8  C   UNL     1       2.496   9.829  -0.946  0.00  0.00    +0.021 C 
ATOM      9  C   UNL     1       1.561   9.737   0.285  0.00  0.00    +0.109 C 
ATOM     10  N   UNL     1       2.042   8.564   1.038  0.00  0.00    -0.287 N 
ATOM     11  C   UNL     1       1.867   8.351   2.357  0.00  0.00    +0.247 C 
ATOM     12  O   UNL     1       2.396   7.398   2.894  0.00  0.00    -0.270 OA
BRANCH  11  13
ATOM     13  C   UNL     1       1.031   9.277   3.151  0.00  0.00    +0.037 A 
ATOM     14  C   UNL     1       0.037  10.033   2.527  0.00  0.00    +0.013 A 
ATOM     15  C   UNL     1      -0.740  10.895   3.274  0.00  0.00    +0.001 A 
ATOM     16  C   UNL     1      -0.536  11.010   4.638  0.00  0.00    +0.003 A 
ATOM     17  C   UNL     1       0.448  10.264   5.261  0.00  0.00    -0.050 A 
ATOM     18  C   UNL     1       1.228   9.394   4.527  0.00  0.00    +0.016 A 
ATOM     19  C   UNL     1       0.663  10.396   6.747  0.00  0.00    +0.044 C 
ENDBRANCH  11  13
ENDBRANCH   2   6
BRANCH   1  21
ATOM     20  C   UNL     1       4.668   4.722  -1.212  0.00  0.00    +0.027 C 
ATOM     21  C   UNL     1       4.067   4.812   0.192  0.00  0.00    +0.122 C 
ENDBRANCH   1  21
BRANCH   5  22
ATOM     22  S   UNL     1       1.767   2.443   0.013  0.00  0.00    -0.077 S 
BRANCH  22  23
ATOM     23  C   UNL     1       0.022   1.975  -0.106  0.00  0.00    +0.173 C 
BRANCH  23  24
ATOM     24  C   UNL     1      -0.095   0.473  -0.123  0.00  0.00    +0.228 C 
ATOM     25  O   UNL     1       0.903  -0.214  -0.062  0.00  0.00    -0.275 OA
ATOM     26  N   UNL     1      -1.308  -0.108  -0.207  0.00  0.00    -0.282 N 
ATOM     27  H   UNL     1      -2.217   0.511  -0.170  0.00  0.00    +0.155 HD
BRANCH  26  28
ATOM     28  C   UNL     1      -1.412  -1.498  -0.342  0.00  0.00    +0.077 A 
ATOM     29  C   UNL     1      -0.365  -2.224  -0.892  0.00  0.00    +0.047 A 
ATOM     30  C   UNL     1      -0.468  -3.597  -1.018  0.00  0.00    +0.043 A 
ATOM     31  C   UNL     1      -1.618  -4.249  -0.609  0.00  0.00    +0.024 A 
ATOM     32  C   UNL     1      -2.667  -3.531  -0.065  0.00  0.00    +0.049 A 
ATOM     33  C   UNL     1      -2.569  -2.155   0.070  0.00  0.00    +0.141 A 
ATOM     34 CL   UNL     1       0.846  -4.505  -1.699  0.00  0.00    -0.083 Cl
BRANCH  33  35
ATOM     35  O   UNL     1      -3.600  -1.448   0.605  0.00  0.00    -0.493 OA
ATOM     36  C   UNL     1      -4.755  -2.188   1.006  0.00  0.00    +0.277 C 
ENDBRANCH  33  35
ENDBRANCH  26  28
ENDBRANCH  23  24
ENDBRANCH  22  23
ENDBRANCH   5  22
TORSDOF 8
