REMARK  Name = ZINC20622535
REMARK  5 active torsions:
REMARK  status: ('A' for Active; 'I' for Inactive)
REMARK    1  A    between atoms: C_1  and  C_2
REMARK    2  A    between atoms: C_2  and  C_3
REMARK    3  A    between atoms: C_3  and  C_5
REMARK    4  A    between atoms: C_3  and  N_6
REMARK    5  A    between atoms: C_9  and  C_16
REMARK                            x       y       z     vdW  Elec       q    Type
REMARK                         _______ _______ _______ _____ _____    ______ ____
ROOT
ATOM      1  C   UNL     1      -1.144  -3.539  -0.006  0.00  0.00    +0.018 C 
ATOM      2  C   UNL     1      -0.428  -2.208  -0.005  0.00  0.00    +0.011 A 
ATOM      3  C   UNL     1       0.916  -2.099  -0.016  0.00  0.00    -0.022 A 
ATOM      4  C   UNL     1       1.239  -0.678  -0.013  0.00  0.00    +0.004 A 
ATOM      5  C   UNL     1       2.428   0.055  -0.021  0.00  0.00    +0.030 A 
ATOM      6  C   UNL     1       2.386   1.421  -0.012  0.00  0.00    +0.042 A 
ATOM      7  C   UNL     1       1.168   2.089   0.002  0.00  0.00    +0.022 A 
ATOM      8  C   UNL     1      -0.017   1.387   0.010  0.00  0.00    +0.027 A 
ATOM      9  C   UNL     1       0.002  -0.004   0.002  0.00  0.00    +0.047 A 
ATOM     10  N   UNL     1      -0.988  -0.964   0.006  0.00  0.00    -0.359 N 
ATOM     11  H   UNL     1      -2.082  -0.854   0.016  0.00  0.00    +0.166 HD
ATOM     12 CL   UNL     1       3.866   2.328  -0.021  0.00  0.00    -0.084 Cl
ATOM     13  C   UNL     1       1.853  -3.280  -0.025  0.00  0.00    +0.018 C 
ATOM     14  C   UNL     1       1.047  -4.524   0.372  0.00  0.00    -0.076 C 
ATOM     15  N   UNL     1      -0.190  -4.580  -0.420  0.00  0.00    +0.388 N 
ATOM     16  H   UNL     1      -0.646  -5.572  -0.284  0.00  0.00    -0.084 HD
ATOM     17  H   UNL     1       0.070  -4.439  -1.480  0.00  0.00    -0.084 HD
ENDROOT
BRANCH   1  21
ATOM     18  N   UNL     1      -3.114  -3.284  -3.199  0.00  0.00    -0.258 N 
ATOM     19  C   UNL     1      -2.069  -3.316  -2.350  0.00  0.00    +0.262 A 
ATOM     20  O   UNL     1      -0.931  -3.195  -2.771  0.00  0.00    -0.267 OA
ATOM     21  C   UNL     1      -2.298  -3.495  -0.974  0.00  0.00    +0.073 A 
ATOM     22  C   UNL     1      -3.580  -3.622  -0.527  0.00  0.00    +0.260 A 
ATOM     23  N   UNL     1      -4.616  -3.578  -1.426  0.00  0.00    -0.275 N 
ATOM     24  H   UNL     1      -5.653  -3.679  -1.075  0.00  0.00    +0.173 HD
ATOM     25  C   UNL     1      -4.372  -3.411  -2.739  0.00  0.00    +0.332 A 
ATOM     26  O   UNL     1      -5.303  -3.374  -3.521  0.00  0.00    -0.246 OA
ATOM     27  O   UNL     1      -3.828  -3.790   0.789  0.00  0.00    -0.267 OA
BRANCH  18  28
ATOM     28  C   UNL     1      -2.880  -3.103  -4.634  0.00  0.00    +0.092 C 
ATOM     29  C   UNL     1      -3.437  -4.306  -5.397  0.00  0.00    +0.031 C 
BRANCH  28  31
ATOM     30  C   UNL     1      -2.940  -0.613  -4.437  0.00  0.00    +0.006 C 
ATOM     31  C   UNL     1      -3.582  -1.829  -5.109  0.00  0.00    +0.022 C 
ENDBRANCH  28  31
ENDBRANCH  18  28
ENDBRANCH   1  21
TORSDOF 3
