REMARK  Name = ZINC11027022
REMARK  10 active torsions:
REMARK  status: ('A' for Active; 'I' for Inactive)
REMARK    1  A    between atoms: C_1  and  C_2
REMARK    2  A    between atoms: C_2  and  C_29
REMARK    3  A    between atoms: C_3  and  C_25
REMARK    4  A    between atoms: C_5  and  C_7
REMARK    5  A    between atoms: N_9  and  C_10
REMARK    6  A    between atoms: C_10  and  C_12
REMARK    7  A    between atoms: C_10  and  N_16
REMARK    8  A    between atoms: N_16  and  C_17
REMARK    9  A    between atoms: C_22  and  O_23
REMARK   10  A    between atoms: O_23  and  C_24
REMARK                            x       y       z     vdW  Elec       q    Type
REMARK                         _______ _______ _______ _____ _____    ______ ____
ROOT
ATOM      1  C   UNL     1       3.682   1.832   0.634  0.00  0.00    +0.210 C 
ENDROOT
BRANCH   1   4
ATOM      2  C   UNL     1       1.320   1.603   0.080  0.00  0.00    +0.219 C 
ATOM      3  O   UNL     1       1.400   2.630  -0.560  0.00  0.00    -0.275 OA
ATOM      4  N   UNL     1       2.405   1.118   0.716  0.00  0.00    -0.293 N 
ATOM      5  H   UNL     1       2.340   0.297   1.228  0.00  0.00    +0.151 HD
BRANCH   2   9
ATOM      6  C   UNL     1      -0.959   2.773  -1.347  0.00  0.00    +0.012 C 
ATOM      7  C   UNL     1      -1.189   1.471  -0.577  0.00  0.00    -0.016 C 
ATOM      8  C   UNL     1      -1.125   1.534   0.952  0.00  0.00    +0.033 C 
ATOM      9  C   UNL     1       0.006   0.869   0.165  0.00  0.00    +0.089 C 
ATOM     10  C   UNL     1      -2.193   0.502  -1.203  0.00  0.00    +0.012 C 
BRANCH   8  11
ATOM     11  C   UNL     1      -0.841   2.873   1.582  0.00  0.00    +0.010 C 
ATOM     12  C   UNL     1      -1.712   3.410   2.405  0.00  0.00    +0.103 C 
ATOM     13 CL   UNL     1      -3.191   2.577   2.767  0.00  0.00    -0.071 Cl
ATOM     14 CL   UNL     1      -1.385   4.953   3.131  0.00  0.00    -0.071 Cl
ENDBRANCH   8  11
ENDBRANCH   2   9
ENDBRANCH   1   4
BRANCH   1  15
ATOM     15  C   UNL     1       4.314   1.907   2.025  0.00  0.00    +0.225 C 
ATOM     16 CL   UNL     1       4.597   0.239   2.647  0.00  0.00    -0.080 Cl
ATOM     17 CL   UNL     1       5.886   2.785   1.923  0.00  0.00    -0.080 Cl
ATOM     18 CL   UNL     1       3.206   2.787   3.142  0.00  0.00    -0.080 Cl
ENDBRANCH   1  15
BRANCH   1  19
ATOM     19  N   UNL     1       4.582   1.118  -0.275  0.00  0.00    -0.320 N 
ATOM     20  H   UNL     1       5.020   0.303   0.018  0.00  0.00    +0.148 HD
BRANCH  19  21
ATOM     21  C   UNL     1       4.811   1.611  -1.564  0.00  0.00    +0.071 A 
ATOM     22  C   UNL     1       4.276   2.832  -1.947  0.00  0.00    +0.026 A 
ATOM     23  C   UNL     1       4.503   3.317  -3.221  0.00  0.00    +0.002 A 
ATOM     24  C   UNL     1       5.263   2.587  -4.117  0.00  0.00    +0.004 A 
ATOM     25  C   UNL     1       5.800   1.369  -3.742  0.00  0.00    +0.047 A 
ATOM     26  C   UNL     1       5.582   0.879  -2.465  0.00  0.00    +0.141 A 
BRANCH  26  27
ATOM     27  O   UNL     1       6.114  -0.316  -2.094  0.00  0.00    -0.493 OA
ATOM     28  C   UNL     1       6.893  -1.011  -3.070  0.00  0.00    +0.277 C 
ENDBRANCH  26  27
ENDBRANCH  19  21
ENDBRANCH   1  19
TORSDOF 7
