REMARK  Name = ZINC08328782
REMARK  5 active torsions:
REMARK  status: ('A' for Active; 'I' for Inactive)
REMARK    1  A    between atoms: C_1  and  C_2
REMARK    2  A    between atoms: C_11  and  C_12
REMARK    3  A    between atoms: C_11  and  N_47
REMARK    4  A    between atoms: N_14  and  C_15
REMARK    5  A    between atoms: C_16  and  C_23
REMARK                            x       y       z     vdW  Elec       q    Type
REMARK                         _______ _______ _______ _____ _____    ______ ____
ROOT
ATOM      1  C   UNL     1      -0.018   1.503   0.010  0.00  0.00    +0.201 C 
ATOM      2  O   UNL     1       1.024   2.123   0.004  0.00  0.00    -0.278 OA
ATOM      3  N   UNL     1      -1.195   2.161   0.019  0.00  0.00    -0.281 N 
ATOM      4  H   UNL     1      -2.028   1.664   0.021  0.00  0.00    +0.155 HD
ENDROOT
BRANCH   3   5
ATOM      5  C   UNL     1      -1.213   3.547   0.027  0.00  0.00    +0.084 A 
ATOM      6  C   UNL     1      -2.309   4.393   0.031  0.00  0.00    +0.068 A 
ATOM      7  C   UNL     1      -2.054   5.833   0.042  0.00  0.00    -0.023 A 
ATOM      8  C   UNL     1      -0.755   6.182   0.039  0.00  0.00    -0.004 A 
ATOM      9  S   UNL     1       0.128   4.641   0.026  0.00  0.00    -0.077 S 
ATOM     10  C   UNL     1      -0.573   7.676   0.048  0.00  0.00    +0.043 C 
ATOM     11  C   UNL     1      -1.943   8.232   0.495  0.00  0.00    +0.010 C 
ATOM     12  C   UNL     1      -2.899   7.107   0.051  0.00  0.00    +0.037 C 
BRANCH   6  13
ATOM     13  C   UNL     1      -3.677   3.864   0.028  0.00  0.00    +0.244 C 
ATOM     14  O   UNL     1      -4.245   3.639   1.081  0.00  0.00    -0.270 OA
ATOM     15  N   UNL     1      -4.305   3.626  -1.140  0.00  0.00    -0.325 N 
ATOM     16  H   UNL     1      -3.852   3.805  -1.979  0.00  0.00    +0.145 HD
ATOM     17  H   UNL     1      -5.210   3.276  -1.142  0.00  0.00    +0.145 HD
ENDBRANCH   6  13
ENDBRANCH   3   5
BRANCH   1  18
ATOM     18  C   UNL     1       0.002  -0.004   0.002  0.00  0.00    +0.020 C 
BRANCH  18  28
ATOM     19  C   UNL     1       0.991  -2.250   1.637  0.00  0.00    -0.007 C 
ATOM     20  C   UNL     1       1.462  -1.929   0.217  0.00  0.00    -0.023 C 
ATOM     21  C   UNL     1       2.897  -2.361   0.045  0.00  0.00    +0.005 A 
ATOM     22  C   UNL     1       3.469  -3.512   0.431  0.00  0.00    +0.021 A 
ATOM     23  C   UNL     1       4.827  -3.454   0.055  0.00  0.00    +0.019 A 
ATOM     24  C   UNL     1       5.030  -2.263  -0.550  0.00  0.00    +0.086 A 
ATOM     25  N   UNL     1       3.853  -1.588  -0.562  0.00  0.00    -0.354 N 
ATOM     26  C   UNL     1       3.579  -0.257  -1.116  0.00  0.00    +0.103 C 
ATOM     27  C   UNL     1       2.060  -0.105  -1.270  0.00  0.00    -0.055 C 
ATOM     28  N   UNL     1       1.408  -0.461   0.009  0.00  0.00    +0.392 N 
ATOM     29  H   UNL     1       1.905   0.003   0.777  0.00  0.00    -0.080 HD
ENDBRANCH  18  28
ENDBRANCH   1  18
TORSDOF 4
