REMARK  Name = ZINC39060767
REMARK  1 active torsions:
REMARK  status: ('A' for Active; 'I' for Inactive)
REMARK    1  A    between atoms: C_6  and  C_10
REMARK                            x       y       z     vdW  Elec       q    Type
REMARK                         _______ _______ _______ _____ _____    ______ ____
ROOT
ATOM      1  C   UNL     1      -0.019   1.526   0.010  0.00  0.00    +0.004 C 
ATOM      2  C   UNL     1       1.408   2.078  -0.000  0.00  0.00    +0.031 C 
ATOM      3  C   UNL     1       2.171   1.481  -1.196  0.00  0.00    +0.119 C 
ATOM      4  C   UNL     1       2.298  -0.042  -0.927  0.00  0.00    +0.048 C 
ATOM      5  C   UNL     1       0.831  -0.480  -1.206  0.00  0.00    +0.052 C 
ATOM      6  C   UNL     1       0.002  -0.004   0.002  0.00  0.00    +0.016 C 
ATOM      7  C   UNL     1       0.453   0.429  -2.400  0.00  0.00    +0.174 C 
ATOM      8  O   UNL     1       1.319   1.589  -2.352  0.00  0.00    -0.376 OA
ENDROOT
BRANCH   5   9
ATOM      9  C   UNL     1       0.688  -1.955  -1.481  0.00  0.00    +0.232 C 
ATOM     10  O   UNL     1      -0.008  -2.638  -0.768  0.00  0.00    -0.300 OA
ENDBRANCH   5   9
TORSDOF 1
