REMARK  Name = ZINC12459867
REMARK  6 active torsions:
REMARK  status: ('A' for Active; 'I' for Inactive)
REMARK    1  A    between atoms: C_7  and  C_11
REMARK    2  A    between atoms: C_11  and  C_12
REMARK    3  A    between atoms: C_12  and  C_14
REMARK    4  A    between atoms: C_12  and  N_26
REMARK    5  A    between atoms: N_16  and  C_17
REMARK    6  A    between atoms: C_21  and  N_23
REMARK                            x       y       z     vdW  Elec       q    Type
REMARK                         _______ _______ _______ _____ _____    ______ ____
ROOT
ATOM      1  C   UNL     1       0.237  -3.589  -1.462  0.00  0.00    +0.165 C 
ENDROOT
BRANCH   1   2
ATOM      2  N   UNL     1      -0.552  -2.473  -1.988  0.00  0.00    -0.288 N 
ATOM      3  C   UNL     1      -1.692  -2.103  -1.371  0.00  0.00    +0.298 C 
ATOM      4  O   UNL     1      -2.065  -2.696  -0.377  0.00  0.00    -0.253 OA
ATOM      5  N   UNL     1      -2.418  -1.076  -1.855  0.00  0.00    -0.313 N 
ATOM      6  H   UNL     1      -0.255  -2.000  -2.781  0.00  0.00    +0.151 HD
ATOM      7  H   UNL     1      -2.120  -0.603  -2.648  0.00  0.00    +0.146 HD
ATOM      8  H   UNL     1      -3.238  -0.810  -1.411  0.00  0.00    +0.146 HD
ENDBRANCH   1   2
BRANCH   1   9
ATOM      9  C   UNL     1      -0.602  -4.842  -1.464  0.00  0.00    +0.238 C 
ATOM     10  O   UNL     1      -1.811  -4.762  -1.509  0.00  0.00    -0.273 OA
ATOM     11  N   UNL     1      -0.007  -6.050  -1.416  0.00  0.00    -0.284 N 
ATOM     12  H   UNL     1       0.960  -6.117  -1.447  0.00  0.00    +0.155 HD
BRANCH  11  13
ATOM     13  C   UNL     1      -0.785  -7.209  -1.320  0.00  0.00    +0.036 A 
ATOM     14  C   UNL     1      -0.333  -8.292  -0.576  0.00  0.00    +0.023 A 
ATOM     15  C   UNL     1      -1.103  -9.434  -0.484  0.00  0.00    +0.004 A 
ATOM     16  C   UNL     1      -2.324  -9.501  -1.131  0.00  0.00    +0.033 A 
ATOM     17  C   UNL     1      -2.777  -8.425  -1.872  0.00  0.00    +0.128 A 
ATOM     18  C   UNL     1      -2.014  -7.278  -1.963  0.00  0.00    +0.056 A 
BRANCH  17  19
ATOM     19  N   UNL     1      -4.083  -8.502  -2.563  0.00  0.00    +0.056 N 
ATOM     20  O   UNL     1      -4.754  -9.504  -2.479  0.00  0.00    -0.126 OA
ATOM     21  O   UNL     1      -4.480  -7.562  -3.212  0.00  0.00    -0.126 OA
ENDBRANCH  17  19
ENDBRANCH  11  13
ENDBRANCH   1   9
BRANCH   1  22
ATOM     22  C   UNL     1       0.677  -3.273  -0.032  0.00  0.00    +0.069 C 
BRANCH  22  29
ATOM     23  C   UNL     1      -0.004   1.365  -0.006  0.00  0.00    +0.001 A 
ATOM     24  C   UNL     1       1.183   2.086  -0.023  0.00  0.00    +0.002 A 
ATOM     25  C   UNL     1       2.398   1.438  -0.046  0.00  0.00    +0.026 A 
ATOM     26  C   UNL     1       2.440   0.048  -0.051  0.00  0.00    +0.047 A 
ATOM     27  C   UNL     1       1.235  -0.678  -0.033  0.00  0.00    +0.003 A 
ATOM     28  C   UNL     1       0.014  -0.001  -0.011  0.00  0.00    +0.010 A 
ATOM     29  C   UNL     1       1.615  -2.093  -0.044  0.00  0.00    -0.020 A 
ATOM     30  C   UNL     1       2.956  -2.139  -0.067  0.00  0.00    +0.087 A 
ATOM     31  N   UNL     1       3.467  -0.870  -0.072  0.00  0.00    -0.360 N 
ATOM     32  H   UNL     1       4.411  -0.649  -0.087  0.00  0.00    +0.165 HD
ENDBRANCH  22  29
ENDBRANCH   1  22
TORSDOF 6
