REMARK  Name = ZINC12703959
REMARK  9 active torsions:
REMARK  status: ('A' for Active; 'I' for Inactive)
REMARK    1  A    between atoms: C_1  and  C_2
REMARK    2  A    between atoms: C_5  and  C_7
REMARK    3  A    between atoms: C_7  and  C_9
REMARK    4  A    between atoms: C_7  and  N_17
REMARK    5  A    between atoms: N_11  and  C_12
REMARK    6  A    between atoms: N_17  and  C_18
REMARK    7  A    between atoms: C_25  and  C_27
REMARK    8  A    between atoms: C_27  and  N_28
REMARK    9  A    between atoms: C_30  and  C_33
REMARK                            x       y       z     vdW  Elec       q    Type
REMARK                         _______ _______ _______ _____ _____    ______ ____
ROOT
ATOM      1  N   UNL     1      -4.619   1.736   2.528  0.00  0.00    -0.248 N 
ATOM      2  C   UNL     1      -5.426   1.013   3.330  0.00  0.00    +0.244 C 
ATOM      3  O   UNL     1      -5.312   1.092   4.535  0.00  0.00    -0.273 OA
ENDROOT
BRANCH   1   4
ATOM      4  C   UNL     1      -4.750   1.644   1.137  0.00  0.00    +0.073 A 
ATOM      5  C   UNL     1      -4.075   0.652   0.439  0.00  0.00    +0.026 A 
ATOM      6  C   UNL     1      -4.206   0.564  -0.934  0.00  0.00    +0.002 A 
ATOM      7  C   UNL     1      -5.010   1.461  -1.613  0.00  0.00    +0.003 A 
ATOM      8  C   UNL     1      -5.684   2.451  -0.922  0.00  0.00    +0.040 A 
ATOM      9  C   UNL     1      -5.561   2.542   0.452  0.00  0.00    +0.145 A 
ATOM     10  F   UNL     1      -6.224   3.506   1.128  0.00  0.00    -0.204 F 
ENDBRANCH   1   4
BRANCH   1  11
ATOM     11  C   UNL     1      -3.605   2.618   3.112  0.00  0.00    +0.233 C 
BRANCH  11  16
ATOM     12  C   UNL     1      -6.802   4.858   6.306  0.00  0.00    +0.086 C 
ATOM     13  C   UNL     1      -5.670   4.652   5.332  0.00  0.00    +0.102 A 
ATOM     14  C   UNL     1      -4.822   5.602   4.900  0.00  0.00    +0.045 A 
ATOM     15  C   UNL     1      -3.925   4.974   4.005  0.00  0.00    +0.047 A 
ATOM     16  C   UNL     1      -4.280   3.678   3.943  0.00  0.00    +0.135 A 
ATOM     17  O   UNL     1      -5.334   3.487   4.754  0.00  0.00    -0.462 OA
ENDBRANCH  11  16
BRANCH  11  18
ATOM     18  C   UNL     1      -2.678   1.810   3.983  0.00  0.00    +0.242 C 
ATOM     19  O   UNL     1      -2.930   0.648   4.222  0.00  0.00    -0.273 OA
ATOM     20  N   UNL     1      -1.570   2.379   4.497  0.00  0.00    -0.311 N 
ATOM     21  H   UNL     1      -1.369   3.308   4.306  0.00  0.00    +0.149 HD
BRANCH  20  22
ATOM     22  C   UNL     1      -0.669   1.594   5.345  0.00  0.00    +0.073 C 
ATOM     23  C   UNL     1      -1.127   1.670   6.816  0.00  0.00    +0.022 C 
ATOM     24  C   UNL     1       0.194   1.715   7.623  0.00  0.00    +0.002 C 
ATOM     25  C   UNL     1       1.106   2.600   6.737  0.00  0.00    +0.002 C 
ATOM     26  C   UNL     1       0.751   2.186   5.295  0.00  0.00    +0.022 C 
ENDBRANCH  20  22
ENDBRANCH  11  18
ENDBRANCH   1  11
BRANCH   2  27
ATOM     27  C   UNL     1      -6.468   0.106   2.730  0.00  0.00    +0.264 C 
BRANCH  27  28
ATOM     28  N   UNL     1      -7.209  -0.564   3.802  0.00  0.00    -0.154 N 
ATOM     29  N   UNL     1      -6.895  -1.696   4.331  0.00  0.00    -0.130 NA
ATOM     30  C   UNL     1      -7.790  -1.970   5.258  0.00  0.00    +0.205 A 
ATOM     31  N   UNL     1      -8.665  -0.955   5.260  0.00  0.00    -0.108 NA
ATOM     32  N   UNL     1      -8.279  -0.116   4.360  0.00  0.00    -0.045 NA
BRANCH  30  33
ATOM     33  C   UNL     1      -7.825  -3.173   6.128  0.00  0.00    +0.023 A 
ATOM     34  C   UNL     1      -6.843  -4.153   6.005  0.00  0.00    +0.014 A 
ATOM     35  C   UNL     1      -6.877  -5.267   6.819  0.00  0.00    +0.039 A 
ATOM     36  C   UNL     1      -7.892  -5.416   7.750  0.00  0.00    +0.123 A 
ATOM     37  C   UNL     1      -8.874  -4.446   7.872  0.00  0.00    +0.039 A 
ATOM     38  C   UNL     1      -8.844  -3.327   7.066  0.00  0.00    +0.014 A 
ATOM     39  F   UNL     1      -7.925  -6.511   8.542  0.00  0.00    -0.205 F 
ENDBRANCH  30  33
ENDBRANCH  27  28
ENDBRANCH   2  27
TORSDOF 8
