REMARK  Name = ZINC05479500
REMARK  9 active torsions:
REMARK  status: ('A' for Active; 'I' for Inactive)
REMARK    1  A    between atoms: C_1  and  C_2
REMARK    2  A    between atoms: C_2  and  C_3
REMARK    3  A    between atoms: C_4  and  C_11
REMARK    4  A    between atoms: C_5  and  N_10
REMARK    5  A    between atoms: C_14  and  N_20
REMARK    6  A    between atoms: C_15  and  N_17
REMARK    7  A    between atoms: N_20  and  C_21
REMARK    8  A    between atoms: C_21  and  C_22
REMARK    9  A    between atoms: C_22  and  C_23
REMARK                            x       y       z     vdW  Elec       q    Type
REMARK                         _______ _______ _______ _____ _____    ______ ____
ROOT
ATOM      1  C   UNL     1      -1.237  -0.418  -2.598  0.00  0.00    -0.011 A 
ATOM      2  C   UNL     1      -0.817   0.896  -2.795  0.00  0.00    +0.010 A 
ATOM      3  C   UNL     1      -0.158   1.241  -3.956  0.00  0.00    +0.026 A 
ATOM      4  C   UNL     1       0.087   0.280  -4.929  0.00  0.00    +0.058 A 
ATOM      5  C   UNL     1      -0.331  -1.031  -4.735  0.00  0.00    +0.147 A 
ATOM      6  C   UNL     1      -0.985  -1.382  -3.573  0.00  0.00    +0.043 A 
ENDROOT
BRANCH   1   8
ATOM      7  C   UNL     1      -1.286  -0.787  -0.124  0.00  0.00    +0.029 A 
ATOM      8  C   UNL     1      -1.947  -0.792  -1.350  0.00  0.00    +0.041 A 
ATOM      9  C   UNL     1      -3.304  -1.160  -1.374  0.00  0.00    +0.129 A 
ATOM     10  N   UNL     1      -3.901  -1.486  -0.233  0.00  0.00    -0.201 NA
ATOM     11  C   UNL     1      -3.232  -1.467   0.910  0.00  0.00    +0.192 A 
ATOM     12  N   UNL     1      -1.951  -1.131   0.967  0.00  0.00    -0.331 N 
ATOM     13  N   UNL     1      -3.888  -1.814   2.078  0.00  0.00    -0.329 N 
ATOM     14  H   UNL     1      -4.825  -2.066   2.051  0.00  0.00    +0.145 HD
ATOM     15  H   UNL     1      -3.412  -1.805   2.923  0.00  0.00    +0.145 HD
ATOM     16  H   UNL     1      -1.495  -1.133   1.823  0.00  0.00    +0.168 HD
BRANCH   9  17
ATOM     17  N   UNL     1      -4.007  -1.181  -2.566  0.00  0.00    -0.343 N 
ATOM     18  H   UNL     1      -3.564  -0.940  -3.395  0.00  0.00    +0.144 HD
ATOM     19  H   UNL     1      -4.943  -1.435  -2.573  0.00  0.00    +0.144 HD
ENDBRANCH   9  17
BRANCH   7  21
ATOM     20  C   UNL     1       1.036  -1.594  -0.444  0.00  0.00    +0.010 C 
ATOM     21  C   UNL     1       0.168  -0.401  -0.041  0.00  0.00    +0.050 C 
ENDBRANCH   7  21
ENDBRANCH   1   8
BRANCH   5  22
ATOM     22  N   UNL     1      -0.069  -2.053  -5.774  0.00  0.00    +0.058 N 
ATOM     23  O   UNL     1      -0.890  -2.913  -5.996  0.00  0.00    -0.126 OA
ATOM     24  O   UNL     1       0.965  -2.027  -6.400  0.00  0.00    -0.126 OA
ENDBRANCH   5  22
BRANCH   4  25
ATOM     25  N   UNL     1       0.755   0.631  -6.105  0.00  0.00    -0.342 N 
ATOM     26  H   UNL     1       0.979  -0.050  -6.758  0.00  0.00    +0.146 HD
BRANCH  25  27
ATOM     27  C   UNL     1       1.117   2.029  -6.351  0.00  0.00    +0.106 C 
BRANCH  27  28
ATOM     28  C   UNL     1       1.833   2.141  -7.699  0.00  0.00    +0.054 C 
BRANCH  28  29
ATOM     29  C   UNL     1       2.206   3.579  -7.952  0.00  0.00    -0.046 A 
ATOM     30  C   UNL     1       1.323   4.416  -8.608  0.00  0.00    +0.004 A 
ATOM     31  C   UNL     1       1.664   5.735  -8.841  0.00  0.00    +0.000 A 
ATOM     32  C   UNL     1       2.888   6.217  -8.417  0.00  0.00    +0.000 A 
ATOM     33  C   UNL     1       3.771   5.380  -7.760  0.00  0.00    +0.000 A 
ATOM     34  C   UNL     1       3.428   4.062  -7.524  0.00  0.00    +0.004 A 
ENDBRANCH  28  29
ENDBRANCH  27  28
ENDBRANCH  25  27
ENDBRANCH   4  25
TORSDOF 8
