REMARK  Name = ZINC39661025
REMARK  3 active torsions:
REMARK  status: ('A' for Active; 'I' for Inactive)
REMARK    1  A    between atoms: C_4  and  C_8
REMARK    2  A    between atoms: C_12  and  C_21
REMARK    3  A    between atoms: N_23  and  C_24
REMARK                            x       y       z     vdW  Elec       q    Type
REMARK                         _______ _______ _______ _____ _____    ______ ____
ROOT
ATOM      1  C   UNL     1       3.480  -0.660  -0.131  0.00  0.00    +0.249 C 
ATOM      2  O   UNL     1       3.952  -0.952   0.950  0.00  0.00    -0.270 OA
ATOM      3  N   UNL     1       4.133  -0.989  -1.263  0.00  0.00    -0.296 N 
ATOM      4  C   UNL     1       3.724  -0.716  -2.660  0.00  0.00    +0.121 C 
ATOM      5  C   UNL     1       5.035  -0.340  -3.385  0.00  0.00    +0.100 C 
ATOM      6  C   UNL     1       6.147  -0.995  -2.549  0.00  0.00    -0.004 C 
ATOM      7  C   UNL     1       5.427  -1.701  -1.391  0.00  0.00    +0.115 C 
ATOM      8  C   UNL     1       7.094   0.070  -2.002  0.00  0.00    -0.010 C 
ATOM      9  C   UNL     1       8.223  -0.610  -1.222  0.00  0.00    -0.082 C 
ATOM     10  N   UNL     1       8.947  -1.530  -2.107  0.00  0.00    +0.379 N 
ATOM     11  C   UNL     1       8.052  -2.604  -2.554  0.00  0.00    -0.082 C 
ATOM     12  C   UNL     1       6.916  -2.009  -3.391  0.00  0.00    -0.010 C 
ATOM     13  H   UNL     1       9.289  -1.023  -2.910  0.00  0.00    -0.086 HD
ATOM     14  H   UNL     1       9.727  -1.931  -1.608  0.00  0.00    -0.086 HD
ENDROOT
BRANCH   1  18
ATOM     15  C   UNL     1      -0.231   1.397  -0.344  0.00  0.00    +0.003 A 
ATOM     16  C   UNL     1       0.951   2.114  -0.279  0.00  0.00    +0.021 A 
ATOM     17  C   UNL     1       2.161   1.452  -0.209  0.00  0.00    +0.054 A 
ATOM     18  C   UNL     1       2.190   0.055  -0.204  0.00  0.00    +0.073 A 
ATOM     19  C   UNL     1       0.992  -0.662  -0.270  0.00  0.00    +0.054 A 
ATOM     20  C   UNL     1      -0.210   0.014  -0.339  0.00  0.00    +0.021 A 
ATOM     21 CL   UNL     1       1.015  -2.398  -0.265  0.00  0.00    -0.083 Cl
ATOM     22 CL   UNL     1       3.642   2.354  -0.129  0.00  0.00    -0.083 Cl
ENDBRANCH   1  18
BRANCH   5  23
ATOM     23  C   UNL     1       5.209   1.156  -3.414  0.00  0.00    +0.219 C 
ATOM     24  O   UNL     1       4.734   1.839  -2.532  0.00  0.00    -0.275 OA
ATOM     25  N   UNL     1       5.893   1.736  -4.421  0.00  0.00    -0.304 N 
ATOM     26  H   UNL     1       6.273   1.190  -5.127  0.00  0.00    +0.149 HD
BRANCH  25  27
ATOM     27  C   UNL     1       6.062   3.191  -4.449  0.00  0.00    +0.151 C 
ATOM     28  C   UNL     1       6.235   3.644  -5.900  0.00  0.00    +0.042 C 
ATOM     29  C   UNL     1       6.968   5.006  -5.883  0.00  0.00    +0.079 C 
ATOM     30  S   UNL     1       7.980   4.866  -4.360  0.00  0.00    -0.086 S 
ATOM     31  C   UNL     1       7.252   3.564  -3.596  0.00  0.00    +0.209 C 
ATOM     32  O   UNL     1       7.608   3.030  -2.566  0.00  0.00    -0.283 OA
ENDBRANCH  25  27
ENDBRANCH   5  23
TORSDOF 3
