REMARK  Name = ZINC00799840
REMARK  5 active torsions:
REMARK  status: ('A' for Active; 'I' for Inactive)
REMARK    1  A    between atoms: C_1  and  C_2
REMARK    2  A    between atoms: C_3  and  C_17
REMARK    3  A    between atoms: C_4  and  C_10
REMARK    4  A    between atoms: C_13  and  O_16
REMARK    5  A    between atoms: N_19  and  C_20
REMARK                            x       y       z     vdW  Elec       q    Type
REMARK                         _______ _______ _______ _____ _____    ______ ____
ROOT
ATOM      1  C   UNL     1      -1.447   7.422   2.368  0.00  0.00    +0.061 C 
ATOM      2  C   UNL     1      -1.231   6.590   1.130  0.00  0.00    +0.017 C 
ATOM      3  C   UNL     1      -0.330   5.585   1.153  0.00  0.00    +0.056 C 
ATOM      4  C   UNL     1      -0.145   4.775  -0.113  0.00  0.00    +0.139 C 
ATOM      5  N   UNL     1      -0.968   5.153  -1.274  0.00  0.00    -0.315 N 
ATOM      6  C   UNL     1      -1.826   6.183  -1.143  0.00  0.00    +0.135 C 
ATOM      7  S   UNL     1      -2.791   6.634  -2.484  0.00  0.00    -0.019 S 
ATOM      8  N   UNL     1      -1.950   6.867   0.002  0.00  0.00    -0.300 N 
ATOM      9  H   UNL     1      -0.894   4.672  -2.113  0.00  0.00    +0.149 HD
ATOM     10  H   UNL     1      -2.586   7.599   0.032  0.00  0.00    +0.154 HD
ENDROOT
BRANCH   4  11
ATOM     11  C   UNL     1      -0.434   3.332   0.212  0.00  0.00    -0.022 A 
ATOM     12  C   UNL     1       0.605   2.468   0.504  0.00  0.00    +0.009 A 
ATOM     13  C   UNL     1       0.342   1.145   0.803  0.00  0.00    +0.046 A 
ATOM     14  C   UNL     1      -0.967   0.684   0.809  0.00  0.00    +0.117 A 
ATOM     15  C   UNL     1      -2.007   1.551   0.511  0.00  0.00    +0.046 A 
ATOM     16  C   UNL     1      -1.739   2.874   0.218  0.00  0.00    +0.009 A 
BRANCH  14  17
ATOM     17  O   UNL     1      -1.228  -0.617   1.103  0.00  0.00    -0.507 OA
ATOM     18  H   UNL     1      -1.372  -0.787   2.044  0.00  0.00    +0.292 HD
ENDBRANCH  14  17
ENDBRANCH   4  11
BRANCH   3  19
ATOM     19  C   UNL     1       0.415   5.298   2.322  0.00  0.00    +0.248 C 
ATOM     20  O   UNL     1       1.600   5.574   2.372  0.00  0.00    -0.270 OA
ATOM     21  N   UNL     1      -0.186   4.719   3.380  0.00  0.00    -0.282 N 
ATOM     22  H   UNL     1      -1.147   4.583   3.378  0.00  0.00    +0.155 HD
BRANCH  21  23
ATOM     23  C   UNL     1       0.574   4.314   4.482  0.00  0.00    +0.034 A 
ATOM     24  C   UNL     1       1.679   5.058   4.877  0.00  0.00    +0.025 A 
ATOM     25  C   UNL     1       2.425   4.658   5.968  0.00  0.00    +0.022 A 
ATOM     26  C   UNL     1       2.079   3.512   6.662  0.00  0.00    +0.041 A 
ATOM     27  C   UNL     1       0.982   2.766   6.268  0.00  0.00    +0.022 A 
ATOM     28  C   UNL     1       0.229   3.164   5.181  0.00  0.00    +0.025 A 
ATOM     29 CL   UNL     1       3.023   3.009   8.030  0.00  0.00    -0.084 Cl
ENDBRANCH  21  23
ENDBRANCH   3  19
TORSDOF 4
