REMARK  Name = ZINC38546481
REMARK  8 active torsions:
REMARK  status: ('A' for Active; 'I' for Inactive)
REMARK    1  A    between atoms: C_1  and  C_2
REMARK    2  A    between atoms: C_2  and  C_3
REMARK    3  A    between atoms: C_5  and  C_16
REMARK    4  A    between atoms: C_6  and  N_8
REMARK    5  A    between atoms: C_9  and  C_11
REMARK    6  A    between atoms: C_16  and  C_18
REMARK    7  A    between atoms: C_16  and  N_26
REMARK    8  A    between atoms: N_29  and  C_32
REMARK                            x       y       z     vdW  Elec       q    Type
REMARK                         _______ _______ _______ _____ _____    ______ ____
ROOT
ATOM      1  C   UNL     1      -4.258  -1.662  -2.033  0.00  0.00    +0.121 C 
ENDROOT
BRANCH   1   2
ATOM      2  C   UNL     1      -4.127  -3.137  -2.313  0.00  0.00    -0.007 A 
ATOM      3  C   UNL     1      -3.129  -3.595  -3.152  0.00  0.00    +0.008 A 
ATOM      4  C   UNL     1      -3.008  -4.947  -3.410  0.00  0.00    +0.020 A 
ATOM      5  C   UNL     1      -3.887  -5.844  -2.828  0.00  0.00    +0.042 A 
ATOM      6  C   UNL     1      -4.886  -5.386  -1.988  0.00  0.00    +0.040 A 
ATOM      7  C   UNL     1      -5.003  -4.033  -1.727  0.00  0.00    +0.047 A 
ATOM      8 CL   UNL     1      -6.253  -3.458  -0.668  0.00  0.00    -0.083 Cl
ATOM      9 CL   UNL     1      -3.736  -7.543  -3.152  0.00  0.00    -0.083 Cl
ENDBRANCH   1   2
BRANCH   1  10
ATOM     10  N   UNL     1      -3.713  -0.898  -3.164  0.00  0.00    -0.295 NA
ATOM     11  C   UNL     1      -3.744   0.545  -2.888  0.00  0.00    +0.067 C 
ATOM     12  C   UNL     1      -3.115   1.299  -4.062  0.00  0.00    -0.064 C 
ATOM     13  N   UNL     1      -3.862   1.002  -5.291  0.00  0.00    +0.379 N 
ATOM     14  C   UNL     1      -3.802  -0.440  -5.567  0.00  0.00    -0.064 C 
ATOM     15  C   UNL     1      -4.437  -1.208  -4.405  0.00  0.00    +0.067 C 
ATOM     16  C   UNL     1      -3.269   1.740  -6.414  0.00  0.00    -0.096 C 
ATOM     17  H   UNL     1      -4.825   1.282  -5.176  0.00  0.00    -0.082 HD
ENDBRANCH   1  10
BRANCH   1  20
ATOM     18  C   UNL     1      -3.440  -0.788   1.518  0.00  0.00    -0.008 A 
ATOM     19  C   UNL     1      -4.158  -1.094   0.411  0.00  0.00    +0.018 A 
ATOM     20  C   UNL     1      -3.493  -1.319  -0.780  0.00  0.00    +0.003 A 
ATOM     21  C   UNL     1      -2.134  -1.226  -0.801  0.00  0.00    +0.077 A 
ATOM     22  S   UNL     1      -1.768  -0.802   0.894  0.00  0.00    -0.078 S 
BRANCH  21  23
ATOM     23  N   UNL     1      -1.256  -1.408  -1.872  0.00  0.00    -0.273 N 
ATOM     24  C   UNL     1       0.075  -1.380  -1.664  0.00  0.00    +0.284 C 
ATOM     25  O   UNL     1       0.512  -1.196  -0.543  0.00  0.00    -0.266 OA
ATOM     26  H   UNL     1      -1.604  -1.554  -2.765  0.00  0.00    +0.156 HD
BRANCH  24  27
ATOM     27  C   UNL     1       0.997  -1.571  -2.788  0.00  0.00    +0.189 A 
ATOM     28  C   UNL     1       2.361  -1.572  -2.716  0.00  0.00    +0.054 A 
ATOM     29  C   UNL     1       2.833  -1.789  -4.020  0.00  0.00    +0.042 A 
ATOM     30  C   UNL     1       1.751  -1.910  -4.820  0.00  0.00    +0.196 A 
ATOM     31  O   UNL     1       0.647  -1.783  -4.074  0.00  0.00    -0.458 OA
ENDBRANCH  24  27
ENDBRANCH  21  23
BRANCH  18  33
ATOM     32  C   UNL     1      -3.984  -1.808   3.712  0.00  0.00    +0.009 C 
ATOM     33  C   UNL     1      -3.928  -0.503   2.915  0.00  0.00    +0.039 C 
ENDBRANCH  18  33
ENDBRANCH   1  20
TORSDOF 6
