REMARK  Name = ZINC37204664
REMARK  8 active torsions:
REMARK  status: ('A' for Active; 'I' for Inactive)
REMARK    1  A    between atoms: C_1  and  C_2
REMARK    2  A    between atoms: C_2  and  C_3
REMARK    3  A    between atoms: C_2  and  C_4
REMARK    4  A    between atoms: C_4  and  N_5
REMARK    5  A    between atoms: C_9  and  C_11
REMARK    6  A    between atoms: C_11  and  S_12
REMARK    7  A    between atoms: S_12  and  C_13
REMARK    8  A    between atoms: C_16  and  N_20
REMARK                            x       y       z     vdW  Elec       q    Type
REMARK                         _______ _______ _______ _____ _____    ______ ____
ROOT
ATOM      1  N   UNL     1      -1.416  -1.993  -0.116  0.00  0.00    -0.299 N 
ATOM      2  C   UNL     1      -2.575  -2.682  -0.130  0.00  0.00    +0.306 C 
ATOM      3  O   UNL     1      -3.634  -2.092  -0.036  0.00  0.00    -0.252 OA
ATOM      4  N   UNL     1      -2.559  -4.024  -0.248  0.00  0.00    -0.240 N 
ATOM      5  C   UNL     1      -3.718  -4.713  -0.262  0.00  0.00    +0.231 C 
ATOM      6  O   UNL     1      -4.774  -4.125  -0.168  0.00  0.00    -0.274 OA
ATOM      7  H   UNL     1      -0.572  -2.463  -0.190  0.00  0.00    +0.150 HD
ATOM      8  H   UNL     1      -1.714  -4.495  -0.323  0.00  0.00    +0.159 HD
ENDROOT
BRANCH   1   9
ATOM      9  C   UNL     1      -1.433  -0.534   0.013  0.00  0.00    +0.108 C 
BRANCH   9  11
ATOM     10  C   UNL     1      -0.019   1.526   0.010  0.00  0.00    +0.009 C 
ATOM     11  C   UNL     1       0.002  -0.004   0.002  0.00  0.00    -0.000 C 
ATOM     12  C   UNL     1       0.742  -0.511   1.242  0.00  0.00    +0.009 C 
ENDBRANCH   9  11
ENDBRANCH   1   9
BRANCH   5  13
ATOM     13  C   UNL     1      -3.700  -6.214  -0.394  0.00  0.00    +0.170 C 
BRANCH  13  14
ATOM     14  S   UNL     1      -5.402  -6.842  -0.381  0.00  0.00    -0.114 S 
BRANCH  14  15
ATOM     15  C   UNL     1      -5.214  -8.586  -0.541  0.00  0.00    +0.027 A 
ATOM     16  C   UNL     1      -3.945  -9.143  -0.635  0.00  0.00    +0.018 A 
ATOM     17  C   UNL     1      -3.797 -10.510  -0.760  0.00  0.00    +0.024 A 
ATOM     18  C   UNL     1      -4.918 -11.329  -0.792  0.00  0.00    +0.026 A 
ATOM     19  C   UNL     1      -6.188 -10.774  -0.699  0.00  0.00    +0.043 A 
ATOM     20  C   UNL     1      -6.336  -9.407  -0.568  0.00  0.00    +0.056 A 
ATOM     21 CL   UNL     1      -7.922  -8.713  -0.445  0.00  0.00    -0.082 Cl
BRANCH  18  22
ATOM     22  N   UNL     1      -4.768 -12.716  -0.919  0.00  0.00    -0.358 N 
ATOM     23  H   UNL     1      -3.881 -13.103  -0.984  0.00  0.00    +0.142 HD
ATOM     24  H   UNL     1      -5.551 -13.288  -0.942  0.00  0.00    +0.142 HD
ENDBRANCH  18  22
ENDBRANCH  14  15
ENDBRANCH  13  14
ENDBRANCH   5  13
TORSDOF 6
