REMARK  Name = ZINC22426275
REMARK  9 active torsions:
REMARK  status: ('A' for Active; 'I' for Inactive)
REMARK    1  A    between atoms: C_1  and  C_2
REMARK    2  A    between atoms: C_2  and  C_4
REMARK    3  A    between atoms: C_2  and  N_16
REMARK    4  A    between atoms: C_7  and  N_10
REMARK    5  A    between atoms: C_17  and  C_19
REMARK    6  A    between atoms: C_19  and  N_20
REMARK    7  A    between atoms: N_20  and  C_21
REMARK    8  A    between atoms: N_20  and  S_28
REMARK    9  A    between atoms: S_28  and  C_31
REMARK                            x       y       z     vdW  Elec       q    Type
REMARK                         _______ _______ _______ _____ _____    ______ ____
ROOT
ATOM      1  N   UNL     1      -0.288   1.272  -2.443  0.00  0.00    -0.307 N 
ATOM      2  C   UNL     1      -0.742   1.585  -1.213  0.00  0.00    +0.233 C 
ATOM      3  O   UNL     1      -1.736   2.268  -1.088  0.00  0.00    -0.274 OA
ATOM      4  H   UNL     1       0.614   0.653  -2.556  0.00  0.00    +0.149 HD
ENDROOT
BRANCH   1   6
ATOM      5  C   UNL     1      -2.141   0.800  -3.968  0.00  0.00    +0.033 C 
ATOM      6  C   UNL     1      -0.997   1.758  -3.630  0.00  0.00    +0.100 C 
BRANCH   6   7
ATOM      7  C   UNL     1      -0.041   1.828  -4.792  0.00  0.00    -0.027 A 
ATOM      8  C   UNL     1       0.900   0.830  -4.973  0.00  0.00    +0.007 A 
ATOM      9  C   UNL     1       1.774   0.888  -6.040  0.00  0.00    +0.023 A 
ATOM     10  C   UNL     1       1.716   1.956  -6.927  0.00  0.00    +0.030 A 
ATOM     11  C   UNL     1       0.773   2.960  -6.739  0.00  0.00    +0.023 A 
ATOM     12  C   UNL     1      -0.102   2.892  -5.673  0.00  0.00    +0.007 A 
BRANCH  10  13
ATOM     13  N   UNL     1       2.602   2.021  -8.004  0.00  0.00    -0.330 N 
ATOM     14  C   UNL     1       1.877   2.136  -9.276  0.00  0.00    +0.105 C 
ATOM     15  C   UNL     1       2.874   2.350 -10.416  0.00  0.00    +0.019 C 
ATOM     16  C   UNL     1       3.846   1.168 -10.467  0.00  0.00    +0.003 C 
ATOM     17  C   UNL     1       4.553   1.041  -9.114  0.00  0.00    +0.019 C 
ATOM     18  C   UNL     1       3.507   0.865  -8.012  0.00  0.00    +0.105 C 
ENDBRANCH  10  13
ENDBRANCH   6   7
ENDBRANCH   1   6
BRANCH   2  19
ATOM     19  C   UNL     1      -0.013   1.086   0.008  0.00  0.00    +0.227 C 
BRANCH  19  20
ATOM     20  N   UNL     1      -0.698   1.558   1.213  0.00  0.00    -0.191 N 
BRANCH  20  21
ATOM     21  C   UNL     1      -0.414   2.827   1.727  0.00  0.00    +0.087 A 
ATOM     22  C   UNL     1      -1.068   3.944   1.224  0.00  0.00    +0.027 A 
ATOM     23  C   UNL     1      -0.788   5.196   1.737  0.00  0.00    +0.002 A 
ATOM     24  C   UNL     1       0.149   5.340   2.744  0.00  0.00    +0.003 A 
ATOM     25  C   UNL     1       0.806   4.231   3.245  0.00  0.00    +0.040 A 
ATOM     26  C   UNL     1       0.528   2.974   2.740  0.00  0.00    +0.146 A 
ATOM     27  F   UNL     1       1.171   1.891   3.229  0.00  0.00    -0.203 F 
ENDBRANCH  20  21
BRANCH  20  28
ATOM     28  S   UNL     1      -1.810   0.590   1.967  0.00  0.00    +0.081 S 
ATOM     29  O   UNL     1      -2.673   1.452   2.696  0.00  0.00    -0.149 OA
ATOM     30  O   UNL     1      -2.292  -0.317   0.984  0.00  0.00    -0.149 OA
BRANCH  28  31
ATOM     31  C   UNL     1      -0.939  -0.375   3.157  0.00  0.00    +0.146 A 
ATOM     32  C   UNL     1      -0.678  -0.094   4.457  0.00  0.00    +0.036 A 
ATOM     33  C   UNL     1       0.031  -1.010   5.212  0.00  0.00    +0.010 A 
ATOM     34  C   UNL     1       0.444  -2.162   4.629  0.00  0.00    +0.047 A 
ATOM     35  S   UNL     1      -0.178  -1.978   2.966  0.00  0.00    -0.077 S 
ENDBRANCH  28  31
ENDBRANCH  20  28
ENDBRANCH  19  20
ENDBRANCH   2  19
TORSDOF 8
