REMARK  Name = ZINC14915712
REMARK  11 active torsions:
REMARK  status: ('A' for Active; 'I' for Inactive)
REMARK    1  A    between atoms: C_1  and  C_2
REMARK    2  A    between atoms: C_6  and  N_9
REMARK    3  A    between atoms: C_7  and  C_8
REMARK    4  A    between atoms: N_12  and  C_15
REMARK    5  A    between atoms: C_15  and  C_17
REMARK    6  A    between atoms: C_15  and  C_18
REMARK    7  A    between atoms: N_20  and  C_21
REMARK    8  A    between atoms: C_21  and  C_22
REMARK    9  A    between atoms: C_22  and  C_23
REMARK   10  A    between atoms: C_26  and  S_29
REMARK   11  A    between atoms: S_29  and  N_32
REMARK                            x       y       z     vdW  Elec       q    Type
REMARK                         _______ _______ _______ _____ _____    ______ ____
ROOT
ATOM      1  C   UNL     1       1.272  -3.637   7.214  0.00  0.00    +0.230 C 
ATOM      2  O   UNL     1       2.102  -4.181   6.517  0.00  0.00    -0.274 OA
ATOM      3  N   UNL     1       1.427  -3.611   8.552  0.00  0.00    -0.314 N 
ATOM      4  H   UNL     1       0.763  -3.176   9.109  0.00  0.00    +0.149 HD
ENDROOT
BRANCH   1   5
ATOM      5  C   UNL     1       0.065  -2.992   6.583  0.00  0.00    +0.140 C 
ATOM      6  C   UNL     1      -1.171  -3.854   6.847  0.00  0.00    +0.034 C 
BRANCH   5  10
ATOM      7  N   UNL     1      -0.229  -2.982   2.396  0.00  0.00    -0.327 N 
ATOM      8  C   UNL     1       0.594  -4.038   3.006  0.00  0.00    +0.120 C 
ATOM      9  C   UNL     1       0.191  -4.181   4.477  0.00  0.00    +0.104 C 
ATOM     10  N   UNL     1       0.276  -2.870   5.134  0.00  0.00    -0.289 NA
ATOM     11  C   UNL     1      -0.670  -1.914   4.543  0.00  0.00    +0.104 C 
ATOM     12  C   UNL     1      -0.297  -1.677   3.071  0.00  0.00    +0.120 C 
BRANCH   7  18
ATOM     13  C   UNL     1      -4.314  -4.455   0.095  0.00  0.00    +0.044 C 
ATOM     14  C   UNL     1      -2.904  -3.925   0.059  0.00  0.00    -0.046 A 
ATOM     15  C   UNL     1      -2.294  -3.664  -1.155  0.00  0.00    +0.004 A 
ATOM     16  C   UNL     1      -1.000  -3.178  -1.192  0.00  0.00    +0.002 A 
ATOM     17  C   UNL     1      -0.312  -2.951  -0.016  0.00  0.00    +0.023 A 
ATOM     18  C   UNL     1      -0.921  -3.211   1.205  0.00  0.00    +0.033 A 
ATOM     19  C   UNL     1      -2.224  -3.694   1.239  0.00  0.00    -0.027 A 
ATOM     20  C   UNL     1      -2.891  -3.973   2.561  0.00  0.00    +0.046 C 
ENDBRANCH   7  18
ENDBRANCH   5  10
ENDBRANCH   1   5
BRANCH   3  21
ATOM     21  C   UNL     1       2.600  -4.238   9.166  0.00  0.00    +0.109 C 
BRANCH  21  22
ATOM     22  C   UNL     1       2.534  -4.067  10.685  0.00  0.00    +0.054 C 
BRANCH  22  23
ATOM     23  C   UNL     1       3.741  -4.712  11.316  0.00  0.00    -0.046 A 
ATOM     24  C   UNL     1       3.697  -6.042  11.691  0.00  0.00    +0.005 A 
ATOM     25  C   UNL     1       4.803  -6.634  12.270  0.00  0.00    +0.029 A 
ATOM     26  C   UNL     1       5.955  -5.897  12.474  0.00  0.00    +0.105 A 
ATOM     27  C   UNL     1       5.999  -4.567  12.098  0.00  0.00    +0.029 A 
ATOM     28  C   UNL     1       4.894  -3.976  11.515  0.00  0.00    +0.005 A 
BRANCH  26  29
ATOM     29  S   UNL     1       7.365  -6.651  13.213  0.00  0.00    +0.056 S 
ATOM     30  O   UNL     1       8.130  -5.603  13.792  0.00  0.00    -0.153 OA
ATOM     31  O   UNL     1       6.886  -7.753  13.971  0.00  0.00    -0.153 OA
BRANCH  29  32
ATOM     32  N   UNL     1       8.281  -7.283  11.987  0.00  0.00    -0.204 NA
ATOM     33  H   UNL     1       7.989  -7.191  11.066  0.00  0.00    +0.144 HD
ATOM     34  H   UNL     1       9.110  -7.746  12.189  0.00  0.00    +0.144 HD
ENDBRANCH  29  32
ENDBRANCH  26  29
ENDBRANCH  22  23
ENDBRANCH  21  22
ENDBRANCH   3  21
TORSDOF 8
