REMARK  Name = ZINC24090523
REMARK  8 active torsions:
REMARK  status: ('A' for Active; 'I' for Inactive)
REMARK    1  A    between atoms: C_4  and  C_7
REMARK    2  A    between atoms: C_7  and  N_8
REMARK    3  A    between atoms: C_9  and  C_28
REMARK    4  A    between atoms: C_12  and  S_13
REMARK    5  A    between atoms: S_13  and  C_14
REMARK    6  A    between atoms: C_14  and  C_15
REMARK    7  A    between atoms: C_15  and  C_17
REMARK    8  A    between atoms: C_28  and  N_29
REMARK                            x       y       z     vdW  Elec       q    Type
REMARK                         _______ _______ _______ _____ _____    ______ ____
ROOT
ATOM      1  N   UNL     1      -1.754   0.943  -1.872  0.00  0.00    -0.303 N 
ATOM      2  C   UNL     1      -0.742   1.585  -1.213  0.00  0.00    +0.118 A 
ATOM      3  N   UNL     1      -0.520   2.706  -1.840  0.00  0.00    -0.135 NA
ATOM      4  N   UNL     1      -1.321   2.817  -2.839  0.00  0.00    -0.123 NA
ATOM      5  C   UNL     1      -2.102   1.765  -2.905  0.00  0.00    +0.192 A 
ENDROOT
BRANCH   1   6
ATOM      6  C   UNL     1      -2.343  -0.356  -1.536  0.00  0.00    +0.160 C 
BRANCH   6  10
ATOM      7  C   UNL     1      -5.616   0.216   1.149  0.00  0.00    +0.000 A 
ATOM      8  C   UNL     1      -5.833   0.223  -0.217  0.00  0.00    +0.000 A 
ATOM      9  C   UNL     1      -4.774   0.038  -1.086  0.00  0.00    +0.005 A 
ATOM     10  C   UNL     1      -3.498  -0.154  -0.589  0.00  0.00    -0.028 A 
ATOM     11  C   UNL     1      -3.282  -0.165   0.776  0.00  0.00    +0.005 A 
ATOM     12  C   UNL     1      -4.340   0.025   1.645  0.00  0.00    +0.000 A 
ENDBRANCH   6  10
ENDBRANCH   1   6
BRANCH   5  13
ATOM     13  S   UNL     1      -3.359   1.466  -4.103  0.00  0.00    -0.078 S 
BRANCH  13  14
ATOM     14  C   UNL     1      -3.203   2.966  -5.103  0.00  0.00    +0.157 C 
BRANCH  14  15
ATOM     15  C   UNL     1      -4.211   2.930  -6.223  0.00  0.00    +0.173 C 
ATOM     16  O   UNL     1      -4.960   1.983  -6.334  0.00  0.00    -0.291 OA
BRANCH  15  17
ATOM     17  C   UNL     1      -4.285   4.042  -7.180  0.00  0.00    +0.019 A 
ATOM     18  C   UNL     1      -3.420   5.136  -7.054  0.00  0.00    +0.013 A 
ATOM     19  C   UNL     1      -3.490   6.169  -7.944  0.00  0.00    +0.024 A 
ATOM     20  C   UNL     1      -4.420   6.140  -8.981  0.00  0.00    +0.037 A 
ATOM     21  C   UNL     1      -5.283   5.056  -9.114  0.00  0.00    -0.025 A 
ATOM     22  C   UNL     1      -5.216   4.008  -8.226  0.00  0.00    +0.016 A 
ATOM     23  C   UNL     1      -6.287   5.031 -10.238  0.00  0.00    +0.046 C 
ATOM     24  C   UNL     1      -6.765   6.455 -10.527  0.00  0.00    +0.101 C 
ATOM     25  C   UNL     1      -5.581   7.377 -10.647  0.00  0.00    +0.218 C 
ATOM     26  O   UNL     1      -5.615   8.295 -11.439  0.00  0.00    -0.275 OA
ATOM     27  N   UNL     1      -4.487   7.196  -9.886  0.00  0.00    -0.285 N 
ATOM     28  H   UNL     1      -3.640   7.891  -9.984  0.00  0.00    +0.155 HD
ENDBRANCH  15  17
ENDBRANCH  14  15
ENDBRANCH  13  14
ENDBRANCH   5  13
BRANCH   2  29
ATOM     29  C   UNL     1      -0.013   1.086   0.008  0.00  0.00    -0.001 C 
BRANCH  29  30
ATOM     30  N   UNL     1      -0.700   1.560   1.217  0.00  0.00    +0.384 N 
ATOM     31  C   UNL     1      -0.620   3.022   1.329  0.00  0.00    -0.078 C 
ATOM     32  C   UNL     1      -1.466   3.491   2.514  0.00  0.00    -0.019 C 
ATOM     33  C   UNL     1      -0.950   2.833   3.797  0.00  0.00    -0.004 C 
ATOM     34  C   UNL     1      -0.998   1.311   3.635  0.00  0.00    -0.019 C 
ATOM     35  C   UNL     1      -0.165   0.905   2.417  0.00  0.00    -0.078 C 
ATOM     36  H   UNL     1      -1.763   1.288   1.132  0.00  0.00    -0.081 HD
ENDBRANCH  29  30
ENDBRANCH   2  29
TORSDOF 8
