REMARK  Name = ZINC02742202
REMARK  11 active torsions:
REMARK  status: ('A' for Active; 'I' for Inactive)
REMARK    1  A    between atoms: C_1  and  C_2
REMARK    2  A    between atoms: C_2  and  C_3
REMARK    3  A    between atoms: C_3  and  C_4
REMARK    4  A    between atoms: C_3  and  C_5
REMARK    5  A    between atoms: C_3  and  C_6
REMARK    6  A    between atoms: C_13  and  N_19
REMARK    7  A    between atoms: C_14  and  C_15
REMARK    8  A    between atoms: C_15  and  O_17
REMARK    9  A    between atoms: O_17  and  C_18
REMARK   10  A    between atoms: C_20  and  C_22
REMARK   11  A    between atoms: C_25  and  C_27
REMARK                            x       y       z     vdW  Elec       q    Type
REMARK                         _______ _______ _______ _____ _____    ______ ____
ROOT
ATOM      1  C   UNL     1      -1.413  -2.063   0.004  0.00  0.00    -0.000 C 
ATOM      2  C   UNL     1      -2.848  -2.596   0.015  0.00  0.00    +0.009 C 
ATOM      3  C   UNL     1      -2.845  -4.104  -0.241  0.00  0.00    +0.037 C 
ATOM      4  C   UNL     1      -1.884  -4.766   0.739  0.00  0.00    -0.021 A 
ATOM      5  C   UNL     1      -0.941  -4.046   1.382  0.00  0.00    -0.004 A 
ATOM      6  S   UNL     1      -0.084  -5.220   2.393  0.00  0.00    -0.077 S 
ATOM      7  C   UNL     1      -0.965  -6.650   1.969  0.00  0.00    +0.087 A 
ATOM      8  C   UNL     1      -1.902  -6.185   1.054  0.00  0.00    +0.091 A 
ATOM      9  C   UNL     1      -0.686  -2.575   1.256  0.00  0.00    +0.046 C 
ENDROOT
BRANCH   7  10
ATOM     10  N   UNL     1      -0.779  -7.943   2.429  0.00  0.00    -0.273 N 
ATOM     11  C   UNL     1       0.192  -8.207   3.325  0.00  0.00    +0.284 C 
ATOM     12  O   UNL     1       0.906  -7.308   3.731  0.00  0.00    -0.266 OA
ATOM     13  H   UNL     1      -1.349  -8.659   2.106  0.00  0.00    +0.156 HD
BRANCH  11  14
ATOM     14  C   UNL     1       0.388  -9.575   3.812  0.00  0.00    +0.190 A 
ATOM     15  C   UNL     1       1.329  -9.978   4.716  0.00  0.00    +0.055 A 
ATOM     16  C   UNL     1       1.157 -11.360   4.889  0.00  0.00    +0.045 A 
ATOM     17  C   UNL     1       0.130 -11.736   4.094  0.00  0.00    +0.103 A 
ATOM     18  O   UNL     1      -0.334 -10.656   3.451  0.00  0.00    -0.455 OA
ATOM     19  C   UNL     1      -0.407 -13.137   3.958  0.00  0.00    +0.086 C 
ENDBRANCH  11  14
ENDBRANCH   7  10
BRANCH   1  20
ATOM     20  C   UNL     1      -1.433  -0.534   0.013  0.00  0.00    -0.032 C 
ATOM     21  C   UNL     1      -2.149  -0.040   1.272  0.00  0.00    +0.011 C 
ATOM     22  C   UNL     1      -2.173  -0.027  -1.227  0.00  0.00    +0.011 C 
BRANCH  20  24
ATOM     23  C   UNL     1      -0.019   1.526   0.010  0.00  0.00    +0.004 C 
ATOM     24  C   UNL     1       0.002  -0.004   0.002  0.00  0.00    +0.003 C 
ENDBRANCH  20  24
ENDBRANCH   1  20
BRANCH   8  25
ATOM     25  C   UNL     1      -2.870  -7.090   0.432  0.00  0.00    +0.342 C 
ATOM     26  O   UNL     1      -2.597  -7.649  -0.613  0.00  0.00    -0.245 OA
BRANCH  25  27
ATOM     27  O   UNL     1      -4.066  -7.304   1.018  0.00  0.00    -0.464 OA
ATOM     28  C   UNL     1      -4.977  -8.213   0.346  0.00  0.00    +0.280 C 
ENDBRANCH  25  27
ENDBRANCH   8  25
TORSDOF 6
