REMARK  Name = ZINC08682382
REMARK  8 active torsions:
REMARK  status: ('A' for Active; 'I' for Inactive)
REMARK    1  A    between atoms: C_3  and  S_23
REMARK    2  A    between atoms: C_6  and  C_7
REMARK    3  A    between atoms: C_7  and  C_8
REMARK    4  A    between atoms: C_8  and  N_9
REMARK    5  A    between atoms: N_11  and  C_12
REMARK    6  A    between atoms: C_15  and  S_18
REMARK    7  A    between atoms: S_18  and  N_21
REMARK    8  A    between atoms: S_23  and  N_26
REMARK                            x       y       z     vdW  Elec       q    Type
REMARK                         _______ _______ _______ _____ _____    ______ ____
ROOT
ATOM      1  N   UNL     1      -3.445  -0.608  -1.765  0.00  0.00    -0.367 N 
ATOM      2  C   UNL     1      -3.836  -1.508  -2.716  0.00  0.00    +0.143 C 
ATOM      3  N   UNL     1      -3.026  -1.765  -3.788  0.00  0.00    -0.295 N 
ATOM      4  S   UNL     1      -5.293  -2.289  -2.570  0.00  0.00    -0.016 SA
ATOM      5  H   UNL     1      -2.067  -1.642  -3.713  0.00  0.00    +0.154 HD
ATOM      6  H   UNL     1      -4.019  -0.426  -1.004  0.00  0.00    +0.161 HD
ENDROOT
BRANCH   3   7
ATOM      7  C   UNL     1      -3.582  -2.205  -4.995  0.00  0.00    +0.033 A 
ATOM      8  C   UNL     1      -2.871  -3.074  -5.812  0.00  0.00    +0.025 A 
ATOM      9  C   UNL     1      -3.422  -3.507  -7.002  0.00  0.00    +0.030 A 
ATOM     10  C   UNL     1      -4.681  -3.076  -7.380  0.00  0.00    +0.105 A 
ATOM     11  C   UNL     1      -5.391  -2.211  -6.568  0.00  0.00    +0.030 A 
ATOM     12  C   UNL     1      -4.848  -1.779  -5.374  0.00  0.00    +0.025 A 
BRANCH  10  13
ATOM     13  S   UNL     1      -5.380  -3.630  -8.899  0.00  0.00    +0.056 S 
ATOM     14  O   UNL     1      -6.339  -2.655  -9.285  0.00  0.00    -0.153 OA
ATOM     15  O   UNL     1      -4.293  -4.001  -9.736  0.00  0.00    -0.153 OA
BRANCH  13  16
ATOM     16  N   UNL     1      -6.222  -5.018  -8.574  0.00  0.00    -0.204 NA
ATOM     17  H   UNL     1      -6.251  -5.367  -7.669  0.00  0.00    +0.144 HD
ATOM     18  H   UNL     1      -6.685  -5.484  -9.288  0.00  0.00    +0.144 HD
ENDBRANCH  13  16
ENDBRANCH  10  13
ENDBRANCH   3   7
BRANCH   1  19
ATOM     19  C   UNL     1      -2.159   0.081  -1.893  0.00  0.00    +0.119 C 
BRANCH  19  20
ATOM     20  C   UNL     1      -1.966   1.026  -0.706  0.00  0.00    +0.056 C 
BRANCH  20  26
ATOM     21  C   UNL     1      -0.569   2.940  -1.511  0.00  0.00    +0.005 A 
ATOM     22  C   UNL     1       0.645   3.591  -1.632  0.00  0.00    +0.029 A 
ATOM     23  C   UNL     1       1.784   3.037  -1.080  0.00  0.00    +0.105 A 
ATOM     24  C   UNL     1       1.710   1.832  -0.406  0.00  0.00    +0.029 A 
ATOM     25  C   UNL     1       0.497   1.182  -0.284  0.00  0.00    +0.005 A 
ATOM     26  C   UNL     1      -0.643   1.735  -0.838  0.00  0.00    -0.046 A 
BRANCH  23  27
ATOM     27  S   UNL     1       3.332   3.866  -1.235  0.00  0.00    +0.056 S 
ATOM     28  O   UNL     1       4.340   2.873  -1.103  0.00  0.00    -0.153 OA
ATOM     29  O   UNL     1       3.231   4.702  -2.380  0.00  0.00    -0.153 OA
BRANCH  27  30
ATOM     30  N   UNL     1       3.482   4.870   0.073  0.00  0.00    -0.204 NA
ATOM     31  H   UNL     1       2.778   4.908   0.739  0.00  0.00    +0.144 HD
ATOM     32  H   UNL     1       4.275   5.420   0.173  0.00  0.00    +0.144 HD
ENDBRANCH  27  30
ENDBRANCH  23  27
ENDBRANCH  20  26
ENDBRANCH  19  20
ENDBRANCH   1  19
TORSDOF 8
