REMARK  Name = ZINC09283233
REMARK  14 active torsions:
REMARK  status: ('A' for Active; 'I' for Inactive)
REMARK    1  A    between atoms: C_1  and  C_2
REMARK    2  A    between atoms: C_2  and  C_3
REMARK    3  A    between atoms: C_3  and  C_4
REMARK    4  A    between atoms: C_4  and  N_5
REMARK    5  A    between atoms: C_6  and  C_25
REMARK    6  A    between atoms: C_9  and  S_10
REMARK    7  A    between atoms: S_10  and  C_11
REMARK    8  A    between atoms: C_11  and  C_13
REMARK    9  A    between atoms: C_11  and  C_14
REMARK   10  A    between atoms: C_25  and  C_27
REMARK   11  A    between atoms: C_25  and  N_57
REMARK   12  A    between atoms: C_27  and  C_28
REMARK   13  A    between atoms: C_29  and  N_57
REMARK   14  A    between atoms: C_30  and  N_57
REMARK                            x       y       z     vdW  Elec       q    Type
REMARK                         _______ _______ _______ _____ _____    ______ ____
ROOT
ATOM      1  N   UNL     1       3.428   0.956   1.985  0.00  0.00    -0.307 N 
ATOM      2  C   UNL     1       3.620   0.147   3.071  0.00  0.00    +0.120 A 
ATOM      3  N   UNL     1       2.507  -0.499   3.275  0.00  0.00    -0.135 NA
ATOM      4  N   UNL     1       1.630  -0.153   2.402  0.00  0.00    -0.123 NA
ATOM      5  C   UNL     1       2.143   0.734   1.581  0.00  0.00    +0.192 A 
ENDROOT
BRANCH   1   6
ATOM      6  C   UNL     1       4.400   1.870   1.380  0.00  0.00    +0.125 C 
BRANCH   6   7
ATOM      7  C   UNL     1       4.283   3.247   2.038  0.00  0.00    +0.021 C 
BRANCH   7   9
ATOM      8  C   UNL     1       5.181   5.578   2.065  0.00  0.00    +0.004 C 
ATOM      9  C   UNL     1       5.298   4.202   1.407  0.00  0.00    -0.002 C 
ENDBRANCH   7   9
ENDBRANCH   6   7
ENDBRANCH   1   6
BRANCH   5  10
ATOM     10  S   UNL     1       1.325   1.499   0.221  0.00  0.00    -0.074 S 
BRANCH  10  11
ATOM     11  C   UNL     1      -0.296   0.703   0.341  0.00  0.00    +0.137 C 
ATOM     12  C   UNL     1      -0.975   1.121   1.647  0.00  0.00    +0.029 C 
BRANCH  11  13
ATOM     13  C   UNL     1      -1.150   1.125  -0.827  0.00  0.00    +0.231 C 
ATOM     14  O   UNL     1      -0.877   2.132  -1.445  0.00  0.00    -0.274 OA
ATOM     15  N   UNL     1      -2.218   0.384  -1.184  0.00  0.00    -0.268 N 
ATOM     16  C   UNL     1      -3.009   0.775  -2.264  0.00  0.00    +0.143 A 
ATOM     17  C   UNL     1      -4.106   0.001  -2.631  0.00  0.00    +0.082 A 
ATOM     18  C   UNL     1      -4.886   0.404  -3.701  0.00  0.00    +0.045 A 
ATOM     19  C   UNL     1      -4.533   1.565  -4.378  0.00  0.00    +0.061 A 
ATOM     20  C   UNL     1      -3.426   2.280  -3.963  0.00  0.00    +0.133 A 
ATOM     21  N   UNL     1      -2.705   1.874  -2.935  0.00  0.00    -0.237 NA
ATOM     22 CL   UNL     1      -5.472   2.110  -5.733  0.00  0.00    -0.082 Cl
ATOM     23 CL   UNL     1      -4.496  -1.445  -1.753  0.00  0.00    -0.080 Cl
ATOM     24  H   UNL     1      -2.436  -0.422  -0.689  0.00  0.00    +0.156 HD
ENDBRANCH  11  13
ENDBRANCH  10  11
ENDBRANCH   5  10
BRANCH   2  25
ATOM     25  C   UNL     1       4.884   0.026   3.882  0.00  0.00    +0.000 C 
BRANCH  25  28
ATOM     26  C   UNL     1       5.765  -0.051   6.136  0.00  0.00    -0.096 C 
ATOM     27  C   UNL     1       3.774   1.242   5.658  0.00  0.00    -0.096 C 
ATOM     28  N   UNL     1       4.536   0.021   5.319  0.00  0.00    +0.383 N 
ATOM     29  H   UNL     1       3.954  -0.801   5.518  0.00  0.00    -0.082 HD
ENDBRANCH  25  28
BRANCH  25  30
ATOM     30  C   UNL     1       5.587  -1.289   3.538  0.00  0.00    -0.011 C 
ATOM     31  C   UNL     1       6.049  -1.254   2.080  0.00  0.00    +0.002 C 
ENDBRANCH  25  30
ENDBRANCH   2  25
TORSDOF 9
