REMARK  Name = ZINC43741411
REMARK  7 active torsions:
REMARK  status: ('A' for Active; 'I' for Inactive)
REMARK    1  A    between atoms: C_1  and  C_2
REMARK    2  A    between atoms: N_6  and  N_7
REMARK    3  A    between atoms: N_7  and  C_8
REMARK    4  A    between atoms: C_8  and  N_10
REMARK    5  A    between atoms: C_22  and  C_35
REMARK    6  A    between atoms: C_23  and  O_34
REMARK    7  A    between atoms: C_26  and  C_28
REMARK                            x       y       z     vdW  Elec       q    Type
REMARK                         _______ _______ _______ _____ _____    ______ ____
ROOT
ATOM      1  C   UNL     1       0.146   1.493   0.221  0.00  0.00    +0.012 C 
ATOM      2  C   UNL     1       0.176  -0.036   0.209  0.00  0.00    -0.025 C 
ATOM      3  C   UNL     1       0.935  -0.524  -1.028  0.00  0.00    +0.013 C 
ATOM      4  C   UNL     1       2.347   0.069  -1.033  0.00  0.00    +0.053 C 
ATOM      5  C   UNL     1       3.016  -0.284   0.277  0.00  0.00    +0.037 C 
ATOM      6  N   UNL     1       4.171  -0.836   0.300  0.00  0.00    -0.190 NA
ATOM      7  C   UNL     1       2.282   0.036   1.560  0.00  0.00    +0.056 C 
ATOM      8  C   UNL     1       0.867  -0.543   1.476  0.00  0.00    +0.001 C 
ATOM      9  C   UNL     1       0.083  -0.092   2.710  0.00  0.00    +0.005 C 
ATOM     10  C   UNL     1      -1.344  -0.640   2.646  0.00  0.00    +0.007 C 
ATOM     11  C   UNL     1      -2.033  -0.101   1.390  0.00  0.00    +0.025 C 
ATOM     12  C   UNL     1      -1.255  -0.575   0.153  0.00  0.00    +0.001 C 
ATOM     13  C   UNL     1      -1.931  -0.122  -1.137  0.00  0.00    +0.005 C 
ATOM     14  C   UNL     1      -3.400  -0.575  -1.190  0.00  0.00    +0.010 C 
ATOM     15  C   UNL     1      -4.091  -0.010   0.035  0.00  0.00    +0.004 C 
ATOM     16  C   UNL     1      -3.443  -0.650   1.288  0.00  0.00    +0.075 C 
ATOM     17  C   UNL     1      -4.409  -0.225   2.400  0.00  0.00    +0.036 C 
ATOM     18  C   UNL     1      -5.802  -0.412   1.739  0.00  0.00    +0.011 C 
ATOM     19  C   UNL     1      -5.570  -0.345   0.199  0.00  0.00    +0.027 C 
ATOM     20  C   UNL     1      -3.896   1.507   0.085  0.00  0.00    +0.014 C 
ENDROOT
BRANCH  19  21
ATOM     21  C   UNL     1      -5.884  -1.659  -0.468  0.00  0.00    -0.022 C 
ATOM     22  C   UNL     1      -6.068  -2.832   0.135  0.00  0.00    +0.094 C 
ATOM     23  C   UNL     1      -6.353  -3.851  -0.879  0.00  0.00    +0.332 C 
ATOM     24  O   UNL     1      -6.568  -5.025  -0.648  0.00  0.00    -0.246 OA
ATOM     25  O   UNL     1      -6.342  -3.292  -2.103  0.00  0.00    -0.457 OA
ATOM     26  C   UNL     1      -6.059  -1.898  -1.950  0.00  0.00    +0.264 C 
ENDBRANCH  19  21
BRANCH   6  27
ATOM     27  N   UNL     1       4.789  -1.216  -0.898  0.00  0.00    -0.219 N 
ATOM     28  H   UNL     1       4.378  -0.993  -1.748  0.00  0.00    +0.176 HD
BRANCH  27  29
ATOM     29  C   UNL     1       5.954  -1.893  -0.871  0.00  0.00    +0.147 C 
ATOM     30  S   UNL     1       6.710  -2.358  -2.335  0.00  0.00    -0.017 S 
BRANCH  29  31
ATOM     31  N   UNL     1       6.525  -2.203   0.310  0.00  0.00    -0.339 N 
ATOM     32  H   UNL     1       6.098  -1.939   1.140  0.00  0.00    +0.144 HD
ATOM     33  H   UNL     1       7.364  -2.690   0.330  0.00  0.00    +0.144 HD
ENDBRANCH  29  31
ENDBRANCH  27  29
ENDBRANCH   6  27
BRANCH  16  34
ATOM     34  O   UNL     1      -3.414  -2.072   1.151  0.00  0.00    -0.388 OA
ATOM     35  H   UNL     1      -2.982  -2.529   1.886  0.00  0.00    +0.210 HD
ENDBRANCH  16  34
TORSDOF 5
