REMARK  Name = ZINC44463622
REMARK  7 active torsions:
REMARK  status: ('A' for Active; 'I' for Inactive)
REMARK    1  A    between atoms: C_4  and  C_19
REMARK    2  A    between atoms: C_5  and  C_7
REMARK    3  A    between atoms: C_10  and  C_13
REMARK    4  A    between atoms: C_13  and  CA_14
REMARK    5  A    between atoms: CA_14  and  C_16
REMARK    6  A    between atoms: CA_14  and  N_18
REMARK    7  A    between atoms: C_16  and  O_17
REMARK                            x       y       z     vdW  Elec       q    Type
REMARK                         _______ _______ _______ _____ _____    ______ ____
ROOT
ATOM      1  C   UNL     1       1.636  -2.073  -0.579  0.00  0.00    -0.017 A 
ATOM      2  C   UNL     1       2.492  -2.447  -1.614  0.00  0.00    +0.009 A 
ATOM      3  C   UNL     1       2.700  -3.784  -1.884  0.00  0.00    +0.004 A 
ATOM      4  C   UNL     1       2.062  -4.753  -1.130  0.00  0.00    -0.049 A 
ATOM      5  C   UNL     1       1.212  -4.388  -0.102  0.00  0.00    +0.004 A 
ATOM      6  C   UNL     1       1.000  -3.054   0.182  0.00  0.00    +0.009 A 
ENDROOT
BRANCH   1  11
ATOM      7  C   UNL     1       1.481   1.206   1.251  0.00  0.00    +0.001 A 
ATOM      8  C   UNL     1       0.981   2.050   0.273  0.00  0.00    +0.001 A 
ATOM      9  C   UNL     1       0.689   1.566  -0.985  0.00  0.00    +0.016 A 
ATOM     10  C   UNL     1       0.899   0.216  -1.278  0.00  0.00    +0.071 A 
ATOM     11  C   UNL     1       1.408  -0.639  -0.284  0.00  0.00    -0.004 A 
ATOM     12  C   UNL     1       1.696  -0.130   0.980  0.00  0.00    +0.009 A 
BRANCH  10  13
ATOM     13  C   UNL     1       0.589  -0.308  -2.620  0.00  0.00    +0.387 C 
ATOM     14  O   UNL     1       0.271   0.460  -3.518  0.00  0.00    -0.241 OA
ATOM     15  O   UNL     1       0.650  -1.510  -2.836  0.00  0.00    -0.241 OA
ENDBRANCH  10  13
ENDBRANCH   1  11
BRANCH   4  16
ATOM     16  C   UNL     1       2.294  -6.212  -1.430  0.00  0.00    +0.021 C 
BRANCH  16  17
ATOM     17  CA  UNL     1       3.482  -6.718  -0.610  0.00  0.00    -0.045 C 
BRANCH  17  18
ATOM     18  N   UNL     1       4.706  -6.032  -1.046  0.00  0.00    +0.382 N 
ATOM     19  H1  UNL     1       4.602  -5.038  -0.908  0.00  0.00    -0.090 HD
ATOM     20  H2  UNL     1       5.490  -6.367  -0.505  0.00  0.00    -0.090 HD
ATOM     21  H3  UNL     1       4.868  -6.221  -2.024  0.00  0.00    -0.090 HD
ENDBRANCH  17  18
BRANCH  17  22
ATOM     22  C   UNL     1       3.641  -8.226  -0.820  0.00  0.00    +0.140 C 
BRANCH  22  23
ATOM     23  O   UNL     1       4.675  -8.719   0.034  0.00  0.00    -0.397 OA
ATOM     24  H   UNL     1       4.830  -9.670  -0.045  0.00  0.00    +0.209 HD
ENDBRANCH  22  23
ENDBRANCH  17  22
ENDBRANCH  16  17
ENDBRANCH   4  16
TORSDOF 7
