REMARK  Name = ZINC36643404
REMARK  9 active torsions:
REMARK  status: ('A' for Active; 'I' for Inactive)
REMARK    1  A    between atoms: C_1  and  C_2
REMARK    2  A    between atoms: N_11  and  C_12
REMARK    3  A    between atoms: C_12  and  C_13
REMARK    4  A    between atoms: C_13  and  C_14
REMARK    5  A    between atoms: C_14  and  N_15
REMARK    6  A    between atoms: N_15  and  C_16
REMARK    7  A    between atoms: N_15  and  C_17
REMARK    8  A    between atoms: C_18  and  C_20
REMARK    9  A    between atoms: C_22  and  C_30
REMARK                            x       y       z     vdW  Elec       q    Type
REMARK                         _______ _______ _______ _____ _____    ______ ____
ROOT
ATOM      1  C   UNL     1       0.208   1.438  -0.014  0.00  0.00    +0.046 C 
ATOM      2  C   UNL     1       0.046  -0.060   0.006  0.00  0.00    -0.024 A 
ATOM      3  C   UNL     1      -0.107  -0.741  -1.173  0.00  0.00    +0.005 A 
ATOM      4  C   UNL     1      -0.259  -2.119  -1.200  0.00  0.00    +0.001 A 
ATOM      5  C   UNL     1      -0.257  -2.824  -0.010  0.00  0.00    +0.017 A 
ATOM      6  C   UNL     1      -0.104  -2.151   1.176  0.00  0.00    +0.041 A 
ATOM      7  C   UNL     1       0.059  -0.748   1.241  0.00  0.00    +0.083 A 
ATOM      8  N   UNL     1       0.203  -0.233   2.481  0.00  0.00    -0.224 NA
ATOM      9  C   UNL     1       0.199  -0.981   3.561  0.00  0.00    +0.168 A 
ATOM     10  S   UNL     1      -0.041  -2.619   2.888  0.00  0.00    -0.052 S 
ATOM     11  N   UNL     1       0.336  -0.597   4.883  0.00  0.00    -0.246 N 
ATOM     12  C   UNL     1       0.392   0.712   5.203  0.00  0.00    +0.253 C 
ATOM     13  O   UNL     1       0.243   1.555   4.340  0.00  0.00    -0.270 OA
ENDROOT
BRANCH  12  14
ATOM     14  C   UNL     1       0.634   1.121   6.603  0.00  0.00    +0.048 A 
ATOM     15  C   UNL     1      -0.207   0.717   7.628  0.00  0.00    +0.042 A 
ATOM     16  C   UNL     1       0.062   1.130   8.944  0.00  0.00    +0.079 A 
ATOM     17  N   UNL     1       1.094   1.895   9.245  0.00  0.00    -0.246 NA
ATOM     18  C   UNL     1       1.952   2.329   8.320  0.00  0.00    +0.072 A 
ATOM     19  C   UNL     1       1.776   1.964   6.962  0.00  0.00    +0.013 A 
ATOM     20  C   UNL     1       2.682   2.417   5.997  0.00  0.00    +0.011 A 
ATOM     21  C   UNL     1       3.732   3.201   6.374  0.00  0.00    +0.001 A 
ATOM     22  C   UNL     1       3.914   3.557   7.708  0.00  0.00    +0.002 A 
ATOM     23  C   UNL     1       3.044   3.144   8.670  0.00  0.00    +0.028 A 
BRANCH  16  24
ATOM     24  C   UNL     1      -0.841   0.693  10.027  0.00  0.00    +0.038 A 
ATOM     25  C   UNL     1      -0.836   1.048  11.351  0.00  0.00    +0.017 A 
ATOM     26  C   UNL     1      -1.788   0.507  12.184  0.00  0.00    +0.008 A 
ATOM     27  C   UNL     1      -2.701  -0.360  11.671  0.00  0.00    +0.046 A 
ATOM     28  S   UNL     1      -2.228  -0.428   9.951  0.00  0.00    -0.095 S 
ENDBRANCH  16  24
ENDBRANCH  12  14
BRANCH  11  29
ATOM     29  C   UNL     1       0.419  -1.612   5.936  0.00  0.00    +0.114 C 
BRANCH  29  30
ATOM     30  C   UNL     1       1.883  -1.993   6.162  0.00  0.00    +0.001 C 
BRANCH  30  31
ATOM     31  C   UNL     1       1.971  -3.053   7.262  0.00  0.00    -0.078 C 
BRANCH  31  32
ATOM     32  N   UNL     1       3.377  -3.419   7.479  0.00  0.00    +0.376 N 
ATOM     33  C   UNL     1       4.110  -2.257   8.000  0.00  0.00    -0.097 C 
ATOM     34  C   UNL     1       3.452  -4.521   8.448  0.00  0.00    -0.097 C 
ATOM     35  H   UNL     1       3.787  -3.711   6.605  0.00  0.00    -0.083 HD
ENDBRANCH  31  32
ENDBRANCH  30  31
ENDBRANCH  29  30
ENDBRANCH  11  29
TORSDOF 6
