REMARK  Name = ZINC19908511
REMARK  12 active torsions:
REMARK  status: ('A' for Active; 'I' for Inactive)
REMARK    1  A    between atoms: C_1  and  C_2
REMARK    2  A    between atoms: C_7  and  N_8
REMARK    3  A    between atoms: C_9  and  C_11
REMARK    4  A    between atoms: C_15  and  N_16
REMARK    5  A    between atoms: C_17  and  C_19
REMARK    6  A    between atoms: C_19  and  N_20
REMARK    7  A    between atoms: N_20  and  C_21
REMARK    8  A    between atoms: C_21  and  C_22
REMARK    9  A    between atoms: C_28  and  C_32
REMARK   10  A    between atoms: C_32  and  C_33
REMARK   11  A    between atoms: C_32  and  C_34
REMARK   12  A    between atoms: C_32  and  C_35
REMARK                            x       y       z     vdW  Elec       q    Type
REMARK                         _______ _______ _______ _____ _____    ______ ____
ROOT
ATOM      1  C   UNL     1      -3.676  -1.041  -0.198  0.00  0.00    +0.069 A 
ATOM      2  C   UNL     1      -4.372  -1.522   0.983  0.00  0.00    -0.023 A 
ATOM      3  C   UNL     1      -5.522  -2.187   0.742  0.00  0.00    -0.004 A 
ATOM      4  S   UNL     1      -5.688  -2.181  -1.020  0.00  0.00    -0.077 S 
ATOM      5  C   UNL     1      -4.253  -1.302  -1.433  0.00  0.00    +0.084 A 
ATOM      6  C   UNL     1      -6.445  -2.791   1.755  0.00  0.00    +0.046 C 
ATOM      7  C   UNL     1      -6.088  -2.221   3.136  0.00  0.00    -0.000 C 
ATOM      8  C   UNL     1      -4.571  -2.310   3.329  0.00  0.00    +0.009 C 
ATOM      9  C   UNL     1      -3.870  -1.310   2.407  0.00  0.00    +0.037 C 
ENDROOT
BRANCH   1  11
ATOM     10  N   UNL     1      -2.427   1.041   0.019  0.00  0.00    -0.281 N 
ATOM     11  C   UNL     1      -2.414  -0.302  -0.090  0.00  0.00    +0.251 C 
ATOM     12  O   UNL     1      -1.355  -0.902  -0.098  0.00  0.00    -0.270 OA
ATOM     13  H   UNL     1      -3.384   1.576   0.118  0.00  0.00    +0.155 HD
BRANCH  10  20
ATOM     14  C   UNL     1      -2.362   3.585   1.293  0.00  0.00    +0.045 C 
ATOM     15  C   UNL     1      -1.149   3.001   0.616  0.00  0.00    -0.029 A 
ATOM     16  C   UNL     1       0.038   3.707   0.596  0.00  0.00    +0.005 A 
ATOM     17  C   UNL     1       1.152   3.171  -0.024  0.00  0.00    +0.000 A 
ATOM     18  C   UNL     1       1.082   1.928  -0.626  0.00  0.00    +0.002 A 
ATOM     19  C   UNL     1      -0.102   1.218  -0.610  0.00  0.00    +0.023 A 
ATOM     20  C   UNL     1      -1.225   1.756   0.006  0.00  0.00    +0.037 A 
ENDBRANCH  10  20
ENDBRANCH   1  11
BRANCH   5  21
ATOM     21  N   UNL     1      -3.792  -0.948  -2.692  0.00  0.00    -0.281 N 
ATOM     22  C   UNL     1      -4.495  -1.293  -3.789  0.00  0.00    +0.201 C 
ATOM     23  O   UNL     1      -5.531  -1.913  -3.675  0.00  0.00    -0.278 OA
ATOM     24  H   UNL     1      -2.852  -0.386  -2.795  0.00  0.00    +0.155 HD
BRANCH  22  25
ATOM     25  C   UNL     1      -3.994  -0.908  -5.157  0.00  0.00    +0.016 C 
BRANCH  25  26
ATOM     26  N   UNL     1      -4.931  -1.396  -6.177  0.00  0.00    +0.389 N 
ATOM     27  H   UNL     1      -5.009  -2.491  -6.110  0.00  0.00    -0.085 HD
ATOM     28  H   UNL     1      -5.922  -0.948  -6.010  0.00  0.00    -0.085 HD
BRANCH  26  29
ATOM     29  C   UNL     1      -4.474  -1.039  -7.527  0.00  0.00    -0.006 C 
BRANCH  29  30
ATOM     30  C   UNL     1      -5.459  -1.555  -8.544  0.00  0.00    +0.088 A 
ATOM     31  C   UNL     1      -6.527  -0.887  -9.014  0.00  0.00    +0.042 A 
ATOM     32  C   UNL     1      -7.168  -1.739  -9.943  0.00  0.00    +0.041 A 
ATOM     33  C   UNL     1      -6.452  -2.878  -9.984  0.00  0.00    +0.195 A 
ATOM     34  O   UNL     1      -5.415  -2.758  -9.139  0.00  0.00    -0.470 OA
ENDBRANCH  29  30
ENDBRANCH  26  29
ENDBRANCH  25  26
ENDBRANCH  22  25
ENDBRANCH   5  21
BRANCH   7  35
ATOM     35  C   UNL     1      -6.791  -3.035   4.224  0.00  0.00    -0.035 C 
ATOM     36  C   UNL     1      -6.420  -2.476   5.599  0.00  0.00    +0.011 C 
ATOM     37  C   UNL     1      -8.306  -2.945   4.029  0.00  0.00    +0.011 C 
ATOM     38  C   UNL     1      -6.351  -4.497   4.132  0.00  0.00    +0.011 C 
ENDBRANCH   7  35
TORSDOF 8
