REMARK  Name = ZINC22322490
REMARK  15 active torsions:
REMARK  status: ('A' for Active; 'I' for Inactive)
REMARK    1  A    between atoms: C_1  and  C_2
REMARK    2  A    between atoms: C_2  and  O_3
REMARK    3  A    between atoms: O_3  and  C_4
REMARK    4  A    between atoms: C_7  and  N_10
REMARK    5  A    between atoms: N_10  and  C_11
REMARK    6  A    between atoms: N_10  and  S_27
REMARK    7  A    between atoms: C_11  and  C_12
REMARK    8  A    between atoms: N_14  and  C_15
REMARK    9  A    between atoms: C_15  and  C_17
REMARK   10  A    between atoms: C_15  and  C_18
REMARK   11  A    between atoms: C_18  and  O_19
REMARK   12  A    between atoms: O_19  and  C_20
REMARK   13  A    between atoms: C_23  and  C_26
REMARK   14  A    between atoms: S_27  and  C_30
REMARK   15  A    between atoms: C_33  and  C_36
REMARK                            x       y       z     vdW  Elec       q    Type
REMARK                         _______ _______ _______ _____ _____    ______ ____
ROOT
ATOM      1  N   UNL     1       2.400   1.063  -0.025  0.00  0.00    -0.194 N 
ENDROOT
BRANCH   1   5
ATOM      2  C   UNL     1       3.819  -0.484   3.576  0.00  0.00    +0.121 A 
ATOM      3  C   UNL     1       2.482  -0.139   3.449  0.00  0.00    +0.047 A 
ATOM      4  C   UNL     1       2.011   0.373   2.256  0.00  0.00    +0.028 A 
ATOM      5  C   UNL     1       2.877   0.544   1.184  0.00  0.00    +0.052 A 
ATOM      6  C   UNL     1       4.214   0.194   1.311  0.00  0.00    +0.028 A 
ATOM      7  C   UNL     1       4.685  -0.313   2.506  0.00  0.00    +0.047 A 
BRANCH   2   8
ATOM      8  O   UNL     1       4.282  -0.989   4.751  0.00  0.00    -0.492 OA
BRANCH   8  10
ATOM      9  C   UNL     1       6.003  -1.871   6.201  0.00  0.00    +0.048 C 
ATOM     10  C   UNL     1       5.670  -1.322   4.812  0.00  0.00    +0.225 C 
ENDBRANCH   8  10
ENDBRANCH   2   8
ENDBRANCH   1   5
BRANCH   1  11
ATOM     11  S   UNL     1       2.565   0.191  -1.423  0.00  0.00    +0.075 S 
ATOM     12  O   UNL     1       2.815  -1.154  -1.035  0.00  0.00    -0.150 OA
ATOM     13  O   UNL     1       1.474   0.552  -2.258  0.00  0.00    -0.150 OA
BRANCH  11  14
ATOM     14  C   UNL     1       4.025   0.764  -2.225  0.00  0.00    +0.109 A 
ATOM     15  C   UNL     1       3.973   1.880  -3.039  0.00  0.00    +0.029 A 
ATOM     16  C   UNL     1       5.120   2.332  -3.666  0.00  0.00    +0.005 A 
ATOM     17  C   UNL     1       6.316   1.663  -3.486  0.00  0.00    -0.050 A 
ATOM     18  C   UNL     1       6.366   0.544  -2.676  0.00  0.00    +0.005 A 
ATOM     19  C   UNL     1       5.221   0.094  -2.046  0.00  0.00    +0.029 A 
ATOM     20  C   UNL     1       7.564   2.153  -4.172  0.00  0.00    +0.044 C 
ENDBRANCH  11  14
ENDBRANCH   1  11
BRANCH   1  21
ATOM     21  C   UNL     1       1.756   2.378  -0.054  0.00  0.00    +0.227 C 
BRANCH  21  22
ATOM     22  C   UNL     1       0.296   2.230   0.291  0.00  0.00    +0.232 C 
ATOM     23  O   UNL     1      -0.161   1.134   0.537  0.00  0.00    -0.274 OA
ATOM     24  N   UNL     1      -0.503   3.315   0.321  0.00  0.00    -0.308 N 
ATOM     25  H   UNL     1      -0.088   4.310   0.098  0.00  0.00    +0.149 HD
BRANCH  24  26
ATOM     26  C   UNL     1      -1.923   3.171   0.650  0.00  0.00    +0.107 C 
ATOM     27  C   UNL     1      -2.097   3.182   2.170  0.00  0.00    +0.031 C 
BRANCH  26  28
ATOM     28  C   UNL     1      -2.709   4.332   0.038  0.00  0.00    +0.251 C 
BRANCH  28  29
ATOM     29  O   UNL     1      -2.302   5.558   0.649  0.00  0.00    -0.490 OA
BRANCH  29  30
ATOM     30  C   UNL     1      -2.909   6.694   0.216  0.00  0.00    +0.121 A 
ATOM     31  C   UNL     1      -3.871   6.631  -0.781  0.00  0.00    +0.046 A 
ATOM     32  C   UNL     1      -4.490   7.787  -1.215  0.00  0.00    +0.007 A 
ATOM     33  C   UNL     1      -4.143   9.007  -0.666  0.00  0.00    -0.050 A 
ATOM     34  C   UNL     1      -3.180   9.073   0.324  0.00  0.00    +0.007 A 
ATOM     35  C   UNL     1      -2.562   7.920   0.766  0.00  0.00    +0.046 A 
ATOM     36  C   UNL     1      -4.815  10.268  -1.146  0.00  0.00    +0.044 C 
ENDBRANCH  29  30
ENDBRANCH  28  29
ENDBRANCH  26  28
ENDBRANCH  24  26
ENDBRANCH  21  22
ENDBRANCH   1  21
TORSDOF 11
