REMARK  Name = ZINC36843704
REMARK  4 active torsions:
REMARK  status: ('A' for Active; 'I' for Inactive)
REMARK    1  A    between atoms: C_3  and  N_24
REMARK    2  A    between atoms: C_6  and  C_7
REMARK    3  A    between atoms: N_9  and  N_10
REMARK    4  A    between atoms: C_11  and  C_12
REMARK                            x       y       z     vdW  Elec       q    Type
REMARK                         _______ _______ _______ _____ _____    ______ ____
ROOT
ATOM      1  N   UNL     1      -2.447  -2.826   0.011  0.00  0.00    -0.188 NA
ATOM      2  C   UNL     1      -2.427  -4.129   0.004  0.00  0.00    +0.137 C 
ENDROOT
BRANCH   2   3
ATOM      3  C   UNL     1      -3.644  -4.856   0.012  0.00  0.00    +0.010 C 
ATOM      4  C   UNL     1      -4.830  -4.199   0.022  0.00  0.00    +0.020 C 
ATOM      5  C   UNL     1      -6.063  -5.003   0.051  0.00  0.00    +0.020 A 
ATOM      6  C   UNL     1      -7.301  -4.448  -0.268  0.00  0.00    +0.031 A 
ATOM      7  C   UNL     1      -8.432  -5.239  -0.229  0.00  0.00    +0.043 A 
ATOM      8  C   UNL     1      -8.339  -6.576   0.126  0.00  0.00    +0.043 A 
ATOM      9  C   UNL     1      -7.114  -7.136   0.445  0.00  0.00    +0.084 A 
ATOM     10  C   UNL     1      -5.971  -6.357   0.410  0.00  0.00    +0.146 A 
ATOM     11  O   UNL     1      -4.755  -6.877   0.717  0.00  0.00    -0.485 OA
ATOM     12  C   UNL     1      -3.626  -6.362   0.004  0.00  0.00    +0.266 C 
ATOM     13 CL   UNL     1      -7.012  -8.812   0.887  0.00  0.00    -0.080 Cl
ATOM     14 CL   UNL     1      -9.979  -4.557  -0.624  0.00  0.00    -0.083 Cl
ENDBRANCH   2   3
BRANCH   1  17
ATOM     15  C   UNL     1      -1.264  -0.760   0.011  0.00  0.00    +0.263 C 
ATOM     16  O   UNL     1      -2.326  -0.168   0.024  0.00  0.00    -0.268 OA
ATOM     17  N   UNL     1      -1.244  -2.108   0.003  0.00  0.00    -0.203 N 
ATOM     18  H   UNL     1      -0.397  -2.580  -0.008  0.00  0.00    +0.178 HD
BRANCH  15  24
ATOM     19  C   UNL     1      -0.017   1.394   0.010  0.00  0.00    +0.015 A 
ATOM     20  C   UNL     1       1.166   2.097   0.002  0.00  0.00    +0.023 A 
ATOM     21  C   UNL     1       2.381   1.417  -0.013  0.00  0.00    +0.025 A 
ATOM     22  C   UNL     1       2.404   0.025  -0.021  0.00  0.00    +0.023 A 
ATOM     23  C   UNL     1       1.224  -0.684  -0.014  0.00  0.00    +0.015 A 
ATOM     24  C   UNL     1       0.002  -0.004   0.002  0.00  0.00    +0.038 A 
BRANCH  21  25
ATOM     25  N   UNL     1       3.575   2.130  -0.021  0.00  0.00    -0.358 N 
ATOM     26  H   UNL     1       3.561   3.100  -0.015  0.00  0.00    +0.142 HD
ATOM     27  H   UNL     1       4.422   1.658  -0.031  0.00  0.00    +0.142 HD
ENDBRANCH  21  25
ENDBRANCH  15  24
ENDBRANCH   1  17
TORSDOF 4
