REMARK  Name = ZINC22066361
REMARK  16 active torsions:
REMARK  status: ('A' for Active; 'I' for Inactive)
REMARK    1  A    between atoms: C_1  and  C_2
REMARK    2  A    between atoms: C_3  and  C_10
REMARK    3  A    between atoms: C_4  and  C_8
REMARK    4  A    between atoms: C_4  and  C_9
REMARK    5  A    between atoms: C_11  and  C_12
REMARK    6  A    between atoms: C_12  and  C_39
REMARK    7  A    between atoms: C_13  and  C_14
REMARK    8  A    between atoms: C_15  and  C_16
REMARK    9  A    between atoms: C_16  and  C_38
REMARK   10  A    between atoms: C_17  and  C_18
REMARK   11  A    between atoms: C_18  and  O_20
REMARK   12  A    between atoms: O_20  and  C_21
REMARK   13  A    between atoms: C_23  and  O_37
REMARK   14  A    between atoms: C_25  and  O_36
REMARK   15  A    between atoms: C_27  and  O_35
REMARK   16  A    between atoms: C_29  and  C_32
REMARK                            x       y       z     vdW  Elec       q    Type
REMARK                         _______ _______ _______ _____ _____    ______ ____
ROOT
ATOM      1  C   UNL     1       3.661  10.523  -1.014  0.00  0.00    -0.044 C 
ATOM      2  C   UNL     1       4.830  11.191  -1.232  0.00  0.00    +0.095 C 
ATOM      3  C   UNL     1       2.363  11.283  -0.933  0.00  0.00    +0.044 C 
ENDROOT
BRANCH   1   5
ATOM      4  C   UNL     1       2.497   8.459  -0.646  0.00  0.00    +0.001 C 
ATOM      5  C   UNL     1       3.668   9.128  -0.865  0.00  0.00    +0.003 C 
BRANCH   4   7
ATOM      6  C   UNL     1       1.335   6.396  -0.279  0.00  0.00    -0.050 C 
ATOM      7  C   UNL     1       2.504   7.064  -0.497  0.00  0.00    +0.003 C 
ATOM      8  C   UNL     1       0.036   7.156  -0.199  0.00  0.00    +0.044 C 
BRANCH   6  10
ATOM      9  C   UNL     1       0.177   4.332   0.087  0.00  0.00    +0.004 C 
ATOM     10  C   UNL     1       1.341   4.997  -0.130  0.00  0.00    +0.003 C 
BRANCH   9  13
ATOM     11  C   UNL     1       1.764   3.198   1.959  0.00  0.00    +0.039 C 
ATOM     12  C   UNL     1       0.941   2.326   1.047  0.00  0.00    -0.069 C 
ATOM     13  C   UNL     1       0.171   2.915   0.148  0.00  0.00    -0.043 C 
ATOM     14  C   UNL     1      -0.710   2.170  -0.812  0.00  0.00    -0.010 C 
ATOM     15  C   UNL     1      -0.278   0.704  -0.894  0.00  0.00    +0.011 C 
ATOM     16  C   UNL     1      -0.150   0.153   0.532  0.00  0.00    +0.005 C 
ATOM     17  C   UNL     1       1.037   0.837   1.213  0.00  0.00    +0.031 C 
ATOM     18  C   UNL     1      -0.604   2.808  -2.198  0.00  0.00    +0.016 C 
ATOM     19  C   UNL     1      -2.160   2.244  -0.329  0.00  0.00    +0.016 C 
ENDBRANCH   9  13
ENDBRANCH   6  10
ENDBRANCH   4   7
ENDBRANCH   1   5
BRANCH   2  20
ATOM     20  C   UNL     1       4.847  12.600  -1.234  0.00  0.00    +0.334 C 
ATOM     21  O   UNL     1       3.844  13.221  -0.932  0.00  0.00    -0.246 OA
BRANCH  20  22
ATOM     22  O   UNL     1       5.975  13.262  -1.570  0.00  0.00    -0.429 OA
BRANCH  22  23
ATOM     23  C   UNL     1       5.920  14.690  -1.551  0.00  0.00    +0.343 C 
ATOM     24  C   UNL     1       7.312  15.258  -1.837  0.00  0.00    +0.214 C 
ATOM     25  C   UNL     1       7.234  16.787  -1.874  0.00  0.00    +0.180 C 
ATOM     26  C   UNL     1       6.205  17.209  -2.928  0.00  0.00    +0.186 C 
ATOM     27  C   UNL     1       4.856  16.565  -2.599  0.00  0.00    +0.266 C 
ATOM     28  O   UNL     1       5.006  15.145  -2.550  0.00  0.00    -0.322 OA
BRANCH  27  29
ATOM     29  C   UNL     1       3.853  16.928  -3.664  0.00  0.00    +0.387 C 
ATOM     30  O   UNL     1       3.390  16.068  -4.376  0.00  0.00    -0.243 OA
ATOM     31  O   UNL     1       3.475  18.206  -3.823  0.00  0.00    -0.243 OA
ENDBRANCH  27  29
BRANCH  26  32
ATOM     32  O   UNL     1       6.070  18.632  -2.920  0.00  0.00    -0.386 OA
ATOM     33  H   UNL     1       5.372  19.122  -3.615  0.00  0.00    +0.210 HD
ENDBRANCH  26  32
BRANCH  25  34
ATOM     34  O   UNL     1       6.833  17.276  -0.592  0.00  0.00    -0.386 OA
ATOM     35  H   UNL     1       6.721  18.358  -0.426  0.00  0.00    +0.210 HD
ENDBRANCH  25  34
BRANCH  24  36
ATOM     36  O   UNL     1       8.216  14.851  -0.807  0.00  0.00    -0.383 OA
ATOM     37  H   UNL     1       9.269  15.166  -0.843  0.00  0.00    +0.210 HD
ENDBRANCH  24  36
ENDBRANCH  22  23
ENDBRANCH  20  22
ENDBRANCH   2  20
TORSDOF 11
