REMARK  Name = ZINC03144232
REMARK  11 active torsions:
REMARK  status: ('A' for Active; 'I' for Inactive)
REMARK    1  A    between atoms: C_1  and  O_2
REMARK    2  A    between atoms: O_2  and  C_3
REMARK    3  A    between atoms: C_6  and  C_11
REMARK    4  A    between atoms: C_8  and  O_9
REMARK    5  A    between atoms: O_9  and  C_10
REMARK    6  A    between atoms: N_12  and  N_13
REMARK    7  A    between atoms: C_14  and  C_16
REMARK    8  A    between atoms: C_16  and  N_17
REMARK    9  A    between atoms: N_17  and  C_18
REMARK   10  A    between atoms: N_17  and  S_25
REMARK   11  A    between atoms: S_25  and  C_28
REMARK                            x       y       z     vdW  Elec       q    Type
REMARK                         _______ _______ _______ _____ _____    ______ ____
ROOT
ATOM      1  C   UNL     1       1.148  -0.086   1.318  0.00  0.00    +0.228 C 
ENDROOT
BRANCH   1   3
ATOM      2  N   UNL     1       1.357   0.476   3.718  0.00  0.00    -0.206 N 
ATOM      3  C   UNL     1       0.638   0.559   2.581  0.00  0.00    +0.251 C 
ATOM      4  O   UNL     1      -0.421   1.152   2.575  0.00  0.00    -0.272 OA
ATOM      5  H   UNL     1       2.203   0.002   3.723  0.00  0.00    +0.177 HD
BRANCH   2   7
ATOM      6  C   UNL     1       1.575   0.997   5.987  0.00  0.00    +0.138 C 
ATOM      7  N   UNL     1       0.883   1.076   4.892  0.00  0.00    -0.188 NA
BRANCH   6  11
ATOM      8  C   UNL     1       0.132   2.816   9.544  0.00  0.00    +0.162 A 
ATOM      9  C   UNL     1      -0.608   2.900   8.373  0.00  0.00    +0.050 A 
ATOM     10  C   UNL     1      -0.140   2.316   7.215  0.00  0.00    +0.013 A 
ATOM     11  C   UNL     1       1.076   1.627   7.222  0.00  0.00    -0.002 A 
ATOM     12  C   UNL     1       1.821   1.543   8.402  0.00  0.00    +0.059 A 
ATOM     13  C   UNL     1       1.348   2.136   9.557  0.00  0.00    +0.162 A 
BRANCH   8  15
ATOM     14  C   UNL     1      -1.586   4.078  10.598  0.00  0.00    +0.277 C 
ATOM     15  O   UNL     1      -0.332   3.398  10.682  0.00  0.00    -0.491 OA
ENDBRANCH   8  15
BRANCH  13  16
ATOM     16  O   UNL     1       2.070   2.056  10.707  0.00  0.00    -0.491 OA
ATOM     17  C   UNL     1       3.307   1.344  10.648  0.00  0.00    +0.277 C 
ENDBRANCH  13  16
ENDBRANCH   6  11
ENDBRANCH   2   7
ENDBRANCH   1   3
BRANCH   1  18
ATOM     18  N   UNL     1       0.192   0.144   0.232  0.00  0.00    -0.194 N 
BRANCH  18  19
ATOM     19  C   UNL     1      -0.899  -0.713   0.069  0.00  0.00    +0.053 A 
ATOM     20  C   UNL     1      -0.693  -2.070  -0.146  0.00  0.00    +0.025 A 
ATOM     21  C   UNL     1      -1.773  -2.915  -0.306  0.00  0.00    +0.003 A 
ATOM     22  C   UNL     1      -3.060  -2.412  -0.252  0.00  0.00    +0.020 A 
ATOM     23  C   UNL     1      -3.270  -1.061  -0.037  0.00  0.00    +0.043 A 
ATOM     24  C   UNL     1      -2.193  -0.211   0.128  0.00  0.00    +0.044 A 
ATOM     25 CL   UNL     1      -4.888  -0.434   0.031  0.00  0.00    -0.083 Cl
ENDBRANCH  18  19
BRANCH  18  26
ATOM     26  S   UNL     1       0.405   1.419  -0.803  0.00  0.00    +0.075 S 
ATOM     27  O   UNL     1       1.792   1.728  -0.786  0.00  0.00    -0.150 OA
ATOM     28  O   UNL     1      -0.288   1.092  -1.999  0.00  0.00    -0.150 OA
BRANCH  26  29
ATOM     29  C   UNL     1      -0.427   2.804  -0.101  0.00  0.00    +0.109 A 
ATOM     30  C   UNL     1      -1.708   3.122  -0.512  0.00  0.00    +0.029 A 
ATOM     31  C   UNL     1      -2.364   4.205   0.042  0.00  0.00    +0.002 A 
ATOM     32  C   UNL     1      -1.734   4.978   1.000  0.00  0.00    +0.000 A 
ATOM     33  C   UNL     1      -0.451   4.663   1.407  0.00  0.00    +0.002 A 
ATOM     34  C   UNL     1       0.202   3.576   0.857  0.00  0.00    +0.029 A 
ENDBRANCH  26  29
ENDBRANCH  18  26
ENDBRANCH   1  18
TORSDOF 9
