REMARK  Name = ZINC36065297
REMARK  10 active torsions:
REMARK  status: ('A' for Active; 'I' for Inactive)
REMARK    1  A    between atoms: C_1  and  C_2
REMARK    2  A    between atoms: C_5  and  C_8
REMARK    3  A    between atoms: C_8  and  N_9
REMARK    4  A    between atoms: N_9  and  C_10
REMARK    5  A    between atoms: N_9  and  C_21
REMARK    6  A    between atoms: C_10  and  C_11
REMARK    7  A    between atoms: C_15  and  C_17
REMARK    8  A    between atoms: C_21  and  C_22
REMARK    9  A    between atoms: C_24  and  C_27
REMARK   10  A    between atoms: C_35  and  C_37
REMARK                            x       y       z     vdW  Elec       q    Type
REMARK                         _______ _______ _______ _____ _____    ______ ____
ROOT
ATOM      1  N   UNL     1       2.332  -4.297   0.653  0.00  0.00    +0.391 N 
ATOM      2  H   UNL     1       2.861  -4.018   1.466  0.00  0.00    -0.080 HD
ENDROOT
BRANCH   1   3
ATOM      3  C   UNL     1       0.949  -3.818   0.779  0.00  0.00    -0.042 C 
BRANCH   3   8
ATOM      4  C   UNL     1      -1.289  -5.686   5.769  0.00  0.00    +0.044 C 
ATOM      5  C   UNL     1      -0.705  -5.199   4.468  0.00  0.00    -0.050 A 
ATOM      6  C   UNL     1       0.060  -4.048   4.441  0.00  0.00    +0.003 A 
ATOM      7  C   UNL     1       0.596  -3.601   3.248  0.00  0.00    +0.002 A 
ATOM      8  C   UNL     1       0.366  -4.306   2.081  0.00  0.00    -0.064 A 
ATOM      9  C   UNL     1      -0.398  -5.457   2.107  0.00  0.00    +0.002 A 
ATOM     10  C   UNL     1      -0.930  -5.906   3.302  0.00  0.00    +0.003 A 
ENDBRANCH   3   8
ENDBRANCH   1   3
BRANCH   1  11
ATOM     11  C   UNL     1       2.943  -3.717  -0.551  0.00  0.00    -0.042 C 
BRANCH  11  12
ATOM     12  C   UNL     1       3.063  -2.224  -0.383  0.00  0.00    -0.063 A 
ATOM     13  C   UNL     1       2.087  -1.390  -0.894  0.00  0.00    +0.002 A 
ATOM     14  C   UNL     1       2.197  -0.021  -0.740  0.00  0.00    +0.001 A 
ATOM     15  C   UNL     1       3.284   0.515  -0.075  0.00  0.00    +0.012 A 
ATOM     16  C   UNL     1       4.261  -0.319   0.436  0.00  0.00    +0.055 A 
ATOM     17  C   UNL     1       4.148  -1.689   0.286  0.00  0.00    +0.014 A 
BRANCH  16  18
ATOM     18  C   UNL     1       5.446   0.264   1.161  0.00  0.00    +0.417 C 
ATOM     19  F   UNL     1       5.336   1.659   1.188  0.00  0.00    -0.166 F 
ATOM     20  F   UNL     1       5.479  -0.226   2.471  0.00  0.00    -0.166 F 
ATOM     21  F   UNL     1       6.623  -0.098   0.497  0.00  0.00    -0.166 F 
ENDBRANCH  16  18
ENDBRANCH  11  12
ENDBRANCH   1  11
BRANCH   1  22
ATOM     22  C   UNL     1       2.336  -5.762   0.545  0.00  0.00    +0.020 C 
BRANCH  22  23
ATOM     23  C   UNL     1       3.757  -6.262   0.539  0.00  0.00    +0.179 A 
ATOM     24  N   UNL     1       4.443  -6.594   1.592  0.00  0.00    -0.210 NA
ATOM     25  C   UNL     1       5.679  -6.996   1.192  0.00  0.00    +0.164 A 
ATOM     26  C   UNL     1       5.715  -6.893  -0.165  0.00  0.00    +0.230 A 
ATOM     27  O   UNL     1       4.512  -6.440  -0.554  0.00  0.00    -0.449 OA
BRANCH  25  28
ATOM     28  C   UNL     1       6.775  -7.457   2.064  0.00  0.00    +0.268 C 
ATOM     29  O   UNL     1       7.874  -7.681   1.593  0.00  0.00    -0.268 OA
ATOM     30  N   UNL     1       6.560  -7.629   3.383  0.00  0.00    -0.293 N 
ATOM     31  C   UNL     1       5.207  -7.501   3.943  0.00  0.00    +0.127 C 
ATOM     32  C   UNL     1       4.866  -8.789   4.702  0.00  0.00    +0.126 C 
ATOM     33  N   UNL     1       5.980  -9.109   5.606  0.00  0.00    -0.299 N 
ATOM     34  C   UNL     1       7.332  -9.238   5.047  0.00  0.00    +0.126 C 
ATOM     35  C   UNL     1       7.672  -7.955   4.287  0.00  0.00    +0.127 C 
ATOM     36  C   UNL     1       5.764  -9.282   6.926  0.00  0.00    +0.213 C 
ATOM     37  O   UNL     1       4.633  -9.259   7.363  0.00  0.00    -0.276 OA
ATOM     38  C   UNL     1       6.928  -9.502   7.857  0.00  0.00    +0.109 C 
ENDBRANCH  25  28
ENDBRANCH  22  23
ENDBRANCH   1  22
TORSDOF 8
