REMARK  Name = ZINC11787777
REMARK  10 active torsions:
REMARK  status: ('A' for Active; 'I' for Inactive)
REMARK    1  A    between atoms: C_1  and  C_2
REMARK    2  A    between atoms: C_2  and  O_3
REMARK    3  A    between atoms: O_3  and  C_4
REMARK    4  A    between atoms: C_12  and  C_14
REMARK    5  A    between atoms: C_17  and  N_20
REMARK    6  A    between atoms: C_23  and  N_69
REMARK    7  A    between atoms: C_26  and  C_28
REMARK    8  A    between atoms: C_26  and  C_29
REMARK    9  A    between atoms: C_26  and  N_69
REMARK   10  A    between atoms: C_29  and  C_30
REMARK                            x       y       z     vdW  Elec       q    Type
REMARK                         _______ _______ _______ _____ _____    ______ ____
ROOT
ATOM      1  C   UNL     1      -1.331   1.874  -0.056  0.00  0.00    +0.037 A 
ATOM      2  C   UNL     1      -1.410   3.267  -0.146  0.00  0.00    +0.015 A 
ATOM      3  C   UNL     1      -2.640   3.882  -0.213  0.00  0.00    +0.024 A 
ATOM      4  C   UNL     1      -3.804   3.119  -0.177  0.00  0.00    +0.030 A 
ATOM      5  C   UNL     1      -3.728   1.732  -0.081  0.00  0.00    +0.024 A 
ATOM      6  C   UNL     1      -2.502   1.111  -0.021  0.00  0.00    +0.015 A 
ENDROOT
BRANCH   1  15
ATOM      7  C   UNL     1       3.665   2.208  -3.660  0.00  0.00    +0.403 C 
ATOM      8  O   UNL     1       3.483   3.113  -4.451  0.00  0.00    -0.226 OA
ATOM      9  N   UNL     1       2.638   1.740  -2.924  0.00  0.00    -0.264 N 
ATOM     10  C   UNL     1       1.293   2.313  -3.067  0.00  0.00    +0.130 C 
ATOM     11  C   UNL     1       0.807   2.774  -1.687  0.00  0.00    +0.127 C 
ATOM     12  N   UNL     1       1.013   1.680  -0.728  0.00  0.00    -0.295 N 
ATOM     13  C   UNL     1       2.359   1.111  -0.581  0.00  0.00    +0.127 C 
ATOM     14  C   UNL     1       2.844   0.646  -1.964  0.00  0.00    +0.130 C 
ATOM     15  C   UNL     1      -0.014   1.212   0.009  0.00  0.00    +0.247 C 
ATOM     16  O   UNL     1       0.143   0.240   0.722  0.00  0.00    -0.270 OA
BRANCH   7  17
ATOM     17  O   UNL     1       4.893   1.674  -3.520  0.00  0.00    -0.451 OA
BRANCH  17  19
ATOM     18  C   UNL     1       7.264   1.500  -4.048  0.00  0.00    +0.048 C 
ATOM     19  C   UNL     1       5.952   2.228  -4.345  0.00  0.00    +0.230 C 
ENDBRANCH  17  19
ENDBRANCH   7  17
ENDBRANCH   1  15
BRANCH   4  20
ATOM     20  N   UNL     1      -5.045   3.744  -0.238  0.00  0.00    -0.330 N 
ATOM     21  C   UNL     1      -5.878   3.371   0.911  0.00  0.00    +0.103 C 
ATOM     22  C   UNL     1      -7.281   3.958   0.738  0.00  0.00    +0.003 C 
ATOM     23  C   UNL     1      -7.182   5.482   0.628  0.00  0.00    -0.069 C 
ATOM     24  C   UNL     1      -6.269   5.843  -0.547  0.00  0.00    +0.003 C 
ATOM     25  C   UNL     1      -4.896   5.202  -0.336  0.00  0.00    +0.103 C 
BRANCH  23  26
ATOM     26  N   UNL     1      -8.523   6.048   0.393  0.00  0.00    +0.383 N 
ATOM     27  H   UNL     1      -9.067   5.401  -0.190  0.00  0.00    -0.085 HD
ATOM     28  H   UNL     1      -8.430   6.949  -0.090  0.00  0.00    -0.085 HD
BRANCH  26  29
ATOM     29  C   UNL     1      -9.224   6.254   1.675  0.00  0.00    -0.070 C 
ATOM     30  C   UNL     1      -8.824   7.608   2.264  0.00  0.00    -0.013 C 
BRANCH  29  31
ATOM     31  C   UNL     1     -10.734   6.230   1.431  0.00  0.00    +0.026 C 
BRANCH  31  32
ATOM     32  C   UNL     1     -11.147   4.857   0.966  0.00  0.00    -0.012 A 
ATOM     33  C   UNL     1     -11.537   3.788   1.702  0.00  0.00    +0.011 A 
ATOM     34  C   UNL     1     -11.874   2.615   1.054  0.00  0.00    +0.008 A 
ATOM     35  C   UNL     1     -11.804   2.567  -0.298  0.00  0.00    +0.045 A 
ATOM     36  S   UNL     1     -11.255   4.218  -0.698  0.00  0.00    -0.102 S 
ENDBRANCH  31  32
ENDBRANCH  29  31
ENDBRANCH  26  29
ENDBRANCH  23  26
ENDBRANCH   4  20
TORSDOF 8
