REMARK  Name = ZINC25139876
REMARK  11 active torsions:
REMARK  status: ('A' for Active; 'I' for Inactive)
REMARK    1  A    between atoms: C_1  and  C_2
REMARK    2  A    between atoms: C_2  and  C_3
REMARK    3  A    between atoms: C_3  and  C_4
REMARK    4  A    between atoms: C_7  and  S_10
REMARK    5  A    between atoms: S_10  and  N_13
REMARK    6  A    between atoms: N_21  and  C_22
REMARK    7  A    between atoms: C_22  and  C_23
REMARK    8  A    between atoms: N_26  and  C_30
REMARK    9  A    between atoms: C_30  and  C_31
REMARK   10  A    between atoms: C_31  and  C_32
REMARK   11  A    between atoms: C_31  and  C_33
REMARK                            x       y       z     vdW  Elec       q    Type
REMARK                         _______ _______ _______ _____ _____    ______ ____
ROOT
ATOM      1  N   UNL     1      -5.715   1.967   3.614  0.00  0.00    -0.174 NA
ATOM      2  C   UNL     1      -6.362   1.029   2.685  0.00  0.00    +0.128 C 
ATOM      3  C   UNL     1      -5.526  -0.255   2.624  0.00  0.00    +0.126 C 
ATOM      4  N   UNL     1      -4.120   0.109   2.398  0.00  0.00    -0.283 N 
ATOM      5  C   UNL     1      -3.472   1.042   3.330  0.00  0.00    +0.126 C 
ATOM      6  C   UNL     1      -4.309   2.331   3.388  0.00  0.00    +0.128 C 
ATOM      7  C   UNL     1      -3.437  -0.408   1.359  0.00  0.00    +0.302 C 
ATOM      8  O   UNL     1      -2.250  -0.172   1.234  0.00  0.00    -0.253 OA
ATOM      9  N   UNL     1      -4.068  -1.185   0.457  0.00  0.00    -0.297 N 
ATOM     10  H   UNL     1      -5.119  -1.467   0.614  0.00  0.00    +0.150 HD
ENDROOT
BRANCH   1  11
ATOM     11  S   UNL     1      -6.556   2.602   4.892  0.00  0.00    +0.061 S 
ATOM     12  O   UNL     1      -5.911   3.821   5.236  0.00  0.00    -0.153 OA
ATOM     13  O   UNL     1      -7.932   2.539   4.544  0.00  0.00    -0.153 OA
BRANCH  11  17
ATOM     14  C   UNL     1      -5.979  -0.202   8.399  0.00  0.00    -0.047 A 
ATOM     15  C   UNL     1      -5.096   0.842   8.196  0.00  0.00    +0.005 A 
ATOM     16  C   UNL     1      -5.272   1.698   7.125  0.00  0.00    +0.029 A 
ATOM     17  C   UNL     1      -6.331   1.510   6.257  0.00  0.00    +0.105 A 
ATOM     18  C   UNL     1      -7.217   0.470   6.463  0.00  0.00    +0.029 A 
ATOM     19  C   UNL     1      -7.039  -0.389   7.531  0.00  0.00    +0.005 A 
BRANCH  14  20
ATOM     20  C   UNL     1      -5.786  -1.136   9.565  0.00  0.00    +0.035 C 
BRANCH  20  22
ATOM     21  C   UNL     1      -6.347  -1.545  11.965  0.00  0.00    +0.004 C 
ATOM     22  C   UNL     1      -6.543  -0.596  10.781  0.00  0.00    +0.001 C 
ENDBRANCH  20  22
ENDBRANCH  14  20
ENDBRANCH  11  17
ENDBRANCH   1  11
BRANCH   9  23
ATOM     23  C   UNL     1      -3.353  -1.656  -0.732  0.00  0.00    +0.138 C 
BRANCH  23  24
ATOM     24  C   UNL     1      -4.290  -2.514  -1.585  0.00  0.00    +0.149 C 
ATOM     25  C   UNL     1      -3.542  -3.010  -2.825  0.00  0.00    +0.117 C 
ATOM     26  N   UNL     1      -4.423  -3.896  -3.600  0.00  0.00    -0.297 NA
ATOM     27  C   UNL     1      -4.862  -5.038  -2.785  0.00  0.00    +0.112 C 
ATOM     28  C   UNL     1      -5.596  -4.521  -1.545  0.00  0.00    +0.175 C 
ATOM     29  O   UNL     1      -4.736  -3.638  -0.821  0.00  0.00    -0.372 OA
BRANCH  26  30
ATOM     30  C   UNL     1      -3.762  -4.350  -4.831  0.00  0.00    +0.087 C 
BRANCH  30  31
ATOM     31  C   UNL     1      -4.598  -5.455  -5.481  0.00  0.00    -0.003 C 
ATOM     32  C   UNL     1      -5.942  -4.878  -5.932  0.00  0.00    +0.008 C 
ATOM     33  C   UNL     1      -3.850  -6.014  -6.693  0.00  0.00    +0.008 C 
ENDBRANCH  30  31
ENDBRANCH  26  30
ENDBRANCH  23  24
ENDBRANCH   9  23
TORSDOF 8
