REMARK  Name = ZINC40773513
REMARK  10 active torsions:
REMARK  status: ('A' for Active; 'I' for Inactive)
REMARK    1  A    between atoms: C_1  and  C_2
REMARK    2  A    between atoms: C_2  and  C_3
REMARK    3  A    between atoms: C_2  and  C_4
REMARK    4  A    between atoms: C_4  and  C_5
REMARK    5  A    between atoms: C_5  and  C_7
REMARK    6  A    between atoms: C_5  and  N_9
REMARK    7  A    between atoms: C_7  and  O_8
REMARK    8  A    between atoms: N_9  and  S_10
REMARK    9  A    between atoms: S_10  and  C_13
REMARK   10  A    between atoms: C_16  and  N_20
REMARK                            x       y       z     vdW  Elec       q    Type
REMARK                         _______ _______ _______ _____ _____    ______ ____
ROOT
ATOM      1  S   UNL     1       0.149  -3.719  -1.573  0.00  0.00    +0.060 S 
ATOM      2  O   UNL     1       0.675  -3.828  -2.888  0.00  0.00    -0.153 OA
ATOM      3  O   UNL     1       0.979  -3.549  -0.431  0.00  0.00    -0.153 OA
ENDROOT
BRANCH   1   4
ATOM      4  C   UNL     1      -0.805  -5.173  -1.290  0.00  0.00    +0.119 A 
ATOM      5  C   UNL     1      -0.614  -5.910  -0.135  0.00  0.00    +0.031 A 
ATOM      6  C   UNL     1      -1.359  -7.051   0.090  0.00  0.00    +0.025 A 
ATOM      7  C   UNL     1      -2.302  -7.458  -0.846  0.00  0.00    +0.026 A 
ATOM      8  C   UNL     1      -2.492  -6.717  -2.004  0.00  0.00    +0.040 A 
ATOM      9  C   UNL     1      -1.747  -5.573  -2.221  0.00  0.00    +0.046 A 
ATOM     10 BR   UNL     1      -2.010  -4.558  -3.794  0.00  0.00    -0.048 Br
BRANCH   7  11
ATOM     11  N   UNL     1      -3.057  -8.612  -0.621  0.00  0.00    -0.358 N 
ATOM     12  H   UNL     1      -2.923  -9.129   0.188  0.00  0.00    +0.142 HD
ATOM     13  H   UNL     1      -3.715  -8.895  -1.275  0.00  0.00    +0.142 HD
ENDBRANCH   7  11
ENDBRANCH   1   4
BRANCH   1  14
ATOM     14  N   UNL     1      -0.902  -2.440  -1.588  0.00  0.00    -0.185 NA
ATOM     15  H   UNL     1      -1.024  -1.922  -2.399  0.00  0.00    +0.148 HD
BRANCH  14  16
ATOM     16  C   UNL     1      -1.648  -2.090  -0.376  0.00  0.00    +0.102 C 
BRANCH  16  17
ATOM     17  C   UNL     1      -1.424  -0.612  -0.048  0.00  0.00    +0.025 C 
BRANCH  17  19
ATOM     18  C   UNL     1       0.298   1.110   0.509  0.00  0.00    +0.007 C 
ATOM     19  C   UNL     1       0.048  -0.385   0.303  0.00  0.00    -0.016 C 
ATOM     20  C   UNL     1       0.388  -1.141   1.589  0.00  0.00    +0.007 C 
ENDBRANCH  17  19
ENDBRANCH  16  17
BRANCH  16  21
ATOM     21  C   UNL     1      -3.140  -2.341  -0.606  0.00  0.00    +0.176 C 
BRANCH  21  22
ATOM     22  O   UNL     1      -3.623  -1.453  -1.616  0.00  0.00    -0.393 OA
ATOM     23  H   UNL     1      -4.563  -1.557  -1.814  0.00  0.00    +0.209 HD
ENDBRANCH  21  22
ENDBRANCH  16  21
ENDBRANCH  14  16
ENDBRANCH   1  14
TORSDOF 8
