REMARK  Name = ZINC38847394
REMARK  11 active torsions:
REMARK  status: ('A' for Active; 'I' for Inactive)
REMARK    1  A    between atoms: C_1  and  C_2
REMARK    2  A    between atoms: C_5  and  S_8
REMARK    3  A    between atoms: S_8  and  N_11
REMARK    4  A    between atoms: C_14  and  C_17
REMARK    5  A    between atoms: N_19  and  C_20
REMARK    6  A    between atoms: C_20  and  C_21
REMARK    7  A    between atoms: C_21  and  C_22
REMARK    8  A    between atoms: C_22  and  N_23
REMARK    9  A    between atoms: N_23  and  C_24
REMARK   10  A    between atoms: N_23  and  C_25
REMARK   11  A    between atoms: C_31  and  C_35
REMARK                            x       y       z     vdW  Elec       q    Type
REMARK                         _______ _______ _______ _____ _____    ______ ____
ROOT
ATOM      1  C   UNL     1       4.206  -8.381   0.177  0.00  0.00    +0.224 C 
ATOM      2  O   UNL     1       3.596  -7.333   0.203  0.00  0.00    -0.275 OA
ATOM      3  N   UNL     1       5.265  -8.565   0.990  0.00  0.00    -0.250 N 
ATOM      4  C   UNL     1       6.036  -9.711   0.874  0.00  0.00    +0.168 A 
ATOM      5  N   UNL     1       7.016 -10.124   1.643  0.00  0.00    -0.224 NA
ATOM      6  C   UNL     1       7.687 -11.273   1.409  0.00  0.00    +0.080 A 
ATOM      7  C   UNL     1       8.754 -11.828   2.153  0.00  0.00    +0.029 A 
ATOM      8  C   UNL     1       9.329 -13.013   1.774  0.00  0.00    +0.005 A 
ATOM      9  C   UNL     1       8.889 -13.708   0.657  0.00  0.00    -0.049 A 
ATOM     10  C   UNL     1       7.847 -13.195  -0.093  0.00  0.00    +0.020 A 
ATOM     11  C   UNL     1       7.266 -12.008   0.278  0.00  0.00    +0.041 A 
ATOM     12  S   UNL     1       5.943 -11.005  -0.355  0.00  0.00    -0.052 S 
ATOM     13  C   UNL     1       9.541 -15.009   0.265  0.00  0.00    +0.044 C 
ENDROOT
BRANCH   1  17
ATOM     14  N   UNL     1       2.707 -10.465  -3.189  0.00  0.00    -0.177 NA
ATOM     15  C   UNL     1       1.848 -10.474  -1.997  0.00  0.00    +0.110 C 
ATOM     16  C   UNL     1       2.285  -9.338  -1.066  0.00  0.00    +0.030 C 
ATOM     17  C   UNL     1       3.779  -9.477  -0.766  0.00  0.00    +0.078 C 
ATOM     18  C   UNL     1       4.576  -9.367  -2.068  0.00  0.00    +0.030 C 
ATOM     19  C   UNL     1       4.164 -10.509  -3.010  0.00  0.00    +0.110 C 
BRANCH  14  20
ATOM     20  S   UNL     1       2.044 -10.414  -4.706  0.00  0.00    +0.061 S 
ATOM     21  O   UNL     1       3.037  -9.871  -5.565  0.00  0.00    -0.153 OA
ATOM     22  O   UNL     1       0.755  -9.830  -4.566  0.00  0.00    -0.153 OA
BRANCH  20  27
ATOM     23  C   UNL     1       1.170 -16.118  -6.468  0.00  0.00    +0.044 C 
ATOM     24  C   UNL     1       1.388 -14.693  -6.028  0.00  0.00    -0.050 A 
ATOM     25  C   UNL     1       0.392 -14.020  -5.345  0.00  0.00    +0.005 A 
ATOM     26  C   UNL     1       0.592 -12.714  -4.941  0.00  0.00    +0.029 A 
ATOM     27  C   UNL     1       1.789 -12.080  -5.219  0.00  0.00    +0.105 A 
ATOM     28  C   UNL     1       2.785 -12.753  -5.901  0.00  0.00    +0.029 A 
ATOM     29  C   UNL     1       2.587 -14.061  -6.301  0.00  0.00    +0.005 A 
ENDBRANCH  20  27
ENDBRANCH  14  20
ENDBRANCH   1  17
BRANCH   3  30
ATOM     30  C   UNL     1       5.600  -7.555   1.997  0.00  0.00    +0.114 C 
BRANCH  30  31
ATOM     31  C   UNL     1       4.767  -7.795   3.257  0.00  0.00    +0.001 C 
BRANCH  31  32
ATOM     32  C   UNL     1       5.058  -6.693   4.278  0.00  0.00    -0.078 C 
BRANCH  32  33
ATOM     33  N   UNL     1       4.258  -6.923   5.488  0.00  0.00    +0.376 N 
ATOM     34  C   UNL     1       4.689  -8.172   6.130  0.00  0.00    -0.097 C 
ATOM     35  C   UNL     1       4.446  -5.803   6.420  0.00  0.00    -0.097 C 
ATOM     36  H   UNL     1       3.282  -6.992   5.239  0.00  0.00    -0.083 HD
ENDBRANCH  32  33
ENDBRANCH  31  32
ENDBRANCH  30  31
ENDBRANCH   3  30
TORSDOF 7
