REMARK  Name = ZINC13496648
REMARK  6 active torsions:
REMARK  status: ('A' for Active; 'I' for Inactive)
REMARK    1  A    between atoms: C_1  and  C_2
REMARK    2  A    between atoms: N_8  and  C_9
REMARK    3  A    between atoms: C_9  and  C_10
REMARK    4  A    between atoms: C_11  and  O_31
REMARK    5  A    between atoms: C_17  and  N_18
REMARK    6  A    between atoms: C_19  and  C_22
REMARK                            x       y       z     vdW  Elec       q    Type
REMARK                         _______ _______ _______ _____ _____    ______ ____
ROOT
ATOM      1  C   UNL     1       2.848  -0.259   2.793  0.00  0.00    +0.021 A 
ATOM      2  C   UNL     1       2.843   0.446   3.986  0.00  0.00    +0.122 A 
ATOM      3  C   UNL     1       3.538  -0.034   5.093  0.00  0.00    +0.046 A 
ATOM      4  C   UNL     1       4.234  -1.207   5.015  0.00  0.00    +0.019 A 
ATOM      5  C   UNL     1       4.248  -1.927   3.821  0.00  0.00    +0.065 A 
ATOM      6  C   UNL     1       3.546  -1.454   2.700  0.00  0.00    +0.146 A 
ATOM      7  O   UNL     1       3.557  -2.154   1.546  0.00  0.00    -0.440 OA
ATOM      8  C   UNL     1       4.216  -3.311   1.412  0.00  0.00    +0.198 A 
ATOM      9  C   UNL     1       4.940  -3.874   2.456  0.00  0.00    +0.111 A 
ATOM     10  C   UNL     1       4.991  -3.196   3.706  0.00  0.00    +0.204 A 
ATOM     11  O   UNL     1       5.614  -3.654   4.650  0.00  0.00    -0.286 OA
ENDROOT
BRANCH   9  12
ATOM     12  C   UNL     1       5.652  -5.149   2.268  0.00  0.00    +0.118 A 
ATOM     13  N   UNL     1       5.811  -5.852   1.165  0.00  0.00    -0.239 NA
ATOM     14  C   UNL     1       6.496  -7.014   1.141  0.00  0.00    +0.079 A 
ATOM     15  C   UNL     1       6.738  -7.861   0.034  0.00  0.00    +0.029 A 
ATOM     16  C   UNL     1       7.459  -9.017   0.182  0.00  0.00    +0.002 A 
ATOM     17  C   UNL     1       7.974  -9.398   1.413  0.00  0.00    +0.001 A 
ATOM     18  C   UNL     1       7.756  -8.594   2.517  0.00  0.00    +0.017 A 
ATOM     19  C   UNL     1       7.036  -7.434   2.379  0.00  0.00    +0.040 A 
ATOM     20  S   UNL     1       6.529  -6.132   3.476  0.00  0.00    -0.067 S 
ENDBRANCH   9  12
BRANCH   8  21
ATOM     21  N   UNL     1       4.178  -3.958   0.210  0.00  0.00    -0.329 N 
ATOM     22  H   UNL     1       3.613  -3.622  -0.504  0.00  0.00    +0.145 HD
ATOM     23  H   UNL     1       4.715  -4.754   0.070  0.00  0.00    +0.145 HD
ENDBRANCH   8  21
BRANCH   2  24
ATOM     24  O   UNL     1       2.155   1.613   4.076  0.00  0.00    -0.506 OA
ATOM     25  H   UNL     1       1.237   1.507   4.361  0.00  0.00    +0.292 HD
ENDBRANCH   2  24
BRANCH   1  26
ATOM     26  C   UNL     1       2.092   0.270   1.601  0.00  0.00    -0.035 C 
BRANCH  26  33
ATOM     27  C   UNL     1      -0.006   1.882   0.663  0.00  0.00    -0.013 C 
ATOM     28  C   UNL     1      -0.051   0.359   0.530  0.00  0.00    -0.071 C 
ATOM     29  C   UNL     1      -1.504  -0.117   0.598  0.00  0.00    -0.016 C 
ATOM     30  C   UNL     1      -1.543  -1.642   0.465  0.00  0.00    -0.003 C 
ATOM     31  C   UNL     1      -0.677  -2.263   1.565  0.00  0.00    -0.019 C 
ATOM     32  C   UNL     1       0.746  -1.708   1.460  0.00  0.00    -0.078 C 
ATOM     33  N   UNL     1       0.718  -0.250   1.623  0.00  0.00    +0.384 N 
ATOM     34  H   UNL     1       0.287  -0.018   2.505  0.00  0.00    -0.081 HD
ENDBRANCH  26  33
ENDBRANCH   1  26
TORSDOF 5
