REMARK  Name = ZINC14913942
REMARK  10 active torsions:
REMARK  status: ('A' for Active; 'I' for Inactive)
REMARK    1  A    between atoms: C_1  and  C_2
REMARK    2  A    between atoms: C_2  and  C_3
REMARK    3  A    between atoms: C_3  and  C_4
REMARK    4  A    between atoms: C_7  and  C_10
REMARK    5  A    between atoms: C_11  and  C_34
REMARK    6  A    between atoms: C_16  and  C_18
REMARK    7  A    between atoms: C_18  and  N_19
REMARK    8  A    between atoms: C_22  and  C_26
REMARK    9  A    between atoms: C_22  and  C_28
REMARK   10  A    between atoms: C_26  and  C_27
REMARK                            x       y       z     vdW  Elec       q    Type
REMARK                         _______ _______ _______ _____ _____    ______ ____
ROOT
ATOM      1  C   UNL     1       6.014   0.442  -4.770  0.00  0.00    +0.083 A 
ATOM      2  C   UNL     1       5.023   0.763  -5.654  0.00  0.00    +0.016 A 
ATOM      3  S   UNL     1       3.697   1.181  -4.529  0.00  0.00    -0.057 S 
ATOM      4  C   UNL     1       4.596   0.896  -3.010  0.00  0.00    +0.165 A 
ATOM      5  N   UNL     1       5.774   0.517  -3.469  0.00  0.00    -0.224 NA
ATOM      6  N   UNL     1       4.167   1.033  -1.696  0.00  0.00    -0.263 N 
ATOM      7  C   UNL     1       2.908   1.439  -1.437  0.00  0.00    +0.237 C 
ATOM      8  O   UNL     1       2.150   1.685  -2.351  0.00  0.00    -0.274 OA
ATOM      9  C   UNL     1       5.040   0.760  -7.161  0.00  0.00    +0.054 C 
ATOM     10  H   UNL     1       4.773   0.836  -0.965  0.00  0.00    +0.157 HD
ENDROOT
BRANCH   1  14
ATOM     11  C   UNL     1       9.833  -0.788  -6.179  0.00  0.00    -0.047 A 
ATOM     12  C   UNL     1       9.735  -0.035  -5.022  0.00  0.00    +0.004 A 
ATOM     13  C   UNL     1       8.498   0.367  -4.560  0.00  0.00    +0.010 A 
ATOM     14  C   UNL     1       7.346   0.013  -5.261  0.00  0.00    +0.001 A 
ATOM     15  C   UNL     1       7.451  -0.750  -6.423  0.00  0.00    +0.010 A 
ATOM     16  C   UNL     1       8.693  -1.143  -6.878  0.00  0.00    +0.004 A 
BRANCH  11  17
ATOM     17  C   UNL     1      11.186  -1.224  -6.678  0.00  0.00    +0.035 C 
BRANCH  17  19
ATOM     18  C   UNL     1      12.916  -3.024  -6.575  0.00  0.00    +0.004 C 
ATOM     19  C   UNL     1      11.542  -2.581  -6.069  0.00  0.00    +0.001 C 
ENDBRANCH  17  19
ENDBRANCH  11  17
ENDBRANCH   1  14
BRANCH   7  20
ATOM     20  C   UNL     1       2.443   1.587  -0.011  0.00  0.00    +0.214 C 
BRANCH  20  21
ATOM     21  N   UNL     1       1.048   2.037   0.003  0.00  0.00    -0.215 N 
ATOM     22  C   UNL     1      -0.014   1.208   0.009  0.00  0.00    +0.251 C 
ATOM     23  O   UNL     1       0.002  -0.004   0.002  0.00  0.00    -0.272 OA
ATOM     24  C   UNL     1      -1.235   2.107   0.018  0.00  0.00    +0.138 C 
ATOM     25  N   UNL     1      -0.664   3.465   0.026  0.00  0.00    -0.281 N 
ATOM     26  C   UNL     1       0.673   3.321   0.013  0.00  0.00    +0.310 C 
ATOM     27  O   UNL     1       1.453   4.253   0.010  0.00  0.00    -0.252 OA
ATOM     28  H   UNL     1      -1.157   4.301   0.035  0.00  0.00    +0.152 HD
BRANCH  24  29
ATOM     29  C   UNL     1      -2.067   1.885  -1.218  0.00  0.00    -0.015 A 
ATOM     30  C   UNL     1      -3.075   0.940  -1.213  0.00  0.00    +0.006 A 
ATOM     31  C   UNL     1      -3.841   0.740  -2.346  0.00  0.00    +0.000 A 
ATOM     32  C   UNL     1      -3.592   1.478  -3.488  0.00  0.00    +0.000 A 
ATOM     33  C   UNL     1      -2.580   2.420  -3.495  0.00  0.00    +0.000 A 
ATOM     34  C   UNL     1      -1.817   2.623  -2.361  0.00  0.00    +0.006 A 
ENDBRANCH  24  29
BRANCH  24  35
ATOM     35  C   UNL     1      -2.068   1.870   1.279  0.00  0.00    +0.037 C 
ATOM     36  C   UNL     1      -1.256   2.274   2.511  0.00  0.00    +0.007 C 
ENDBRANCH  24  35
ENDBRANCH  20  21
ENDBRANCH   7  20
TORSDOF 7
