REMARK  Name = ZINC16614578
REMARK  10 active torsions:
REMARK  status: ('A' for Active; 'I' for Inactive)
REMARK    1  A    between atoms: C_1  and  C_2
REMARK    2  A    between atoms: C_6  and  C_8
REMARK    3  A    between atoms: C_14  and  C_16
REMARK    4  A    between atoms: C_16  and  C_18
REMARK    5  A    between atoms: C_16  and  N_21
REMARK    6  A    between atoms: C_18  and  C_19
REMARK    7  A    between atoms: C_18  and  C_20
REMARK    8  A    between atoms: N_24  and  C_25
REMARK    9  A    between atoms: C_29  and  C_32
REMARK   10  A    between atoms: C_30  and  C_31
REMARK                            x       y       z     vdW  Elec       q    Type
REMARK                         _______ _______ _______ _____ _____    ______ ____
ROOT
ATOM      1  C   UNL     1       0.045   1.362  -0.088  0.00  0.00    +0.163 C 
ENDROOT
BRANCH   1   8
ATOM      2  C   UNL     1      -1.371   1.452  -6.291  0.00  0.00    +0.134 A 
ATOM      3  N   UNL     1      -2.148   1.854  -5.293  0.00  0.00    -0.140 NA
ATOM      4  N   UNL     1      -1.734   1.800  -4.101  0.00  0.00    -0.125 NA
ATOM      5  C   UNL     1      -0.524   1.359  -3.799  0.00  0.00    +0.188 A 
ATOM      6  S   UNL     1       0.089   0.966  -5.379  0.00  0.00    -0.030 S 
ATOM      7  N   UNL     1       0.089   1.237  -2.558  0.00  0.00    -0.262 N 
ATOM      8  C   UNL     1      -0.571   1.604  -1.442  0.00  0.00    +0.239 C 
ATOM      9  O   UNL     1      -1.661   2.129  -1.527  0.00  0.00    -0.273 OA
ATOM     10  H   UNL     1       0.992   0.888  -2.495  0.00  0.00    +0.157 HD
BRANCH   2  16
ATOM     11  C   UNL     1      -4.435   2.284 -10.141  0.00  0.00    +0.044 C 
ATOM     12  C   UNL     1      -3.109   1.815  -9.601  0.00  0.00    -0.050 A 
ATOM     13  C   UNL     1      -2.136   1.348 -10.468  0.00  0.00    +0.003 A 
ATOM     14  C   UNL     1      -0.916   0.916  -9.980  0.00  0.00    +0.001 A 
ATOM     15  C   UNL     1      -0.661   0.947  -8.625  0.00  0.00    +0.010 A 
ATOM     16  C   UNL     1      -1.637   1.417  -7.745  0.00  0.00    +0.009 A 
ATOM     17  C   UNL     1      -2.868   1.847  -8.243  0.00  0.00    +0.014 A 
ENDBRANCH   2  16
ENDBRANCH   1   8
BRANCH   1  18
ATOM     18  N   UNL     1      -0.993   1.443   0.943  0.00  0.00    -0.288 N 
ATOM     19  C   UNL     1      -0.832   0.795   2.114  0.00  0.00    +0.304 C 
ATOM     20  O   UNL     1       0.175   0.144   2.315  0.00  0.00    -0.252 OA
ATOM     21  N   UNL     1      -1.787   0.870   3.062  0.00  0.00    -0.269 N 
ATOM     22  H   UNL     1      -1.797   1.962   0.782  0.00  0.00    +0.151 HD
ATOM     23  H   UNL     1      -2.619   1.333   2.877  0.00  0.00    +0.156 HD
BRANCH  21  24
ATOM     24  C   UNL     1      -1.578   0.278   4.313  0.00  0.00    +0.038 A 
ATOM     25  C   UNL     1      -0.800  -0.867   4.420  0.00  0.00    +0.023 A 
ATOM     26  C   UNL     1      -0.595  -1.447   5.656  0.00  0.00    +0.002 A 
ATOM     27  C   UNL     1      -1.165  -0.890   6.787  0.00  0.00    +0.004 A 
ATOM     28  C   UNL     1      -1.941   0.250   6.683  0.00  0.00    -0.046 A 
ATOM     29  C   UNL     1      -2.145   0.839   5.450  0.00  0.00    -0.026 A 
ATOM     30  C   UNL     1      -2.985   2.084   5.339  0.00  0.00    +0.046 C 
ATOM     31  C   UNL     1      -2.560   0.854   7.917  0.00  0.00    +0.044 C 
ENDBRANCH  21  24
ENDBRANCH   1  18
BRANCH   1  32
ATOM     32  C   UNL     1       1.115   2.422   0.182  0.00  0.00    +0.012 C 
ATOM     33  C   UNL     1       0.458   3.801   0.264  0.00  0.00    +0.009 C 
ATOM     34  C   UNL     1       1.817   2.111   1.506  0.00  0.00    +0.009 C 
ENDBRANCH   1  32
TORSDOF 5
