REMARK  Name = ZINC34869079
REMARK  10 active torsions:
REMARK  status: ('A' for Active; 'I' for Inactive)
REMARK    1  A    between atoms: C_1  and  C_2
REMARK    2  A    between atoms: C_7  and  N_8
REMARK    3  A    between atoms: C_9  and  C_34
REMARK    4  A    between atoms: C_12  and  S_13
REMARK    5  A    between atoms: S_13  and  C_14
REMARK    6  A    between atoms: C_14  and  C_15
REMARK    7  A    between atoms: C_15  and  C_16
REMARK    8  A    between atoms: C_16  and  C_17
REMARK    9  A    between atoms: C_23  and  C_26
REMARK   10  A    between atoms: C_27  and  C_29
REMARK                            x       y       z     vdW  Elec       q    Type
REMARK                         _______ _______ _______ _____ _____    ______ ____
ROOT
ATOM      1  S   UNL     1       2.454   0.977   2.688  0.00  0.00    -0.086 S 
ENDROOT
BRANCH   1   6
ATOM      2  N   UNL     1      -0.344   0.987   2.600  0.00  0.00    -0.270 N 
ATOM      3  C   UNL     1      -1.362   1.332   3.461  0.00  0.00    +0.169 A 
ATOM      4  N   UNL     1      -0.801   1.758   4.569  0.00  0.00    -0.128 NA
ATOM      5  N   UNL     1       0.479   1.704   4.463  0.00  0.00    -0.122 NA
ATOM      6  C   UNL     1       0.816   1.235   3.282  0.00  0.00    +0.196 A 
BRANCH   2  13
ATOM      7  C   UNL     1      -0.429   2.838   0.440  0.00  0.00    +0.046 C 
ATOM      8  C   UNL     1      -0.515   1.350   0.216  0.00  0.00    -0.026 A 
ATOM      9  C   UNL     1      -0.633   0.849  -1.066  0.00  0.00    +0.005 A 
ATOM     10  C   UNL     1      -0.712  -0.516  -1.271  0.00  0.00    +0.000 A 
ATOM     11  C   UNL     1      -0.673  -1.383  -0.195  0.00  0.00    +0.002 A 
ATOM     12  C   UNL     1      -0.555  -0.888   1.089  0.00  0.00    +0.026 A 
ATOM     13  C   UNL     1      -0.469   0.482   1.298  0.00  0.00    +0.053 A 
ENDBRANCH   2  13
BRANCH   3  14
ATOM     14  C   UNL     1      -2.812   1.241   3.189  0.00  0.00    +0.020 A 
ATOM     15  C   UNL     1      -3.271   1.067   1.883  0.00  0.00    +0.011 A 
ATOM     16  C   UNL     1      -4.625   0.983   1.636  0.00  0.00    +0.001 A 
ATOM     17  C   UNL     1      -5.529   1.070   2.680  0.00  0.00    +0.000 A 
ATOM     18  C   UNL     1      -5.081   1.243   3.978  0.00  0.00    +0.001 A 
ATOM     19  C   UNL     1      -3.728   1.323   4.239  0.00  0.00    +0.011 A 
ENDBRANCH   3  14
ENDBRANCH   1   6
BRANCH   1  20
ATOM     20  C   UNL     1       3.509   1.499   4.069  0.00  0.00    +0.078 C 
BRANCH  20  21
ATOM     21  C   UNL     1       4.979   1.325   3.682  0.00  0.00    +0.020 C 
BRANCH  21  22
ATOM     22  C   UNL     1       5.868   1.765   4.847  0.00  0.00    +0.097 C 
BRANCH  22  23
ATOM     23  C   UNL     1       7.316   1.594   4.466  0.00  0.00    +0.216 C 
ATOM     24  O   UNL     1       7.608   1.162   3.370  0.00  0.00    -0.276 OA
ATOM     25  N   UNL     1       8.287   1.920   5.342  0.00  0.00    -0.298 N 
ATOM     26  C   UNL     1       7.948   2.438   6.675  0.00  0.00    +0.127 C 
ATOM     27  C   UNL     1       8.655   3.785   6.872  0.00  0.00    +0.127 C 
ATOM     28  N   UNL     1      10.071   3.628   6.511  0.00  0.00    -0.295 N 
ATOM     29  C   UNL     1      10.410   3.110   5.179  0.00  0.00    +0.090 C 
ATOM     30  C   UNL     1       9.703   1.758   4.984  0.00  0.00    +0.130 C 
ATOM     31  C   UNL     1      11.925   2.919   5.072  0.00  0.00    +0.029 C 
ATOM     32  C   UNL     1      11.042   3.955   7.388  0.00  0.00    +0.219 C 
ATOM     33  O   UNL     1      12.203   3.729   7.119  0.00  0.00    -0.275 OA
BRANCH  32  34
ATOM     34  C   UNL     1      10.685   4.600   8.702  0.00  0.00    +0.075 C 
ATOM     35  C   UNL     1      10.019   5.969   8.455  0.00  0.00    +0.013 C 
ATOM     36  C   UNL     1      10.554   6.864   9.600  0.00  0.00    +0.001 C 
ATOM     37  C   UNL     1      12.024   6.398   9.740  0.00  0.00    +0.001 C 
ATOM     38  C   UNL     1      11.960   4.872   9.519  0.00  0.00    +0.013 C 
ENDBRANCH  32  34
ENDBRANCH  22  23
ENDBRANCH  21  22
ENDBRANCH  20  21
ENDBRANCH   1  20
TORSDOF 8
