REMARK  Name = ZINC04018158
REMARK  3 active torsions:
REMARK  status: ('A' for Active; 'I' for Inactive)
REMARK    1  A    between atoms: C_3  and  N_19
REMARK    2  A    between atoms: C_4  and  C_10
REMARK    3  A    between atoms: C_6  and  N_7
REMARK                            x       y       z     vdW  Elec       q    Type
REMARK                         _______ _______ _______ _____ _____    ______ ____
ROOT
ATOM      1  C   UNL     1      -0.002   8.684   0.278  0.00  0.00    +0.034 A 
ATOM      2  C   UNL     1       1.196   8.002   0.368  0.00  0.00    +0.025 A 
ATOM      3  C   UNL     1       1.237   6.636   0.136  0.00  0.00    +0.034 A 
ATOM      4  C   UNL     1       0.061   5.952  -0.199  0.00  0.00    +0.030 A 
ATOM      5  C   UNL     1      -1.141   6.652  -0.287  0.00  0.00    +0.044 A 
ATOM      6  C   UNL     1      -1.167   8.011  -0.049  0.00  0.00    +0.127 A 
ENDROOT
BRANCH   4   7
ATOM      7  C   UNL     1       0.093   4.494  -0.454  0.00  0.00    +0.159 A 
ATOM      8  C   UNL     1       0.825   3.952  -1.613  0.00  0.00    +0.279 A 
ATOM      9  O   UNL     1       1.411   4.696  -2.376  0.00  0.00    -0.265 OA
ATOM     10  N   UNL     1       0.839   2.617  -1.812  0.00  0.00    -0.298 N 
ATOM     11  H   UNL     1       1.388   2.195  -2.667  0.00  0.00    +0.171 HD
ATOM     12  C   UNL     1       0.184   1.800  -0.967  0.00  0.00    +0.201 A 
ATOM     13  S   UNL     1       0.210   0.111  -1.242  0.00  0.00    -0.009 S 
ATOM     14  N   UNL     1      -0.485   2.286   0.093  0.00  0.00    -0.123 NA
ATOM     15  N   UNL     1      -0.528   3.662   0.350  0.00  0.00    -0.141 NA
ENDBRANCH   4   7
BRANCH   6  16
ATOM     16  N   UNL     1      -2.445   8.752  -0.142  0.00  0.00    +0.056 N 
ATOM     17  O   UNL     1      -3.471   8.162  -0.429  0.00  0.00    -0.126 OA
ATOM     18  O   UNL     1      -2.470   9.952   0.068  0.00  0.00    -0.126 OA
ENDBRANCH   6  16
BRANCH   3  19
ATOM     19  N   UNL     1       2.445   5.945   0.233  0.00  0.00    -0.357 N 
ATOM     20  H   UNL     1       2.474   4.861   0.048  0.00  0.00    +0.142 HD
ATOM     21  H   UNL     1       3.368   6.484   0.493  0.00  0.00    +0.142 HD
ENDBRANCH   3  19
TORSDOF 3
