REMARK  Name = ZINC39273405
REMARK  14 active torsions:
REMARK  status: ('A' for Active; 'I' for Inactive)
REMARK    1  A    between atoms: C_1  and  C_2
REMARK    2  A    between atoms: C_5  and  C_8
REMARK    3  A    between atoms: C_10  and  C_14
REMARK    4  A    between atoms: N_16  and  N_17
REMARK    5  A    between atoms: C_18  and  C_19
REMARK    6  A    between atoms: C_21  and  C_30
REMARK    7  A    between atoms: C_22  and  O_29
REMARK    8  A    between atoms: C_23  and  C_25
REMARK    9  A    between atoms: C_25  and  C_26
REMARK   10  A    between atoms: C_25  and  C_27
REMARK   11  A    between atoms: C_25  and  C_28
REMARK   12  A    between atoms: C_30  and  C_31
REMARK   13  A    between atoms: C_30  and  C_32
REMARK   14  A    between atoms: C_30  and  C_33
REMARK                            x       y       z     vdW  Elec       q    Type
REMARK                         _______ _______ _______ _____ _____    ______ ____
ROOT
ATOM      1  N   UNL     1       2.633  -8.232   2.663  0.00  0.00    -0.188 NA
ATOM      2  C   UNL     1       2.682  -8.800   3.829  0.00  0.00    +0.138 C 
ENDROOT
BRANCH   2   3
ATOM      3  C   UNL     1       1.545  -8.676   4.758  0.00  0.00    -0.005 A 
ATOM      4  C   UNL     1       0.313  -8.201   4.299  0.00  0.00    +0.017 A 
ATOM      5  C   UNL     1      -0.747  -8.087   5.171  0.00  0.00    +0.000 A 
ATOM      6  C   UNL     1      -0.594  -8.443   6.505  0.00  0.00    +0.124 A 
ATOM      7  C   UNL     1       0.628  -8.915   6.966  0.00  0.00    +0.000 A 
ATOM      8  C   UNL     1       1.693  -9.038   6.099  0.00  0.00    +0.017 A 
BRANCH   7   9
ATOM      9  C   UNL     1       0.789  -9.299   8.414  0.00  0.00    -0.009 C 
ATOM     10  C   UNL     1       2.220  -9.783   8.658  0.00  0.00    +0.015 C 
ATOM     11  C   UNL     1       0.504  -8.084   9.299  0.00  0.00    +0.015 C 
ATOM     12  C   UNL     1      -0.194 -10.421   8.757  0.00  0.00    +0.015 C 
ENDBRANCH   7   9
BRANCH   5  13
ATOM     13  C   UNL     1      -2.076  -7.575   4.677  0.00  0.00    -0.009 C 
ATOM     14  C   UNL     1      -1.976  -7.256   3.184  0.00  0.00    +0.015 C 
ATOM     15  C   UNL     1      -3.149  -8.642   4.901  0.00  0.00    +0.015 C 
ATOM     16  C   UNL     1      -2.450  -6.306   5.446  0.00  0.00    +0.015 C 
ENDBRANCH   5  13
BRANCH   6  17
ATOM     17  O   UNL     1      -1.642  -8.329   7.361  0.00  0.00    -0.506 OA
ATOM     18  H   UNL     1      -2.193  -9.122   7.417  0.00  0.00    +0.292 HD
ENDBRANCH   6  17
ENDBRANCH   2   3
BRANCH   1  21
ATOM     19  C   UNL     1       1.616  -6.650   1.203  0.00  0.00    +0.263 C 
ATOM     20  O   UNL     1       2.247  -7.118   0.278  0.00  0.00    -0.271 OA
ATOM     21  N   UNL     1       1.757  -7.161   2.442  0.00  0.00    -0.205 N 
ATOM     22  H   UNL     1       1.253  -6.787   3.181  0.00  0.00    +0.177 HD
BRANCH  19  25
ATOM     23  C   UNL     1       1.358  -3.475   0.230  0.00  0.00    +0.092 C 
ATOM     24  C   UNL     1       1.320  -4.185   1.374  0.00  0.00    +0.041 C 
ATOM     25  C   UNL     1       0.674  -5.498   0.965  0.00  0.00    +0.240 C 
ATOM     26  N   UNL     1       0.423  -5.315  -0.474  0.00  0.00    -0.170 NA
ATOM     27  N   UNL     1       0.817  -4.191  -0.791  0.00  0.00    -0.153 NA
BRANCH  23  32
ATOM     28  C   UNL     1       3.487   1.854  -0.260  0.00  0.00    +0.044 C 
ATOM     29  C   UNL     1       2.930   0.459  -0.132  0.00  0.00    -0.050 A 
ATOM     30  C   UNL     1       2.403  -0.177  -1.241  0.00  0.00    +0.004 A 
ATOM     31  C   UNL     1       1.892  -1.454  -1.130  0.00  0.00    +0.010 A 
ATOM     32  C   UNL     1       1.907  -2.102   0.103  0.00  0.00    +0.002 A 
ATOM     33  C   UNL     1       2.438  -1.456   1.218  0.00  0.00    +0.010 A 
ATOM     34  C   UNL     1       2.952  -0.181   1.094  0.00  0.00    +0.004 A 
ENDBRANCH  23  32
ENDBRANCH  19  25
ENDBRANCH   1  21
TORSDOF 7
