REMARK  Name = ZINC67277183
REMARK  7 active torsions:
REMARK  status: ('A' for Active; 'I' for Inactive)
REMARK    1  A    between atoms: C_1  and  C_2
REMARK    2  A    between atoms: C_2  and  C_3
REMARK    3  A    between atoms: C_2  and  C_4
REMARK    4  A    between atoms: C_4  and  C_5
REMARK    5  A    between atoms: C_5  and  N_6
REMARK    6  A    between atoms: C_12  and  N_15
REMARK    7  A    between atoms: C_16  and  C_18
REMARK                            x       y       z     vdW  Elec       q    Type
REMARK                         _______ _______ _______ _____ _____    ______ ____
ROOT
ATOM      1  N   UNL     1      -0.298  -0.115   8.004  0.00  0.00    -0.285 N 
ATOM      2  C   UNL     1       0.055   0.036   9.296  0.00  0.00    +0.220 C 
ATOM      3  O   UNL     1       0.759  -0.793   9.833  0.00  0.00    -0.275 OA
ATOM      4  H   UNL     1      -0.793   0.586   7.552  0.00  0.00    +0.155 HD
ENDROOT
BRANCH   2   5
ATOM      5  C   UNL     1      -0.424   1.235  10.073  0.00  0.00    +0.075 C 
ATOM      6  C   UNL     1       0.080   2.513   9.400  0.00  0.00    +0.015 C 
ATOM      7  C   UNL     1      -0.418   3.731  10.183  0.00  0.00    +0.036 C 
ATOM      8  C   UNL     1       0.091   3.658  11.618  0.00  0.00    +0.112 C 
ATOM      9  C   UNL     1      -0.382   2.377  12.295  0.00  0.00    +0.036 C 
ATOM     10  C   UNL     1       0.115   1.165  11.503  0.00  0.00    +0.015 C 
ATOM     11  C   UNL     1       1.599   3.746  11.649  0.00  0.00    +0.244 C 
ATOM     12  O   UNL     1       2.389   2.978  11.143  0.00  0.00    -0.273 OA
ATOM     13  N   UNL     1       1.881   4.859  12.357  0.00  0.00    -0.238 N 
ATOM     14  C   UNL     1       0.767   5.475  12.771  0.00  0.00    +0.307 C 
ATOM     15  O   UNL     1       0.765   6.498  13.427  0.00  0.00    -0.252 OA
ATOM     16  N   UNL     1      -0.350   4.834  12.380  0.00  0.00    -0.285 N 
ATOM     17  H   UNL     1       2.780   5.173  12.544  0.00  0.00    +0.159 HD
ATOM     18  H   UNL     1      -1.266   5.098  12.563  0.00  0.00    +0.151 HD
ENDBRANCH   2   5
BRANCH   1  25
ATOM     19  N   UNL     1       0.658  -0.631   3.687  0.00  0.00    +0.385 N 
ATOM     20  C   UNL     1       0.567  -2.106   3.778  0.00  0.00    -0.042 C 
ATOM     21  C   UNL     1       0.512  -2.422   5.256  0.00  0.00    -0.061 A 
ATOM     22  C   UNL     1       0.734  -3.593   5.955  0.00  0.00    +0.002 A 
ATOM     23  C   UNL     1       0.616  -3.613   7.333  0.00  0.00    +0.002 A 
ATOM     24  C   UNL     1       0.274  -2.462   8.015  0.00  0.00    +0.023 A 
ATOM     25  C   UNL     1       0.049  -1.283   7.316  0.00  0.00    +0.035 A 
ATOM     26  C   UNL     1       0.169  -1.266   5.933  0.00  0.00    -0.041 A 
ATOM     27  C   UNL     1      -0.011  -0.158   4.921  0.00  0.00    -0.040 C 
ATOM     28  H   UNL     1       1.623  -0.335   3.671  0.00  0.00    -0.081 HD
BRANCH  19  29
ATOM     29  C   UNL     1      -0.051  -0.143   2.497  0.00  0.00    -0.078 C 
BRANCH  29  30
ATOM     30  C   UNL     1       0.728  -0.540   1.241  0.00  0.00    -0.016 C 
BRANCH  30  32
ATOM     31  C   UNL     1      -0.020   1.498   0.005  0.00  0.00    +0.007 C 
ATOM     32  C   UNL     1      -0.010  -0.032   0.001  0.00  0.00    -0.019 C 
ATOM     33  C   UNL     1       0.700  -0.535  -1.257  0.00  0.00    +0.007 C 
ENDBRANCH  30  32
ENDBRANCH  29  30
ENDBRANCH  19  29
ENDBRANCH   1  25
TORSDOF 5
