REMARK  Name = ZINC34762815
REMARK  11 active torsions:
REMARK  status: ('A' for Active; 'I' for Inactive)
REMARK    1  A    between atoms: C_1  and  C_2
REMARK    2  A    between atoms: C_2  and  C_3
REMARK    3  A    between atoms: C_4  and  C_34
REMARK    4  A    between atoms: C_8  and  N_24
REMARK    5  A    between atoms: C_10  and  S_12
REMARK    6  A    between atoms: S_12  and  C_13
REMARK    7  A    between atoms: C_13  and  C_14
REMARK    8  A    between atoms: N_16  and  C_17
REMARK    9  A    between atoms: C_20  and  C_23
REMARK   10  A    between atoms: N_27  and  C_30
REMARK   11  A    between atoms: C_30  and  C_31
REMARK                            x       y       z     vdW  Elec       q    Type
REMARK                         _______ _______ _______ _____ _____    ______ ____
ROOT
ATOM      1  C   UNL     1      -1.381  -0.796   0.065  0.00  0.00    -0.025 A 
ATOM      2  C   UNL     1      -1.931  -1.025   1.266  0.00  0.00    -0.007 A 
ATOM      3  S   UNL     1      -3.571  -1.602   0.872  0.00  0.00    -0.073 S 
ATOM      4  C   UNL     1      -3.474  -1.521  -0.897  0.00  0.00    +0.115 A 
ATOM      5  C   UNL     1      -2.167  -1.041  -1.133  0.00  0.00    +0.051 A 
ATOM      6  C   UNL     1      -1.814  -0.872  -2.501  0.00  0.00    +0.134 A 
ATOM      7  N   UNL     1      -2.701  -1.161  -3.439  0.00  0.00    -0.206 NA
ATOM      8  C   UNL     1      -3.917  -1.605  -3.147  0.00  0.00    +0.191 A 
ATOM      9  N   UNL     1      -4.299  -1.791  -1.890  0.00  0.00    -0.214 NA
ATOM     10  C   UNL     1      -1.310  -0.838   2.626  0.00  0.00    +0.052 C 
ENDROOT
BRANCH   6  11
ATOM     11  N   UNL     1      -0.557  -0.411  -2.846  0.00  0.00    -0.318 N 
ATOM     12  C   UNL     1       0.547  -1.348  -3.108  0.00  0.00    +0.088 C 
ATOM     13  C   UNL     1       1.191  -0.978  -4.448  0.00  0.00    -0.059 C 
ATOM     14  N   UNL     1       1.588   0.436  -4.425  0.00  0.00    +0.387 N 
ATOM     15  C   UNL     1       0.398   1.288  -4.309  0.00  0.00    -0.059 C 
ATOM     16  C   UNL     1      -0.287   1.030  -2.968  0.00  0.00    +0.088 C 
ATOM     17  H   UNL     1       2.196   0.600  -3.636  0.00  0.00    -0.081 HD
BRANCH  14  18
ATOM     18  C   UNL     1       2.304   0.762  -5.665  0.00  0.00    +0.018 C 
BRANCH  18  19
ATOM     19  C   UNL     1       2.819   2.176  -5.591  0.00  0.00    +0.194 C 
ATOM     20  O   UNL     1       2.610   2.847  -4.602  0.00  0.00    -0.278 OA
ATOM     21  N   UNL     1       3.511   2.696  -6.625  0.00  0.00    -0.331 N 
ATOM     22  H   UNL     1       3.677   2.160  -7.416  0.00  0.00    +0.145 HD
ATOM     23  H   UNL     1       3.842   3.607  -6.577  0.00  0.00    +0.145 HD
ENDBRANCH  18  19
ENDBRANCH  14  18
ENDBRANCH   6  11
BRANCH   1  25
ATOM     24  C   UNL     1       0.039   1.235   0.114  0.00  0.00    +0.009 C 
ATOM     25  C   UNL     1       0.033  -0.287  -0.043  0.00  0.00    +0.033 C 
ENDBRANCH   1  25
BRANCH   8  26
ATOM     26  S   UNL     1      -5.042  -1.968  -4.454  0.00  0.00    -0.077 S 
BRANCH  26  27
ATOM     27  C   UNL     1      -6.540  -2.530  -3.600  0.00  0.00    +0.173 C 
BRANCH  27  28
ATOM     28  C   UNL     1      -7.597  -2.877  -4.617  0.00  0.00    +0.227 C 
ATOM     29  O   UNL     1      -7.363  -2.757  -5.801  0.00  0.00    -0.275 OA
ATOM     30  N   UNL     1      -8.803  -3.321  -4.211  0.00  0.00    -0.285 N 
ATOM     31  H   UNL     1      -8.971  -3.475  -3.268  0.00  0.00    +0.155 HD
BRANCH  30  32
ATOM     32  C   UNL     1      -9.813  -3.561  -5.149  0.00  0.00    +0.033 A 
ATOM     33  C   UNL     1     -11.138  -3.293  -4.829  0.00  0.00    +0.023 A 
ATOM     34  C   UNL     1     -12.133  -3.530  -5.757  0.00  0.00    +0.005 A 
ATOM     35  C   UNL     1     -11.811  -4.033  -7.004  0.00  0.00    -0.050 A 
ATOM     36  C   UNL     1     -10.493  -4.301  -7.326  0.00  0.00    +0.005 A 
ATOM     37  C   UNL     1      -9.493  -4.061  -6.404  0.00  0.00    +0.023 A 
ATOM     38  C   UNL     1     -12.899  -4.291  -8.015  0.00  0.00    +0.044 C 
ENDBRANCH  30  32
ENDBRANCH  27  28
ENDBRANCH  26  27
ENDBRANCH   8  26
TORSDOF 8
